MODEL 1
REMARK VINA RESULT:      -8.2      0.000      0.000
REMARK  Name = 
REMARK  10 active torsions:
REMARK  status: ('A' for Active; 'I' for Inactive)
REMARK    1  A    between atoms: C_1  and  C_2
REMARK    2  A    between atoms: C_2  and  C_3
REMARK    3  A    between atoms: C_2  and  N_4
REMARK    4  A    between atoms: C_9  and  C_10
REMARK    5  A    between atoms: C_10  and  C_11
REMARK    6  A    between atoms: C_10  and  C_12
REMARK    7  A    between atoms: C_10  and  C_13
REMARK    8  A    between atoms: N_16  and  C_17
REMARK    9  A    between atoms: C_17  and  C_18
REMARK   10  A    between atoms: C_21  and  C_22
REMARK                            x       y       z     vdW  Elec       q    Type
REMARK                         _______ _______ _______ _____ _____    ______ ____
ROOT
ATOM      1  N   UNL     1      -1.752  12.926  20.869  0.00  0.00    +0.000 N 
ATOM      2  C   UNL     1      -0.525  13.569  21.274  0.00  0.00    +0.000 C 
ATOM      3  C   UNL     1       0.417  13.339  20.067  0.00  0.00    +0.000 C 
ATOM      4  C   UNL     1       1.843  13.141  20.615  0.00  0.00    +0.000 C 
ATOM      5  C   UNL     1       2.528  14.455  21.022  0.00  0.00    +0.000 C 
ATOM      6  C   UNL     1       2.500  15.566  19.950  0.00  0.00    +0.000 C 
ATOM      7  C   UNL     1       1.031  15.792  19.538  0.00  0.00    +0.000 C 
ATOM      8  C   UNL     1       0.285  14.536  19.101  0.00  0.00    +0.000 C 
ATOM      9  N   UNL     1      -0.195  12.138  19.448  0.00  0.00    +0.000 N 
ATOM     10  C   UNL     1      -1.526  11.993  19.862  0.00  0.00    +0.000 C 
ATOM     11  O   UNL     1      -2.345  11.206  19.411  0.00  0.00    +0.000 OA
ENDROOT
BRANCH   6  12
ATOM     12  C   UNL     1       3.560  15.440  18.782  0.00  0.00    +0.000 C 
ATOM     13  C   UNL     1       3.616  14.073  18.097  0.00  0.00    +0.000 C 
ATOM     14  C   UNL     1       3.282  16.486  17.678  0.00  0.00    +0.000 C 
ATOM     15  C   UNL     1       4.979  15.714  19.326  0.00  0.00    +0.000 C 
ENDBRANCH   6  12
BRANCH   1  17
ATOM     16  C   UNL     1      -3.455  12.595  22.625  0.00  0.00    +0.000 C 
ATOM     17  C   UNL     1      -3.064  13.329  21.347  0.00  0.00    +0.000 C 
ATOM     18  C   UNL     1      -3.095  14.847  21.549  0.00  0.00    +0.000 C 
ENDBRANCH   1  17
BRANCH   9  19
ATOM     19  C   UNL     1       0.385  11.312  18.388  0.00  0.00    +0.000 C 
BRANCH  19  20
ATOM     20  C   UNL     1       1.182  10.075  18.784  0.00  0.00    +0.000 A 
ATOM     21  C   UNL     1       1.026   9.500  20.045  0.00  0.00    +0.000 A 
ATOM     22  C   UNL     1       1.557   8.242  20.348  0.00  0.00    +0.000 A 
ATOM     23  C   UNL     1       2.247   7.493  19.387  0.00  0.00    +0.000 A 
ATOM     24  C   UNL     1       2.485   8.087  18.142  0.00  0.00    +0.000 A 
ATOM     25  C   UNL     1       1.963   9.368  17.851  0.00  0.00    +0.000 A 
BRANCH  23  26
ATOM     26  C   UNL     1       2.557   6.067  19.747  0.00  0.00    +0.000 C 
ATOM     27  O   UNL     1       1.684   5.421  20.327  0.00  0.00    +0.000 OA
ATOM     28  N   UNL     1       3.785   5.559  19.397  0.00  0.00    +0.000 N 
ATOM     29  C   UNL     1       4.091   4.224  19.502  0.00  0.00    +0.000 A 
ATOM     30  N   UNL     1       3.190   3.223  19.766  0.00  0.00    +0.000 NA
ATOM     31  N   UNL     1       3.869   2.085  19.763  0.00  0.00    +0.000 NA
ATOM     32  N   UNL     1       5.129   2.452  19.520  0.00  0.00    +0.000 N 
ATOM     33  N   UNL     1       5.332   3.764  19.302  0.00  0.00    +0.000 NA
ATOM     34  H   UNL     1       4.549   6.135  19.089  0.00  0.00    +0.000 HD
ATOM     35  H   UNL     1       5.885   1.772  19.510  0.00  0.00    +0.000 HD
ENDBRANCH  23  26
ENDBRANCH  19  20
ENDBRANCH   9  19
TORSDOF 5
ENDMDL
MODEL 2
REMARK VINA RESULT:      -8.1      1.405      4.381
REMARK  Name = 
REMARK  10 active torsions:
REMARK  status: ('A' for Active; 'I' for Inactive)
REMARK    1  A    between atoms: C_1  and  C_2
REMARK    2  A    between atoms: C_2  and  C_3
REMARK    3  A    between atoms: C_2  and  N_4
REMARK    4  A    between atoms: C_9  and  C_10
REMARK    5  A    between atoms: C_10  and  C_11
REMARK    6  A    between atoms: C_10  and  C_12
REMARK    7  A    between atoms: C_10  and  C_13
REMARK    8  A    between atoms: N_16  and  C_17
REMARK    9  A    between atoms: C_17  and  C_18
REMARK   10  A    between atoms: C_21  and  C_22
REMARK                            x       y       z     vdW  Elec       q    Type
REMARK                         _______ _______ _______ _____ _____    ______ ____
ROOT
ATOM      1  N   UNL     1       1.953  14.322  18.965  0.00  0.00    +0.000 N 
ATOM      2  C   UNL     1       0.757  14.846  19.580  0.00  0.00    +0.000 C 
ATOM      3  C   UNL     1      -0.034  13.573  19.967  0.00  0.00    +0.000 C 
ATOM      4  C   UNL     1      -1.534  13.881  19.790  0.00  0.00    +0.000 C 
ATOM      5  C   UNL     1      -2.125  14.714  20.937  0.00  0.00    +0.000 C 
ATOM      6  C   UNL     1      -1.839  14.173  22.354  0.00  0.00    +0.000 C 
ATOM      7  C   UNL     1      -0.312  14.005  22.499  0.00  0.00    +0.000 C 
ATOM      8  C   UNL     1       0.350  13.171  21.408  0.00  0.00    +0.000 C 
ATOM      9  N   UNL     1       0.525  12.584  19.014  0.00  0.00    +0.000 N 
ATOM     10  C   UNL     1       1.767  13.015  18.528  0.00  0.00    +0.000 C 
ATOM     11  O   UNL     1       2.552  12.359  17.859  0.00  0.00    +0.000 OA
ENDROOT
BRANCH   6  12
ATOM     12  C   UNL     1      -2.741  12.967  22.839  0.00  0.00    +0.000 C 
ATOM     13  C   UNL     1      -3.434  13.171  24.188  0.00  0.00    +0.000 C 
ATOM     14  C   UNL     1      -3.850  12.666  21.805  0.00  0.00    +0.000 C 
ATOM     15  C   UNL     1      -1.885  11.689  22.977  0.00  0.00    +0.000 C 
ENDBRANCH   6  12
BRANCH   1  17
ATOM     16  C   UNL     1       3.119  16.388  18.278  0.00  0.00    +0.000 C 
ATOM     17  C   UNL     1       3.225  15.026  18.957  0.00  0.00    +0.000 C 
ATOM     18  C   UNL     1       3.748  15.162  20.389  0.00  0.00    +0.000 C 
ENDBRANCH   1  17
BRANCH   9  19
ATOM     19  C   UNL     1       0.009  11.241  18.749  0.00  0.00    +0.000 C 
BRANCH  19  20
ATOM     20  C   UNL     1       0.886  10.044  19.093  0.00  0.00    +0.000 A 
ATOM     21  C   UNL     1       0.854   9.479  20.368  0.00  0.00    +0.000 A 
ATOM     22  C   UNL     1       1.460   8.248  20.642  0.00  0.00    +0.000 A 
ATOM     23  C   UNL     1       2.105   7.517  19.637  0.00  0.00    +0.000 A 
ATOM     24  C   UNL     1       2.220   8.104  18.372  0.00  0.00    +0.000 A 
ATOM     25  C   UNL     1       1.622   9.358  18.109  0.00  0.00    +0.000 A 
BRANCH  23  26
ATOM     26  C   UNL     1       2.503   6.110  19.986  0.00  0.00    +0.000 C 
ATOM     27  O   UNL     1       1.712   5.440  20.649  0.00  0.00    +0.000 OA
ATOM     28  N   UNL     1       3.714   5.644  19.535  0.00  0.00    +0.000 N 
ATOM     29  C   UNL     1       4.082   4.324  19.629  0.00  0.00    +0.000 A 
ATOM     30  N   UNL     1       3.250   3.293  19.984  0.00  0.00    +0.000 NA
ATOM     31  N   UNL     1       3.971   2.182  19.935  0.00  0.00    +0.000 NA
ATOM     32  N   UNL     1       5.189   2.594  19.577  0.00  0.00    +0.000 N 
ATOM     33  N   UNL     1       5.318   3.910  19.325  0.00  0.00    +0.000 NA
ATOM     34  H   UNL     1       4.424   6.245  19.152  0.00  0.00    +0.000 HD
ATOM     35  H   UNL     1       5.968   1.944  19.507  0.00  0.00    +0.000 HD
ENDBRANCH  23  26
ENDBRANCH  19  20
ENDBRANCH   9  19
TORSDOF 5
ENDMDL
MODEL 3
REMARK VINA RESULT:      -8.0      1.783      2.754
REMARK  Name = 
REMARK  10 active torsions:
REMARK  status: ('A' for Active; 'I' for Inactive)
REMARK    1  A    between atoms: C_1  and  C_2
REMARK    2  A    between atoms: C_2  and  C_3
REMARK    3  A    between atoms: C_2  and  N_4
REMARK    4  A    between atoms: C_9  and  C_10
REMARK    5  A    between atoms: C_10  and  C_11
REMARK    6  A    between atoms: C_10  and  C_12
REMARK    7  A    between atoms: C_10  and  C_13
REMARK    8  A    between atoms: N_16  and  C_17
REMARK    9  A    between atoms: C_17  and  C_18
REMARK   10  A    between atoms: C_21  and  C_22
REMARK                            x       y       z     vdW  Elec       q    Type
REMARK                         _______ _______ _______ _____ _____    ______ ____
ROOT
ATOM      1  N   UNL     1      -2.369  11.051  18.609  0.00  0.00    +0.000 N 
ATOM      2  C   UNL     1      -2.086  11.884  19.753  0.00  0.00    +0.000 C 
ATOM      3  C   UNL     1      -0.569  12.164  19.626  0.00  0.00    +0.000 C 
ATOM      4  C   UNL     1       0.018  12.224  21.050  0.00  0.00    +0.000 C 
ATOM      5  C   UNL     1      -0.266  13.551  21.771  0.00  0.00    +0.000 C 
ATOM      6  C   UNL     1       0.100  14.821  20.971  0.00  0.00    +0.000 C 
ATOM      7  C   UNL     1      -0.620  14.747  19.609  0.00  0.00    +0.000 C 
ATOM      8  C   UNL     1      -0.373  13.466  18.820  0.00  0.00    +0.000 C 
ATOM      9  N   UNL     1      -0.129  11.008  18.809  0.00  0.00    +0.000 N 
ATOM     10  C   UNL     1      -1.214  10.444  18.127  0.00  0.00    +0.000 C 
ATOM     11  O   UNL     1      -1.160   9.588  17.255  0.00  0.00    +0.000 OA
ENDROOT
BRANCH   6  12
ATOM     12  C   UNL     1       1.630  15.221  20.953  0.00  0.00    +0.000 C 
ATOM     13  C   UNL     1       2.064  16.088  19.769  0.00  0.00    +0.000 C 
ATOM     14  C   UNL     1       2.007  15.994  22.238  0.00  0.00    +0.000 C 
ATOM     15  C   UNL     1       2.507  13.951  20.908  0.00  0.00    +0.000 C 
ENDBRANCH   6  12
BRANCH   1  17
ATOM     16  C   UNL     1      -4.707  11.842  18.689  0.00  0.00    +0.000 C 
ATOM     17  C   UNL     1      -3.669  10.994  17.961  0.00  0.00    +0.000 C 
ATOM     18  C   UNL     1      -3.534  11.421  16.497  0.00  0.00    +0.000 C 
ENDBRANCH   1  17
BRANCH   9  19
ATOM     19  C   UNL     1       1.253  10.603  18.544  0.00  0.00    +0.000 C 
BRANCH  19  20
ATOM     20  C   UNL     1       1.619   9.131  18.685  0.00  0.00    +0.000 A 
ATOM     21  C   UNL     1       2.244   8.448  17.642  0.00  0.00    +0.000 A 
ATOM     22  C   UNL     1       2.802   7.179  17.826  0.00  0.00    +0.000 A 
ATOM     23  C   UNL     1       2.779   6.549  19.076  0.00  0.00    +0.000 A 
ATOM     24  C   UNL     1       2.085   7.181  20.114  0.00  0.00    +0.000 A 
ATOM     25  C   UNL     1       1.505   8.455  19.914  0.00  0.00    +0.000 A 
BRANCH  23  26
ATOM     26  C   UNL     1       3.615   5.308  19.214  0.00  0.00    +0.000 C 
ATOM     27  O   UNL     1       4.668   5.395  19.845  0.00  0.00    +0.000 OA
ATOM     28  N   UNL     1       3.154   4.145  18.646  0.00  0.00    +0.000 N 
ATOM     29  C   UNL     1       3.738   2.924  18.880  0.00  0.00    +0.000 A 
ATOM     30  N   UNL     1       4.694   2.672  19.832  0.00  0.00    +0.000 NA
ATOM     31  N   UNL     1       4.980   1.380  19.757  0.00  0.00    +0.000 NA
ATOM     32  N   UNL     1       4.208   0.927  18.767  0.00  0.00    +0.000 N 
ATOM     33  N   UNL     1       3.377   1.825  18.207  0.00  0.00    +0.000 NA
ATOM     34  H   UNL     1       2.394   4.120  17.988  0.00  0.00    +0.000 HD
ATOM     35  H   UNL     1       4.259  -0.040  18.457  0.00  0.00    +0.000 HD
ENDBRANCH  23  26
ENDBRANCH  19  20
ENDBRANCH   9  19
TORSDOF 5
ENDMDL
MODEL 4
REMARK VINA RESULT:      -7.8      1.167      1.268
REMARK  Name = 
REMARK  10 active torsions:
REMARK  status: ('A' for Active; 'I' for Inactive)
REMARK    1  A    between atoms: C_1  and  C_2
REMARK    2  A    between atoms: C_2  and  C_3
REMARK    3  A    between atoms: C_2  and  N_4
REMARK    4  A    between atoms: C_9  and  C_10
REMARK    5  A    between atoms: C_10  and  C_11
REMARK    6  A    between atoms: C_10  and  C_12
REMARK    7  A    between atoms: C_10  and  C_13
REMARK    8  A    between atoms: N_16  and  C_17
REMARK    9  A    between atoms: C_17  and  C_18
REMARK   10  A    between atoms: C_21  and  C_22
REMARK                            x       y       z     vdW  Elec       q    Type
REMARK                         _______ _______ _______ _____ _____    ______ ____
ROOT
ATOM      1  N   UNL     1      -1.156  12.999  21.625  0.00  0.00    +0.000 N 
ATOM      2  C   UNL     1       0.114  13.664  21.791  0.00  0.00    +0.000 C 
ATOM      3  C   UNL     1       0.785  13.508  20.405  0.00  0.00    +0.000 C 
ATOM      4  C   UNL     1       2.299  13.334  20.634  0.00  0.00    +0.000 C 
ATOM      5  C   UNL     1       3.025  14.653  20.945  0.00  0.00    +0.000 C 
ATOM      6  C   UNL     1       2.747  15.802  19.951  0.00  0.00    +0.000 C 
ATOM      7  C   UNL     1       1.220  15.998  19.866  0.00  0.00    +0.000 C 
ATOM      8  C   UNL     1       0.427  14.737  19.541  0.00  0.00    +0.000 C 
ATOM      9  N   UNL     1       0.084  12.313  19.877  0.00  0.00    +0.000 N 
ATOM     10  C   UNL     1      -1.126  12.112  20.554  0.00  0.00    +0.000 C 
ATOM     11  O   UNL     1      -2.004  11.317  20.251  0.00  0.00    +0.000 OA
ENDROOT
BRANCH   6  12
ATOM     12  C   UNL     1       3.540  15.752  18.583  0.00  0.00    +0.000 C 
ATOM     13  C   UNL     1       3.533  14.396  17.874  0.00  0.00    +0.000 C 
ATOM     14  C   UNL     1       2.970  16.785  17.584  0.00  0.00    +0.000 C 
ATOM     15  C   UNL     1       5.023  16.113  18.819  0.00  0.00    +0.000 C 
ENDBRANCH   6  12
BRANCH   1  17
ATOM     16  C   UNL     1      -2.752  12.231  23.344  0.00  0.00    +0.000 C 
ATOM     17  C   UNL     1      -2.347  13.343  22.384  0.00  0.00    +0.000 C 
ATOM     18  C   UNL     1      -2.120  14.662  23.129  0.00  0.00    +0.000 C 
ENDBRANCH   1  17
BRANCH   9  19
ATOM     19  C   UNL     1       0.446  11.546  18.684  0.00  0.00    +0.000 C 
BRANCH  19  20
ATOM     20  C   UNL     1       1.210  10.240  18.864  0.00  0.00    +0.000 A 
ATOM     21  C   UNL     1       1.099   9.505  20.045  0.00  0.00    +0.000 A 
ATOM     22  C   UNL     1       1.591   8.200  20.147  0.00  0.00    +0.000 A 
ATOM     23  C   UNL     1       2.194   7.564  19.056  0.00  0.00    +0.000 A 
ATOM     24  C   UNL     1       2.389   8.312  17.889  0.00  0.00    +0.000 A 
ATOM     25  C   UNL     1       1.908   9.638  17.801  0.00  0.00    +0.000 A 
BRANCH  23  26
ATOM     26  C   UNL     1       2.462   6.092  19.204  0.00  0.00    +0.000 C 
ATOM     27  O   UNL     1       2.813   5.684  20.311  0.00  0.00    +0.000 OA
ATOM     28  N   UNL     1       2.286   5.284  18.107  0.00  0.00    +0.000 N 
ATOM     29  C   UNL     1       2.312   3.913  18.186  0.00  0.00    +0.000 A 
ATOM     30  N   UNL     1       2.314   3.186  19.349  0.00  0.00    +0.000 NA
ATOM     31  N   UNL     1       2.320   1.906  19.003  0.00  0.00    +0.000 NA
ATOM     32  N   UNL     1       2.340   1.925  17.669  0.00  0.00    +0.000 N 
ATOM     33  N   UNL     1       2.291   3.140  17.093  0.00  0.00    +0.000 NA
ATOM     34  H   UNL     1       2.174   5.642  17.175  0.00  0.00    +0.000 HD
ATOM     35  H   UNL     1       2.396   1.065  17.129  0.00  0.00    +0.000 HD
ENDBRANCH  23  26
ENDBRANCH  19  20
ENDBRANCH   9  19
TORSDOF 5
ENDMDL
MODEL 5
REMARK VINA RESULT:      -7.7      0.425      1.031
REMARK  Name = 
REMARK  10 active torsions:
REMARK  status: ('A' for Active; 'I' for Inactive)
REMARK    1  A    between atoms: C_1  and  C_2
REMARK    2  A    between atoms: C_2  and  C_3
REMARK    3  A    between atoms: C_2  and  N_4
REMARK    4  A    between atoms: C_9  and  C_10
REMARK    5  A    between atoms: C_10  and  C_11
REMARK    6  A    between atoms: C_10  and  C_12
REMARK    7  A    between atoms: C_10  and  C_13
REMARK    8  A    between atoms: N_16  and  C_17
REMARK    9  A    between atoms: C_17  and  C_18
REMARK   10  A    between atoms: C_21  and  C_22
REMARK                            x       y       z     vdW  Elec       q    Type
REMARK                         _______ _______ _______ _____ _____    ______ ____
ROOT
ATOM      1  N   UNL     1      -1.373  13.077  21.433  0.00  0.00    +0.000 N 
ATOM      2  C   UNL     1      -0.089  13.692  21.666  0.00  0.00    +0.000 C 
ATOM      3  C   UNL     1       0.675  13.440  20.343  0.00  0.00    +0.000 C 
ATOM      4  C   UNL     1       2.158  13.210  20.693  0.00  0.00    +0.000 C 
ATOM      5  C   UNL     1       2.921  14.508  20.999  0.00  0.00    +0.000 C 
ATOM      6  C   UNL     1       2.773  15.619  19.937  0.00  0.00    +0.000 C 
ATOM      7  C   UNL     1       1.267  15.879  19.728  0.00  0.00    +0.000 C 
ATOM      8  C   UNL     1       0.440  14.640  19.400  0.00  0.00    +0.000 C 
ATOM      9  N   UNL     1      -0.042  12.254  19.817  0.00  0.00    +0.000 N 
ATOM     10  C   UNL     1      -1.307  12.139  20.408  0.00  0.00    +0.000 C 
ATOM     11  O   UNL     1      -2.198  11.371  20.076  0.00  0.00    +0.000 OA
ENDROOT
BRANCH   6  12
ATOM     12  C   UNL     1       3.661  15.469  18.637  0.00  0.00    +0.000 C 
ATOM     13  C   UNL     1       5.150  15.765  18.825  0.00  0.00    +0.000 C 
ATOM     14  C   UNL     1       3.556  14.035  18.068  0.00  0.00    +0.000 C 
ATOM     15  C   UNL     1       3.159  16.434  17.540  0.00  0.00    +0.000 C 
ENDBRANCH   6  12
BRANCH   1  17
ATOM     16  C   UNL     1      -3.677  13.888  21.075  0.00  0.00    +0.000 C 
ATOM     17  C   UNL     1      -2.599  13.510  22.084  0.00  0.00    +0.000 C 
ATOM     18  C   UNL     1      -3.091  12.417  23.037  0.00  0.00    +0.000 C 
ENDBRANCH   1  17
BRANCH   9  19
ATOM     19  C   UNL     1       0.369  11.415  18.690  0.00  0.00    +0.000 C 
BRANCH  19  20
ATOM     20  C   UNL     1       1.153  10.141  18.981  0.00  0.00    +0.000 A 
ATOM     21  C   UNL     1       1.079   9.527  20.231  0.00  0.00    +0.000 A 
ATOM     22  C   UNL     1       1.590   8.243  20.450  0.00  0.00    +0.000 A 
ATOM     23  C   UNL     1       2.176   7.508  19.413  0.00  0.00    +0.000 A 
ATOM     24  C   UNL     1       2.335   8.138  18.173  0.00  0.00    +0.000 A 
ATOM     25  C   UNL     1       1.834   9.444  17.966  0.00  0.00    +0.000 A 
BRANCH  23  26
ATOM     26  C   UNL     1       2.467   6.062  19.700  0.00  0.00    +0.000 C 
ATOM     27  O   UNL     1       1.558   5.380  20.175  0.00  0.00    +0.000 OA
ATOM     28  N   UNL     1       3.718   5.577  19.405  0.00  0.00    +0.000 N 
ATOM     29  C   UNL     1       4.021   4.238  19.444  0.00  0.00    +0.000 A 
ATOM     30  N   UNL     1       3.109   3.222  19.579  0.00  0.00    +0.000 NA
ATOM     31  N   UNL     1       3.791   2.086  19.550  0.00  0.00    +0.000 NA
ATOM     32  N   UNL     1       5.063   2.467  19.420  0.00  0.00    +0.000 N 
ATOM     33  N   UNL     1       5.275   3.791  19.302  0.00  0.00    +0.000 NA
ATOM     34  H   UNL     1       4.499   6.171  19.189  0.00  0.00    +0.000 HD
ATOM     35  H   UNL     1       5.821   1.789  19.418  0.00  0.00    +0.000 HD
ENDBRANCH  23  26
ENDBRANCH  19  20
ENDBRANCH   9  19
TORSDOF 5
ENDMDL
MODEL 6
REMARK VINA RESULT:      -7.7      3.947     10.374
REMARK  Name = 
REMARK  10 active torsions:
REMARK  status: ('A' for Active; 'I' for Inactive)
REMARK    1  A    between atoms: C_1  and  C_2
REMARK    2  A    between atoms: C_2  and  C_3
REMARK    3  A    between atoms: C_2  and  N_4
REMARK    4  A    between atoms: C_9  and  C_10
REMARK    5  A    between atoms: C_10  and  C_11
REMARK    6  A    between atoms: C_10  and  C_12
REMARK    7  A    between atoms: C_10  and  C_13
REMARK    8  A    between atoms: N_16  and  C_17
REMARK    9  A    between atoms: C_17  and  C_18
REMARK   10  A    between atoms: C_21  and  C_22
REMARK                            x       y       z     vdW  Elec       q    Type
REMARK                         _______ _______ _______ _____ _____    ______ ____
ROOT
ATOM      1  N   UNL     1       5.449   4.849  15.669  0.00  0.00    +0.000 N 
ATOM      2  C   UNL     1       5.206   3.792  16.621  0.00  0.00    +0.000 C 
ATOM      3  C   UNL     1       4.432   4.503  17.757  0.00  0.00    +0.000 C 
ATOM      4  C   UNL     1       4.860   3.859  19.090  0.00  0.00    +0.000 C 
ATOM      5  C   UNL     1       4.193   2.501  19.355  0.00  0.00    +0.000 C 
ATOM      6  C   UNL     1       2.656   2.487  19.206  0.00  0.00    +0.000 C 
ATOM      7  C   UNL     1       2.310   3.030  17.805  0.00  0.00    +0.000 C 
ATOM      8  C   UNL     1       2.919   4.387  17.472  0.00  0.00    +0.000 C 
ATOM      9  N   UNL     1       4.864   5.908  17.566  0.00  0.00    +0.000 N 
ATOM     10  C   UNL     1       5.356   6.101  16.269  0.00  0.00    +0.000 C 
ATOM     11  O   UNL     1       5.637   7.171  15.749  0.00  0.00    +0.000 OA
ENDROOT
BRANCH   6  12
ATOM     12  C   UNL     1       1.830   3.067  20.424  0.00  0.00    +0.000 C 
ATOM     13  C   UNL     1       1.776   2.171  21.663  0.00  0.00    +0.000 C 
ATOM     14  C   UNL     1       2.409   4.428  20.877  0.00  0.00    +0.000 C 
ATOM     15  C   UNL     1       0.365   3.312  19.999  0.00  0.00    +0.000 C 
ENDBRANCH   6  12
BRANCH   1  17
ATOM     16  C   UNL     1       7.062   4.745  13.803  0.00  0.00    +0.000 C 
ATOM     17  C   UNL     1       5.607   4.622  14.242  0.00  0.00    +0.000 C 
ATOM     18  C   UNL     1       5.030   3.253  13.870  0.00  0.00    +0.000 C 
ENDBRANCH   1  17
BRANCH   9  19
ATOM     19  C   UNL     1       4.633   7.024  18.485  0.00  0.00    +0.000 C 
BRANCH  19  20
ATOM     20  C   UNL     1       3.230   7.610  18.578  0.00  0.00    +0.000 A 
ATOM     21  C   UNL     1       2.447   7.408  19.715  0.00  0.00    +0.000 A 
ATOM     22  C   UNL     1       1.264   8.124  19.928  0.00  0.00    +0.000 A 
ATOM     23  C   UNL     1       0.828   9.095  19.018  0.00  0.00    +0.000 A 
ATOM     24  C   UNL     1       1.555   9.253  17.833  0.00  0.00    +0.000 A 
ATOM     25  C   UNL     1       2.738   8.511  17.615  0.00  0.00    +0.000 A 
BRANCH  23  26
ATOM     26  C   UNL     1      -0.313   9.965  19.465  0.00  0.00    +0.000 C 
ATOM     27  O   UNL     1      -0.292  10.386  20.621  0.00  0.00    +0.000 OA
ATOM     28  N   UNL     1      -1.305  10.254  18.559  0.00  0.00    +0.000 N 
ATOM     29  C   UNL     1      -2.280  11.191  18.803  0.00  0.00    +0.000 A 
ATOM     30  N   UNL     1      -2.285  12.076  19.851  0.00  0.00    +0.000 NA
ATOM     31  N   UNL     1      -3.374  12.819  19.722  0.00  0.00    +0.000 NA
ATOM     32  N   UNL     1      -3.973  12.341  18.629  0.00  0.00    +0.000 N 
ATOM     33  N   UNL     1      -3.324  11.357  17.981  0.00  0.00    +0.000 NA
ATOM     34  H   UNL     1      -1.408   9.769  17.685  0.00  0.00    +0.000 HD
ATOM     35  H   UNL     1      -4.871  12.703  18.318  0.00  0.00    +0.000 HD
ENDBRANCH  23  26
ENDBRANCH  19  20
ENDBRANCH   9  19
TORSDOF 5
ENDMDL
MODEL 7
REMARK VINA RESULT:      -7.5      0.986      1.272
REMARK  Name = 
REMARK  10 active torsions:
REMARK  status: ('A' for Active; 'I' for Inactive)
REMARK    1  A    between atoms: C_1  and  C_2
REMARK    2  A    between atoms: C_2  and  C_3
REMARK    3  A    between atoms: C_2  and  N_4
REMARK    4  A    between atoms: C_9  and  C_10
REMARK    5  A    between atoms: C_10  and  C_11
REMARK    6  A    between atoms: C_10  and  C_12
REMARK    7  A    between atoms: C_10  and  C_13
REMARK    8  A    between atoms: N_16  and  C_17
REMARK    9  A    between atoms: C_17  and  C_18
REMARK   10  A    between atoms: C_21  and  C_22
REMARK                            x       y       z     vdW  Elec       q    Type
REMARK                         _______ _______ _______ _____ _____    ______ ____
ROOT
ATOM      1  N   UNL     1      -1.679  13.113  21.265  0.00  0.00    +0.000 N 
ATOM      2  C   UNL     1      -0.383  13.651  21.605  0.00  0.00    +0.000 C 
ATOM      3  C   UNL     1       0.450  13.420  20.321  0.00  0.00    +0.000 C 
ATOM      4  C   UNL     1       1.895  13.100  20.751  0.00  0.00    +0.000 C 
ATOM      5  C   UNL     1       2.698  14.343  21.164  0.00  0.00    +0.000 C 
ATOM      6  C   UNL     1       2.671  15.506  20.150  0.00  0.00    +0.000 C 
ATOM      7  C   UNL     1       1.196  15.851  19.861  0.00  0.00    +0.000 C 
ATOM      8  C   UNL     1       0.333  14.672  19.424  0.00  0.00    +0.000 C 
ATOM      9  N   UNL     1      -0.288  12.296  19.696  0.00  0.00    +0.000 N 
ATOM     10  C   UNL     1      -1.592  12.220  20.202  0.00  0.00    +0.000 C 
ATOM     11  O   UNL     1      -2.496  11.513  19.779  0.00  0.00    +0.000 OA
ENDROOT
BRANCH   6  12
ATOM     12  C   UNL     1       3.632  15.369  18.901  0.00  0.00    +0.000 C 
ATOM     13  C   UNL     1       3.547  14.036  18.155  0.00  0.00    +0.000 C 
ATOM     14  C   UNL     1       3.346  16.482  17.867  0.00  0.00    +0.000 C 
ATOM     15  C   UNL     1       5.103  15.525  19.347  0.00  0.00    +0.000 C 
ENDBRANCH   6  12
BRANCH   1  17
ATOM     16  C   UNL     1      -3.405  12.651  22.968  0.00  0.00    +0.000 C 
ATOM     17  C   UNL     1      -2.921  13.578  21.859  0.00  0.00    +0.000 C 
ATOM     18  C   UNL     1      -2.743  15.009  22.373  0.00  0.00    +0.000 C 
ENDBRANCH   1  17
BRANCH   9  19
ATOM     19  C   UNL     1       0.154  11.489  18.558  0.00  0.00    +0.000 C 
BRANCH  19  20
ATOM     20  C   UNL     1       1.004  10.253  18.830  0.00  0.00    +0.000 A 
ATOM     21  C   UNL     1       0.871   9.545  20.023  0.00  0.00    +0.000 A 
ATOM     22  C   UNL     1       1.455   8.286  20.200  0.00  0.00    +0.000 A 
ATOM     23  C   UNL     1       2.179   7.671  19.171  0.00  0.00    +0.000 A 
ATOM     24  C   UNL     1       2.394   8.401  17.996  0.00  0.00    +0.000 A 
ATOM     25  C   UNL     1       1.817   9.681  17.834  0.00  0.00    +0.000 A 
BRANCH  23  26
ATOM     26  C   UNL     1       2.551   6.231  19.384  0.00  0.00    +0.000 C 
ATOM     27  O   UNL     1       3.435   5.757  18.671  0.00  0.00    +0.000 OA
ATOM     28  N   UNL     1       1.899   5.528  20.369  0.00  0.00    +0.000 N 
ATOM     29  C   UNL     1       2.297   4.277  20.773  0.00  0.00    +0.000 A 
ATOM     30  N   UNL     1       3.470   3.663  20.412  0.00  0.00    +0.000 NA
ATOM     31  N   UNL     1       3.492   2.487  21.022  0.00  0.00    +0.000 NA
ATOM     32  N   UNL     1       2.341   2.443  21.697  0.00  0.00    +0.000 N 
ATOM     33  N   UNL     1       1.569   3.543  21.623  0.00  0.00    +0.000 NA
ATOM     34  H   UNL     1       1.066   5.863  20.821  0.00  0.00    +0.000 HD
ATOM     35  H   UNL     1       2.071   1.618  22.226  0.00  0.00    +0.000 HD
ENDBRANCH  23  26
ENDBRANCH  19  20
ENDBRANCH   9  19
TORSDOF 5
ENDMDL
MODEL 8
REMARK VINA RESULT:      -7.5      6.928      9.189
REMARK  Name = 
REMARK  10 active torsions:
REMARK  status: ('A' for Active; 'I' for Inactive)
REMARK    1  A    between atoms: C_1  and  C_2
REMARK    2  A    between atoms: C_2  and  C_3
REMARK    3  A    between atoms: C_2  and  N_4
REMARK    4  A    between atoms: C_9  and  C_10
REMARK    5  A    between atoms: C_10  and  C_11
REMARK    6  A    between atoms: C_10  and  C_12
REMARK    7  A    between atoms: C_10  and  C_13
REMARK    8  A    between atoms: N_16  and  C_17
REMARK    9  A    between atoms: C_17  and  C_18
REMARK   10  A    between atoms: C_21  and  C_22
REMARK                            x       y       z     vdW  Elec       q    Type
REMARK                         _______ _______ _______ _____ _____    ______ ____
ROOT
ATOM      1  N   UNL     1      10.129  16.907  18.881  0.00  0.00    +0.000 N 
ATOM      2  C   UNL     1       8.953  16.518  19.622  0.00  0.00    +0.000 C 
ATOM      3  C   UNL     1       9.329  15.126  20.186  0.00  0.00    +0.000 C 
ATOM      4  C   UNL     1       8.051  14.264  20.197  0.00  0.00    +0.000 C 
ATOM      5  C   UNL     1       7.106  14.589  21.364  0.00  0.00    +0.000 C 
ATOM      6  C   UNL     1       7.770  14.606  22.758  0.00  0.00    +0.000 C 
ATOM      7  C   UNL     1       8.965  15.580  22.703  0.00  0.00    +0.000 C 
ATOM      8  C   UNL     1       9.962  15.313  21.582  0.00  0.00    +0.000 C 
ATOM      9  N   UNL     1      10.373  14.697  19.225  0.00  0.00    +0.000 N 
ATOM     10  C   UNL     1      10.907  15.802  18.550  0.00  0.00    +0.000 C 
ATOM     11  O   UNL     1      11.887  15.804  17.818  0.00  0.00    +0.000 OA
ENDROOT
BRANCH   6  12
ATOM     12  C   UNL     1       8.025  13.197  23.430  0.00  0.00    +0.000 C 
ATOM     13  C   UNL     1       8.361  13.236  24.922  0.00  0.00    +0.000 C 
ATOM     14  C   UNL     1       6.787  12.285  23.271  0.00  0.00    +0.000 C 
ATOM     15  C   UNL     1       9.209  12.488  22.735  0.00  0.00    +0.000 C 
ENDBRANCH   6  12
BRANCH   1  17
ATOM     16  C   UNL     1      11.857  18.618  19.308  0.00  0.00    +0.000 C 
ATOM     17  C   UNL     1      10.516  18.290  18.660  0.00  0.00    +0.000 C 
ATOM     18  C   UNL     1      10.540  18.585  17.158  0.00  0.00    +0.000 C 
ENDBRANCH   1  17
BRANCH   9  19
ATOM     19  C   UNL     1      10.955  13.359  19.110  0.00  0.00    +0.000 C 
BRANCH  19  20
ATOM     20  C   UNL     1      10.015  12.164  19.002  0.00  0.00    +0.000 A 
ATOM     21  C   UNL     1       9.100  12.068  17.954  0.00  0.00    +0.000 A 
ATOM     22  C   UNL     1       8.399  10.885  17.697  0.00  0.00    +0.000 A 
ATOM     23  C   UNL     1       8.608   9.735  18.468  0.00  0.00    +0.000 A 
ATOM     24  C   UNL     1       9.459   9.835  19.574  0.00  0.00    +0.000 A 
ATOM     25  C   UNL     1      10.148  11.041  19.840  0.00  0.00    +0.000 A 
BRANCH  23  26
ATOM     26  C   UNL     1       7.989   8.465  17.954  0.00  0.00    +0.000 C 
ATOM     27  O   UNL     1       7.340   8.527  16.910  0.00  0.00    +0.000 OA
ATOM     28  N   UNL     1       8.193   7.307  18.665  0.00  0.00    +0.000 N 
ATOM     29  C   UNL     1       7.842   6.070  18.182  0.00  0.00    +0.000 A 
ATOM     30  N   UNL     1       7.442   5.806  16.897  0.00  0.00    +0.000 NA
ATOM     31  N   UNL     1       7.216   4.502  16.825  0.00  0.00    +0.000 NA
ATOM     32  N   UNL     1       7.468   4.054  18.057  0.00  0.00    +0.000 N 
ATOM     33  N   UNL     1       7.906   4.969  18.941  0.00  0.00    +0.000 NA
ATOM     34  H   UNL     1       8.567   7.295  19.598  0.00  0.00    +0.000 HD
ATOM     35  H   UNL     1       7.328   3.078  18.303  0.00  0.00    +0.000 HD
ENDBRANCH  23  26
ENDBRANCH  19  20
ENDBRANCH   9  19
TORSDOF 5
ENDMDL
MODEL 9
REMARK VINA RESULT:      -7.5      1.692      4.561
REMARK  Name = 
REMARK  10 active torsions:
REMARK  status: ('A' for Active; 'I' for Inactive)
REMARK    1  A    between atoms: C_1  and  C_2
REMARK    2  A    between atoms: C_2  and  C_3
REMARK    3  A    between atoms: C_2  and  N_4
REMARK    4  A    between atoms: C_9  and  C_10
REMARK    5  A    between atoms: C_10  and  C_11
REMARK    6  A    between atoms: C_10  and  C_12
REMARK    7  A    between atoms: C_10  and  C_13
REMARK    8  A    between atoms: N_16  and  C_17
REMARK    9  A    between atoms: C_17  and  C_18
REMARK   10  A    between atoms: C_21  and  C_22
REMARK                            x       y       z     vdW  Elec       q    Type
REMARK                         _______ _______ _______ _____ _____    ______ ____
ROOT
ATOM      1  N   UNL     1       1.958  14.433  19.240  0.00  0.00    +0.000 N 
ATOM      2  C   UNL     1       0.756  14.943  19.855  0.00  0.00    +0.000 C 
ATOM      3  C   UNL     1      -0.067  13.665  20.149  0.00  0.00    +0.000 C 
ATOM      4  C   UNL     1      -1.556  14.011  19.953  0.00  0.00    +0.000 C 
ATOM      5  C   UNL     1      -2.162  14.788  21.131  0.00  0.00    +0.000 C 
ATOM      6  C   UNL     1      -1.922  14.161  22.522  0.00  0.00    +0.000 C 
ATOM      7  C   UNL     1      -0.403  13.957  22.694  0.00  0.00    +0.000 C 
ATOM      8  C   UNL     1       0.272  13.175  21.573  0.00  0.00    +0.000 C 
ATOM      9  N   UNL     1       0.499  12.722  19.155  0.00  0.00    +0.000 N 
ATOM     10  C   UNL     1       1.760  13.156  18.725  0.00  0.00    +0.000 C 
ATOM     11  O   UNL     1       2.551  12.526  18.038  0.00  0.00    +0.000 OA
ENDROOT
BRANCH   6  12
ATOM     12  C   UNL     1      -2.857  12.947  22.914  0.00  0.00    +0.000 C 
ATOM     13  C   UNL     1      -2.139  11.614  23.131  0.00  0.00    +0.000 C 
ATOM     14  C   UNL     1      -3.636  13.256  24.213  0.00  0.00    +0.000 C 
ATOM     15  C   UNL     1      -3.900  12.704  21.800  0.00  0.00    +0.000 C 
ENDBRANCH   6  12
BRANCH   1  17
ATOM     16  C   UNL     1       3.083  16.629  19.332  0.00  0.00    +0.000 C 
ATOM     17  C   UNL     1       3.241  15.112  19.305  0.00  0.00    +0.000 C 
ATOM     18  C   UNL     1       4.027  14.616  20.521  0.00  0.00    +0.000 C 
ENDBRANCH   1  17
BRANCH   9  19
ATOM     19  C   UNL     1      -0.034  11.406  18.800  0.00  0.00    +0.000 C 
BRANCH  19  20
ATOM     20  C   UNL     1       0.893  10.199  18.887  0.00  0.00    +0.000 A 
ATOM     21  C   UNL     1       0.991   9.459  20.065  0.00  0.00    +0.000 A 
ATOM     22  C   UNL     1       1.641   8.221  20.102  0.00  0.00    +0.000 A 
ATOM     23  C   UNL     1       2.200   7.659  18.948  0.00  0.00    +0.000 A 
ATOM     24  C   UNL     1       2.185   8.423  17.776  0.00  0.00    +0.000 A 
ATOM     25  C   UNL     1       1.544   9.683  17.752  0.00  0.00    +0.000 A 
BRANCH  23  26
ATOM     26  C   UNL     1       2.654   6.230  19.053  0.00  0.00    +0.000 C 
ATOM     27  O   UNL     1       3.383   5.929  19.998  0.00  0.00    +0.000 OA
ATOM     28  N   UNL     1       2.219   5.337  18.103  0.00  0.00    +0.000 N 
ATOM     29  C   UNL     1       2.412   3.982  18.217  0.00  0.00    +0.000 A 
ATOM     30  N   UNL     1       2.864   3.338  19.341  0.00  0.00    +0.000 NA
ATOM     31  N   UNL     1       2.892   2.043  19.057  0.00  0.00    +0.000 NA
ATOM     32  N   UNL     1       2.479   1.974  17.790  0.00  0.00    +0.000 N 
ATOM     33  N   UNL     1       2.120   3.139  17.219  0.00  0.00    +0.000 NA
ATOM     34  H   UNL     1       1.777   5.620  17.246  0.00  0.00    +0.000 HD
ATOM     35  H   UNL     1       2.448   1.088  17.292  0.00  0.00    +0.000 HD
ENDBRANCH  23  26
ENDBRANCH  19  20
ENDBRANCH   9  19
TORSDOF 5
ENDMDL
