MODEL 1
REMARK VINA RESULT:      -7.8      0.000      0.000
REMARK  Name = 
REMARK  4 active torsions:
REMARK  status: ('A' for Active; 'I' for Inactive)
REMARK    1  A    between atoms: C_1  and  O_2
REMARK    2  A    between atoms: O_2  and  C_3
REMARK    3  A    between atoms: C_17  and  O_18
REMARK    4  A    between atoms: O_18  and  C_19
REMARK                            x       y       z     vdW  Elec       q    Type
REMARK                         _______ _______ _______ _____ _____    ______ ____
ROOT
ATOM      1  C   UNL     1      -0.248  10.963  21.574  0.00  0.00    +0.000 A 
ATOM      2  C   UNL     1       0.147   9.936  22.434  0.00  0.00    +0.000 A 
ATOM      3  C   UNL     1       0.819   8.819  21.938  0.00  0.00    +0.000 A 
ATOM      4  C   UNL     1       1.097   8.721  20.574  0.00  0.00    +0.000 A 
ATOM      5  C   UNL     1       0.688   9.746  19.691  0.00  0.00    +0.000 A 
ATOM      6  C   UNL     1      -0.005  10.851  20.201  0.00  0.00    +0.000 A 
ATOM      7  C   UNL     1       0.927   9.596  18.192  0.00  0.00    +0.000 C 
ATOM      8  C   UNL     1       2.209   8.803  17.835  0.00  0.00    +0.000 C 
ATOM      9  C   UNL     1       2.356   7.607  18.715  0.00  0.00    +0.000 A 
ATOM     10  C   UNL     1       1.833   7.609  19.995  0.00  0.00    +0.000 A 
ATOM     11  N   UNL     1       2.130   6.407  20.571  0.00  0.00    +0.000 N 
ATOM     12  C   UNL     1       2.849   5.627  19.693  0.00  0.00    +0.000 A 
ATOM     13  C   UNL     1       3.364   4.339  19.858  0.00  0.00    +0.000 A 
ATOM     14  C   UNL     1       4.065   3.777  18.784  0.00  0.00    +0.000 A 
ATOM     15  C   UNL     1       4.244   4.477  17.589  0.00  0.00    +0.000 A 
ATOM     16  C   UNL     1       3.719   5.771  17.450  0.00  0.00    +0.000 A 
ATOM     17  C   UNL     1       3.006   6.359  18.513  0.00  0.00    +0.000 A 
ATOM     18  H   UNL     1       1.863   6.120  21.500  0.00  0.00    +0.000 HD
ENDROOT
BRANCH   1  20
ATOM     19  C   UNL     1      -1.792  11.922  23.075  0.00  0.00    +0.000 C 
ATOM     20  O   UNL     1      -0.910  12.095  21.971  0.00  0.00    +0.000 OA
ENDBRANCH   1  20
BRANCH  15  21
ATOM     21  O   UNL     1       4.909   4.013  16.486  0.00  0.00    +0.000 OA
ATOM     22  C   UNL     1       5.825   4.908  15.869  0.00  0.00    +0.000 C 
ENDBRANCH  15  21
TORSDOF 2
ENDMDL
MODEL 2
REMARK VINA RESULT:      -7.8      1.347      7.659
REMARK  Name = 
REMARK  4 active torsions:
REMARK  status: ('A' for Active; 'I' for Inactive)
REMARK    1  A    between atoms: C_1  and  O_2
REMARK    2  A    between atoms: O_2  and  C_3
REMARK    3  A    between atoms: C_17  and  O_18
REMARK    4  A    between atoms: O_18  and  C_19
REMARK                            x       y       z     vdW  Elec       q    Type
REMARK                         _______ _______ _______ _____ _____    ______ ____
ROOT
ATOM      1  C   UNL     1       5.266   4.543  16.249  0.00  0.00    +0.000 A 
ATOM      2  C   UNL     1       5.213   5.901  15.925  0.00  0.00    +0.000 A 
ATOM      3  C   UNL     1       4.400   6.769  16.653  0.00  0.00    +0.000 A 
ATOM      4  C   UNL     1       3.631   6.282  17.710  0.00  0.00    +0.000 A 
ATOM      5  C   UNL     1       3.664   4.908  18.037  0.00  0.00    +0.000 A 
ATOM      6  C   UNL     1       4.468   4.044  17.283  0.00  0.00    +0.000 A 
ATOM      7  C   UNL     1       2.763   4.370  19.145  0.00  0.00    +0.000 C 
ATOM      8  C   UNL     1       2.500   5.380  20.290  0.00  0.00    +0.000 C 
ATOM      9  C   UNL     1       2.243   6.745  19.745  0.00  0.00    +0.000 A 
ATOM     10  C   UNL     1       2.799   7.137  18.541  0.00  0.00    +0.000 A 
ATOM     11  N   UNL     1       2.414   8.425  18.301  0.00  0.00    +0.000 N 
ATOM     12  C   UNL     1       1.629   8.885  19.335  0.00  0.00    +0.000 A 
ATOM     13  C   UNL     1       1.028  10.133  19.514  0.00  0.00    +0.000 A 
ATOM     14  C   UNL     1       0.272  10.329  20.676  0.00  0.00    +0.000 A 
ATOM     15  C   UNL     1       0.124   9.316  21.624  0.00  0.00    +0.000 A 
ATOM     16  C   UNL     1       0.741   8.072  21.423  0.00  0.00    +0.000 A 
ATOM     17  C   UNL     1       1.504   7.845  20.260  0.00  0.00    +0.000 A 
ATOM     18  H   UNL     1       2.660   8.968  17.488  0.00  0.00    +0.000 HD
ENDROOT
BRANCH   1  20
ATOM     19  C   UNL     1       6.372   3.959  14.251  0.00  0.00    +0.000 C 
ATOM     20  O   UNL     1       6.035   3.619  15.591  0.00  0.00    +0.000 OA
ENDBRANCH   1  20
BRANCH  15  21
ATOM     21  O   UNL     1      -0.594   9.411  22.786  0.00  0.00    +0.000 OA
ATOM     22  C   UNL     1      -1.113  10.693  23.114  0.00  0.00    +0.000 C 
ENDBRANCH  15  21
TORSDOF 2
ENDMDL
MODEL 3
REMARK VINA RESULT:      -7.6      1.004      7.177
REMARK  Name = 
REMARK  4 active torsions:
REMARK  status: ('A' for Active; 'I' for Inactive)
REMARK    1  A    between atoms: C_1  and  O_2
REMARK    2  A    between atoms: O_2  and  C_3
REMARK    3  A    between atoms: C_17  and  O_18
REMARK    4  A    between atoms: O_18  and  C_19
REMARK                            x       y       z     vdW  Elec       q    Type
REMARK                         _______ _______ _______ _____ _____    ______ ____
ROOT
ATOM      1  C   UNL     1       4.027   4.832  18.053  0.00  0.00    +0.000 A 
ATOM      2  C   UNL     1       3.593   4.548  19.350  0.00  0.00    +0.000 A 
ATOM      3  C   UNL     1       2.868   5.494  20.075  0.00  0.00    +0.000 A 
ATOM      4  C   UNL     1       2.578   6.735  19.506  0.00  0.00    +0.000 A 
ATOM      5  C   UNL     1       3.026   7.040  18.201  0.00  0.00    +0.000 A 
ATOM      6  C   UNL     1       3.771   6.088  17.494  0.00  0.00    +0.000 A 
ATOM      7  C   UNL     1       2.769   8.425  17.616  0.00  0.00    +0.000 C 
ATOM      8  C   UNL     1       1.451   9.079  18.099  0.00  0.00    +0.000 C 
ATOM      9  C   UNL     1       1.257   8.864  19.563  0.00  0.00    +0.000 A 
ATOM     10  C   UNL     1       1.788   7.749  20.185  0.00  0.00    +0.000 A 
ATOM     11  N   UNL     1       1.443   7.802  21.505  0.00  0.00    +0.000 N 
ATOM     12  C   UNL     1       0.684   8.924  21.751  0.00  0.00    +0.000 A 
ATOM     13  C   UNL     1       0.113   9.373  22.945  0.00  0.00    +0.000 A 
ATOM     14  C   UNL     1      -0.619  10.566  22.907  0.00  0.00    +0.000 A 
ATOM     15  C   UNL     1      -0.775  11.283  21.719  0.00  0.00    +0.000 A 
ATOM     16  C   UNL     1      -0.194  10.809  20.533  0.00  0.00    +0.000 A 
ATOM     17  C   UNL     1       0.552   9.614  20.543  0.00  0.00    +0.000 A 
ATOM     18  H   UNL     1       1.703   7.126  22.206  0.00  0.00    +0.000 HD
ENDROOT
BRANCH   1  20
ATOM     19  C   UNL     1       5.240   4.521  16.056  0.00  0.00    +0.000 C 
ATOM     20  O   UNL     1       4.742   3.965  17.268  0.00  0.00    +0.000 OA
ENDBRANCH   1  20
BRANCH  15  21
ATOM     21  O   UNL     1      -1.468  12.456  21.582  0.00  0.00    +0.000 OA
ATOM     22  C   UNL     1      -2.155  12.652  20.353  0.00  0.00    +0.000 C 
ENDBRANCH  15  21
TORSDOF 2
ENDMDL
MODEL 4
REMARK VINA RESULT:      -7.5      1.276      7.086
REMARK  Name = 
REMARK  4 active torsions:
REMARK  status: ('A' for Active; 'I' for Inactive)
REMARK    1  A    between atoms: C_1  and  O_2
REMARK    2  A    between atoms: O_2  and  C_3
REMARK    3  A    between atoms: C_17  and  O_18
REMARK    4  A    between atoms: O_18  and  C_19
REMARK                            x       y       z     vdW  Elec       q    Type
REMARK                         _______ _______ _______ _____ _____    ______ ____
ROOT
ATOM      1  C   UNL     1       3.607   4.038  18.833  0.00  0.00    +0.000 A 
ATOM      2  C   UNL     1       2.968   4.045  20.075  0.00  0.00    +0.000 A 
ATOM      3  C   UNL     1       2.363   5.207  20.552  0.00  0.00    +0.000 A 
ATOM      4  C   UNL     1       2.399   6.375  19.789  0.00  0.00    +0.000 A 
ATOM      5  C   UNL     1       3.056   6.385  18.538  0.00  0.00    +0.000 A 
ATOM      6  C   UNL     1       3.678   5.216  18.082  0.00  0.00    +0.000 A 
ATOM      7  C   UNL     1       3.156   7.685  17.745  0.00  0.00    +0.000 C 
ATOM      8  C   UNL     1       1.946   8.633  17.934  0.00  0.00    +0.000 C 
ATOM      9  C   UNL     1       1.534   8.689  19.367  0.00  0.00    +0.000 A 
ATOM     10  C   UNL     1       1.750   7.608  20.202  0.00  0.00    +0.000 A 
ATOM     11  N   UNL     1       1.262   7.928  21.437  0.00  0.00    +0.000 N 
ATOM     12  C   UNL     1       0.718   9.194  21.417  0.00  0.00    +0.000 A 
ATOM     13  C   UNL     1       0.105   9.919  22.441  0.00  0.00    +0.000 A 
ATOM     14  C   UNL     1      -0.363  11.203  22.137  0.00  0.00    +0.000 A 
ATOM     15  C   UNL     1      -0.225  11.741  20.857  0.00  0.00    +0.000 A 
ATOM     16  C   UNL     1       0.391  10.990  19.844  0.00  0.00    +0.000 A 
ATOM     17  C   UNL     1       0.876   9.697  20.123  0.00  0.00    +0.000 A 
ATOM     18  H   UNL     1       1.293   7.336  22.251  0.00  0.00    +0.000 HD
ENDROOT
BRANCH   1  20
ATOM     19  C   UNL     1       3.399   1.795  18.141  0.00  0.00    +0.000 C 
ATOM     20  O   UNL     1       4.225   2.945  18.285  0.00  0.00    +0.000 OA
ENDBRANCH   1  20
BRANCH  15  21
ATOM     21  O   UNL     1      -0.647  12.983  20.464  0.00  0.00    +0.000 OA
ATOM     22  C   UNL     1      -0.770  13.204  19.065  0.00  0.00    +0.000 C 
ENDBRANCH  15  21
TORSDOF 2
ENDMDL
MODEL 5
REMARK VINA RESULT:      -7.4      1.875      2.612
REMARK  Name = 
REMARK  4 active torsions:
REMARK  status: ('A' for Active; 'I' for Inactive)
REMARK    1  A    between atoms: C_1  and  O_2
REMARK    2  A    between atoms: O_2  and  C_3
REMARK    3  A    between atoms: C_17  and  O_18
REMARK    4  A    between atoms: O_18  and  C_19
REMARK                            x       y       z     vdW  Elec       q    Type
REMARK                         _______ _______ _______ _____ _____    ______ ____
ROOT
ATOM      1  C   UNL     1       0.916  11.225  19.526  0.00  0.00    +0.000 A 
ATOM      2  C   UNL     1       0.651  10.609  20.751  0.00  0.00    +0.000 A 
ATOM      3  C   UNL     1       0.955   9.262  20.944  0.00  0.00    +0.000 A 
ATOM      4  C   UNL     1       1.524   8.520  19.909  0.00  0.00    +0.000 A 
ATOM      5  C   UNL     1       1.783   9.128  18.659  0.00  0.00    +0.000 A 
ATOM      6  C   UNL     1       1.452  10.476  18.473  0.00  0.00    +0.000 A 
ATOM      7  C   UNL     1       2.334   8.292  17.509  0.00  0.00    +0.000 C 
ATOM      8  C   UNL     1       3.265   7.138  17.958  0.00  0.00    +0.000 C 
ATOM      9  C   UNL     1       2.710   6.444  19.158  0.00  0.00    +0.000 A 
ATOM     10  C   UNL     1       1.909   7.126  20.055  0.00  0.00    +0.000 A 
ATOM     11  N   UNL     1       1.565   6.259  21.052  0.00  0.00    +0.000 N 
ATOM     12  C   UNL     1       2.139   5.028  20.827  0.00  0.00    +0.000 A 
ATOM     13  C   UNL     1       2.065   3.855  21.584  0.00  0.00    +0.000 A 
ATOM     14  C   UNL     1       2.757   2.733  21.113  0.00  0.00    +0.000 A 
ATOM     15  C   UNL     1       3.496   2.782  19.929  0.00  0.00    +0.000 A 
ATOM     16  C   UNL     1       3.558   3.972  19.189  0.00  0.00    +0.000 A 
ATOM     17  C   UNL     1       2.867   5.116  19.638  0.00  0.00    +0.000 A 
ATOM     18  H   UNL     1       0.974   6.476  21.839  0.00  0.00    +0.000 HD
ENDROOT
BRANCH   1  20
ATOM     19  C   UNL     1       1.703  13.238  18.585  0.00  0.00    +0.000 C 
ATOM     20  O   UNL     1       0.653  12.541  19.246  0.00  0.00    +0.000 OA
ENDBRANCH   1  20
BRANCH  15  21
ATOM     21  O   UNL     1       4.202   1.741  19.388  0.00  0.00    +0.000 OA
ATOM     22  C   UNL     1       3.786   1.284  18.108  0.00  0.00    +0.000 C 
ENDBRANCH  15  21
TORSDOF 2
ENDMDL
MODEL 6
REMARK VINA RESULT:      -7.3      1.449      1.804
REMARK  Name = 
REMARK  4 active torsions:
REMARK  status: ('A' for Active; 'I' for Inactive)
REMARK    1  A    between atoms: C_1  and  O_2
REMARK    2  A    between atoms: O_2  and  C_3
REMARK    3  A    between atoms: C_17  and  O_18
REMARK    4  A    between atoms: O_18  and  C_19
REMARK                            x       y       z     vdW  Elec       q    Type
REMARK                         _______ _______ _______ _____ _____    ______ ____
ROOT
ATOM      1  C   UNL     1       0.337  11.810  20.506  0.00  0.00    +0.000 A 
ATOM      2  C   UNL     1       0.298  10.984  21.631  0.00  0.00    +0.000 A 
ATOM      3  C   UNL     1       0.696   9.650  21.542  0.00  0.00    +0.000 A 
ATOM      4  C   UNL     1       1.132   9.133  20.321  0.00  0.00    +0.000 A 
ATOM      5  C   UNL     1       1.160   9.955  19.172  0.00  0.00    +0.000 A 
ATOM      6  C   UNL     1       0.737  11.286  19.272  0.00  0.00    +0.000 A 
ATOM      7  C   UNL     1       1.566   9.363  17.826  0.00  0.00    +0.000 C 
ATOM      8  C   UNL     1       2.613   8.225  17.927  0.00  0.00    +0.000 C 
ATOM      9  C   UNL     1       2.288   7.304  19.056  0.00  0.00    +0.000 A 
ATOM     10  C   UNL     1       1.605   7.768  20.165  0.00  0.00    +0.000 A 
ATOM     11  N   UNL     1       1.465   6.725  21.037  0.00  0.00    +0.000 N 
ATOM     12  C   UNL     1       2.058   5.594  20.520  0.00  0.00    +0.000 A 
ATOM     13  C   UNL     1       2.162   4.312  21.065  0.00  0.00    +0.000 A 
ATOM     14  C   UNL     1       2.827   3.338  20.311  0.00  0.00    +0.000 A 
ATOM     15  C   UNL     1       3.368   3.635  19.058  0.00  0.00    +0.000 A 
ATOM     16  C   UNL     1       3.253   4.932  18.535  0.00  0.00    +0.000 A 
ATOM     17  C   UNL     1       2.585   5.931  19.271  0.00  0.00    +0.000 A 
ATOM     18  H   UNL     1       0.995   6.765  21.928  0.00  0.00    +0.000 HD
ENDROOT
BRANCH   1  20
ATOM     19  C   UNL     1       0.458  13.898  21.594  0.00  0.00    +0.000 C 
ATOM     20  O   UNL     1      -0.033  13.130  20.500  0.00  0.00    +0.000 OA
ENDBRANCH   1  20
BRANCH  15  21
ATOM     21  O   UNL     1       4.032   2.754  18.248  0.00  0.00    +0.000 OA
ATOM     22  C   UNL     1       3.732   1.375  18.423  0.00  0.00    +0.000 C 
ENDBRANCH  15  21
TORSDOF 2
ENDMDL
MODEL 7
REMARK VINA RESULT:      -7.3      1.688      6.993
REMARK  Name = 
REMARK  4 active torsions:
REMARK  status: ('A' for Active; 'I' for Inactive)
REMARK    1  A    between atoms: C_1  and  O_2
REMARK    2  A    between atoms: O_2  and  C_3
REMARK    3  A    between atoms: C_17  and  O_18
REMARK    4  A    between atoms: O_18  and  C_19
REMARK                            x       y       z     vdW  Elec       q    Type
REMARK                         _______ _______ _______ _____ _____    ______ ____
ROOT
ATOM      1  C   UNL     1       3.419   3.204  19.675  0.00  0.00    +0.000 A 
ATOM      2  C   UNL     1       2.612   3.511  20.773  0.00  0.00    +0.000 A 
ATOM      3  C   UNL     1       2.118   4.803  20.948  0.00  0.00    +0.000 A 
ATOM      4  C   UNL     1       2.434   5.801  20.025  0.00  0.00    +0.000 A 
ATOM      5  C   UNL     1       3.262   5.507  18.918  0.00  0.00    +0.000 A 
ATOM      6  C   UNL     1       3.768   4.210  18.768  0.00  0.00    +0.000 A 
ATOM      7  C   UNL     1       3.664   6.620  17.955  0.00  0.00    +0.000 C 
ATOM      8  C   UNL     1       2.589   7.721  17.781  0.00  0.00    +0.000 C 
ATOM      9  C   UNL     1       1.983   8.084  19.096  0.00  0.00    +0.000 A 
ATOM     10  C   UNL     1       1.917   7.156  20.118  0.00  0.00    +0.000 A 
ATOM     11  N   UNL     1       1.303   7.750  21.185  0.00  0.00    +0.000 N 
ATOM     12  C   UNL     1       0.957   9.045  20.870  0.00  0.00    +0.000 A 
ATOM     13  C   UNL     1       0.311  10.011  21.645  0.00  0.00    +0.000 A 
ATOM     14  C   UNL     1       0.083  11.264  21.064  0.00  0.00    +0.000 A 
ATOM     15  C   UNL     1       0.484  11.541  19.756  0.00  0.00    +0.000 A 
ATOM     16  C   UNL     1       1.128  10.552  18.997  0.00  0.00    +0.000 A 
ATOM     17  C   UNL     1       1.375   9.283  19.557  0.00  0.00    +0.000 A 
ATOM     18  H   UNL     1       1.129   7.315  22.077  0.00  0.00    +0.000 HD
ENDROOT
BRANCH   1  20
ATOM     19  C   UNL     1       3.551   1.383  18.185  0.00  0.00    +0.000 C 
ATOM     20  O   UNL     1       3.947   1.965  19.423  0.00  0.00    +0.000 OA
ENDBRANCH   1  20
BRANCH  15  21
ATOM     21  O   UNL     1       0.308  12.732  19.104  0.00  0.00    +0.000 OA
ATOM     22  C   UNL     1      -0.792  12.812  18.206  0.00  0.00    +0.000 C 
ENDBRANCH  15  21
TORSDOF 2
ENDMDL
MODEL 8
REMARK VINA RESULT:      -7.2      1.264      7.444
REMARK  Name = 
REMARK  4 active torsions:
REMARK  status: ('A' for Active; 'I' for Inactive)
REMARK    1  A    between atoms: C_1  and  O_2
REMARK    2  A    between atoms: O_2  and  C_3
REMARK    3  A    between atoms: C_17  and  O_18
REMARK    4  A    between atoms: O_18  and  C_19
REMARK                            x       y       z     vdW  Elec       q    Type
REMARK                         _______ _______ _______ _____ _____    ______ ____
ROOT
ATOM      1  C   UNL     1       3.480   5.797  18.387  0.00  0.00    +0.000 A 
ATOM      2  C   UNL     1       3.013   5.502  19.670  0.00  0.00    +0.000 A 
ATOM      3  C   UNL     1       2.230   6.423  20.366  0.00  0.00    +0.000 A 
ATOM      4  C   UNL     1       1.912   7.650  19.782  0.00  0.00    +0.000 A 
ATOM      5  C   UNL     1       2.392   7.966  18.491  0.00  0.00    +0.000 A 
ATOM      6  C   UNL     1       3.196   7.041  17.814  0.00  0.00    +0.000 A 
ATOM      7  C   UNL     1       2.104   9.339  17.890  0.00  0.00    +0.000 C 
ATOM      8  C   UNL     1       0.747   9.945  18.326  0.00  0.00    +0.000 C 
ATOM      9  C   UNL     1       0.512   9.728  19.784  0.00  0.00    +0.000 A 
ATOM     10  C   UNL     1       1.063   8.636  20.429  0.00  0.00    +0.000 A 
ATOM     11  N   UNL     1       0.672   8.680  21.736  0.00  0.00    +0.000 N 
ATOM     12  C   UNL     1      -0.137   9.774  21.952  0.00  0.00    +0.000 A 
ATOM     13  C   UNL     1      -0.764  10.205  23.123  0.00  0.00    +0.000 A 
ATOM     14  C   UNL     1      -1.538  11.369  23.055  0.00  0.00    +0.000 A 
ATOM     15  C   UNL     1      -1.681  12.076  21.859  0.00  0.00    +0.000 A 
ATOM     16  C   UNL     1      -1.043  11.620  20.695  0.00  0.00    +0.000 A 
ATOM     17  C   UNL     1      -0.254  10.454  20.736  0.00  0.00    +0.000 A 
ATOM     18  H   UNL     1       0.934   8.017  22.449  0.00  0.00    +0.000 HD
ENDROOT
BRANCH   1  20
ATOM     19  C   UNL     1       4.029   3.567  17.855  0.00  0.00    +0.000 C 
ATOM     20  O   UNL     1       4.253   4.955  17.631  0.00  0.00    +0.000 OA
ENDBRANCH   1  20
BRANCH  15  21
ATOM     21  O   UNL     1      -2.413  13.221  21.693  0.00  0.00    +0.000 OA
ATOM     22  C   UNL     1      -3.802  13.140  21.984  0.00  0.00    +0.000 C 
ENDBRANCH  15  21
TORSDOF 2
ENDMDL
MODEL 9
REMARK VINA RESULT:      -7.0      1.607      2.769
REMARK  Name = 
REMARK  4 active torsions:
REMARK  status: ('A' for Active; 'I' for Inactive)
REMARK    1  A    between atoms: C_1  and  O_2
REMARK    2  A    between atoms: O_2  and  C_3
REMARK    3  A    between atoms: C_17  and  O_18
REMARK    4  A    between atoms: O_18  and  C_19
REMARK                            x       y       z     vdW  Elec       q    Type
REMARK                         _______ _______ _______ _____ _____    ______ ____
ROOT
ATOM      1  C   UNL     1      -0.973  11.527  19.861  0.00  0.00    +0.000 A 
ATOM      2  C   UNL     1      -0.466  11.423  18.564  0.00  0.00    +0.000 A 
ATOM      3  C   UNL     1       0.473  10.441  18.249  0.00  0.00    +0.000 A 
ATOM      4  C   UNL     1       0.915   9.558  19.235  0.00  0.00    +0.000 A 
ATOM      5  C   UNL     1       0.422   9.664  20.555  0.00  0.00    +0.000 A 
ATOM      6  C   UNL     1      -0.504  10.668  20.861  0.00  0.00    +0.000 A 
ATOM      7  C   UNL     1       0.966   8.744  21.644  0.00  0.00    +0.000 C 
ATOM      8  C   UNL     1       1.376   7.339  21.136  0.00  0.00    +0.000 C 
ATOM      9  C   UNL     1       2.106   7.437  19.837  0.00  0.00    +0.000 A 
ATOM     10  C   UNL     1       1.855   8.482  18.968  0.00  0.00    +0.000 A 
ATOM     11  N   UNL     1       2.642   8.308  17.865  0.00  0.00    +0.000 N 
ATOM     12  C   UNL     1       3.391   7.160  17.995  0.00  0.00    +0.000 A 
ATOM     13  C   UNL     1       4.317   6.592  17.116  0.00  0.00    +0.000 A 
ATOM     14  C   UNL     1       4.941   5.403  17.510  0.00  0.00    +0.000 A 
ATOM     15  C   UNL     1       4.650   4.802  18.736  0.00  0.00    +0.000 A 
ATOM     16  C   UNL     1       3.714   5.390  19.599  0.00  0.00    +0.000 A 
ATOM     17  C   UNL     1       3.073   6.590  19.231  0.00  0.00    +0.000 A 
ATOM     18  H   UNL     1       2.680   8.925  17.069  0.00  0.00    +0.000 HD
ENDROOT
BRANCH   1  20
ATOM     19  C   UNL     1      -3.186  12.317  19.673  0.00  0.00    +0.000 C 
ATOM     20  O   UNL     1      -1.897  12.458  20.261  0.00  0.00    +0.000 OA
ENDBRANCH   1  20
BRANCH  15  21
ATOM     21  O   UNL     1       5.208   3.644  19.208  0.00  0.00    +0.000 OA
ATOM     22  C   UNL     1       4.313   2.669  19.726  0.00  0.00    +0.000 C 
ENDBRANCH  15  21
TORSDOF 2
ENDMDL
