MODEL 1
REMARK VINA RESULT:      -7.2      0.000      0.000
REMARK  Name = 
REMARK  5 active torsions:
REMARK  status: ('A' for Active; 'I' for Inactive)
REMARK    1  A    between atoms: S_2  and  O_4
REMARK    2  A    between atoms: S_2  and  C_5
REMARK    3  A    between atoms: C_5  and  S_6
REMARK    4  A    between atoms: S_6  and  C_9
REMARK    5  A    between atoms: C_12  and  C_13
REMARK                            x       y       z     vdW  Elec       q    Type
REMARK                         _______ _______ _______ _____ _____    ______ ____
ROOT
ATOM      1  C   UNL     1       3.440   5.887  18.543  0.00  0.00    +0.000 A 
ATOM      2  C   UNL     1       3.186   7.126  17.955  0.00  0.00    +0.000 A 
ATOM      3  C   UNL     1       2.384   8.051  18.624  0.00  0.00    +0.000 A 
ATOM      4  C   UNL     1       1.803   7.766  19.876  0.00  0.00    +0.000 A 
ATOM      5  C   UNL     1       2.065   6.499  20.431  0.00  0.00    +0.000 A 
ATOM      6  C   UNL     1       2.876   5.563  19.775  0.00  0.00    +0.000 A 
ENDROOT
BRANCH   4   7
ATOM      7  C   UNL     1       0.971   8.780  20.571  0.00  0.00    +0.000 A 
ATOM      8  C   UNL     1       0.396   9.858  19.869  0.00  0.00    +0.000 A 
ATOM      9  C   UNL     1      -0.314  10.867  20.525  0.00  0.00    +0.000 A 
ATOM     10  C   UNL     1      -0.489  10.811  21.902  0.00  0.00    +0.000 A 
ATOM     11  C   UNL     1       0.033   9.738  22.618  0.00  0.00    +0.000 A 
ATOM     12  C   UNL     1       0.755   8.736  21.961  0.00  0.00    +0.000 A 
ENDBRANCH   4   7
BRANCH   1  13
ATOM     13  S   UNL     1       4.492   4.712  17.706  0.00  0.00    +0.000 S 
ATOM     14  O   UNL     1       3.642   3.997  16.780  0.00  0.00    +0.000 OA
ATOM     15  O   UNL     1       5.216   4.024  18.757  0.00  0.00    +0.000 OA
BRANCH  13  16
ATOM     16  C   UNL     1       5.590   5.749  16.817  0.00  0.00    +0.000 C 
BRANCH  16  18
ATOM     17  O   UNL     1       7.895   4.518  17.308  0.00  0.00    +0.000 OA
ATOM     18  S   UNL     1       6.970   4.825  16.246  0.00  0.00    +0.000 S 
ATOM     19  O   UNL     1       7.400   5.276  14.943  0.00  0.00    +0.000 OA
BRANCH  18  20
ATOM     20  O   UNL     1       6.173   3.444  15.960  0.00  0.00    +0.000 OA
ATOM     21  H   UNL     1       6.656   2.957  15.255  0.00  0.00    +0.000 HD
ENDBRANCH  18  20
ENDBRANCH  16  18
ENDBRANCH  13  16
ENDBRANCH   1  13
TORSDOF 5
ENDMDL
MODEL 2
REMARK VINA RESULT:      -7.2      0.911      1.488
REMARK  Name = 
REMARK  5 active torsions:
REMARK  status: ('A' for Active; 'I' for Inactive)
REMARK    1  A    between atoms: S_2  and  O_4
REMARK    2  A    between atoms: S_2  and  C_5
REMARK    3  A    between atoms: C_5  and  S_6
REMARK    4  A    between atoms: S_6  and  C_9
REMARK    5  A    between atoms: C_12  and  C_13
REMARK                            x       y       z     vdW  Elec       q    Type
REMARK                         _______ _______ _______ _____ _____    ______ ____
ROOT
ATOM      1  C   UNL     1       3.397   6.496  18.201  0.00  0.00    +0.000 A 
ATOM      2  C   UNL     1       2.975   7.744  17.745  0.00  0.00    +0.000 A 
ATOM      3  C   UNL     1       2.188   8.546  18.571  0.00  0.00    +0.000 A 
ATOM      4  C   UNL     1       1.788   8.127  19.856  0.00  0.00    +0.000 A 
ATOM      5  C   UNL     1       2.216   6.853  20.277  0.00  0.00    +0.000 A 
ATOM      6  C   UNL     1       3.014   6.040  19.461  0.00  0.00    +0.000 A 
ENDROOT
BRANCH   4   7
ATOM      7  C   UNL     1       0.966   9.013  20.719  0.00  0.00    +0.000 A 
ATOM      8  C   UNL     1       0.872   8.796  22.107  0.00  0.00    +0.000 A 
ATOM      9  C   UNL     1       0.032   9.566  22.916  0.00  0.00    +0.000 A 
ATOM     10  C   UNL     1      -0.718  10.594  22.358  0.00  0.00    +0.000 A 
ATOM     11  C   UNL     1      -0.616  10.859  20.997  0.00  0.00    +0.000 A 
ATOM     12  C   UNL     1       0.215  10.077  20.186  0.00  0.00    +0.000 A 
ENDBRANCH   4   7
BRANCH   1  13
ATOM     13  S   UNL     1       4.432   5.479  17.161  0.00  0.00    +0.000 S 
ATOM     14  O   UNL     1       4.719   6.267  15.983  0.00  0.00    +0.000 OA
ATOM     15  O   UNL     1       3.752   4.201  17.070  0.00  0.00    +0.000 OA
BRANCH  13  16
ATOM     16  C   UNL     1       5.886   5.305  18.122  0.00  0.00    +0.000 C 
BRANCH  16  18
ATOM     17  O   UNL     1       8.251   4.133  17.798  0.00  0.00    +0.000 OA
ATOM     18  S   UNL     1       7.249   4.895  17.094  0.00  0.00    +0.000 S 
ATOM     19  O   UNL     1       7.580   5.982  16.203  0.00  0.00    +0.000 OA
BRANCH  18  20
ATOM     20  O   UNL     1       6.472   3.822  16.161  0.00  0.00    +0.000 OA
ATOM     21  H   UNL     1       6.008   4.319  15.451  0.00  0.00    +0.000 HD
ENDBRANCH  18  20
ENDBRANCH  16  18
ENDBRANCH  13  16
ENDBRANCH   1  13
TORSDOF 5
ENDMDL
MODEL 3
REMARK VINA RESULT:      -7.2      0.884      1.471
REMARK  Name = 
REMARK  5 active torsions:
REMARK  status: ('A' for Active; 'I' for Inactive)
REMARK    1  A    between atoms: S_2  and  O_4
REMARK    2  A    between atoms: S_2  and  C_5
REMARK    3  A    between atoms: C_5  and  S_6
REMARK    4  A    between atoms: S_6  and  C_9
REMARK    5  A    between atoms: C_12  and  C_13
REMARK                            x       y       z     vdW  Elec       q    Type
REMARK                         _______ _______ _______ _____ _____    ______ ____
ROOT
ATOM      1  C   UNL     1       3.421   6.427  18.200  0.00  0.00    +0.000 A 
ATOM      2  C   UNL     1       3.038   6.006  19.472  0.00  0.00    +0.000 A 
ATOM      3  C   UNL     1       2.225   6.828  20.252  0.00  0.00    +0.000 A 
ATOM      4  C   UNL     1       1.787   8.089  19.799  0.00  0.00    +0.000 A 
ATOM      5  C   UNL     1       2.208   8.491  18.517  0.00  0.00    +0.000 A 
ATOM      6  C   UNL     1       3.018   7.671  17.719  0.00  0.00    +0.000 A 
ENDROOT
BRANCH   4   7
ATOM      7  C   UNL     1       0.905   8.931  20.645  0.00  0.00    +0.000 A 
ATOM      8  C   UNL     1       0.284  10.085  20.128  0.00  0.00    +0.000 A 
ATOM      9  C   UNL     1      -0.475  10.936  20.937  0.00  0.00    +0.000 A 
ATOM     10  C   UNL     1      -0.654  10.639  22.282  0.00  0.00    +0.000 A 
ATOM     11  C   UNL     1      -0.086   9.486  22.813  0.00  0.00    +0.000 A 
ATOM     12  C   UNL     1       0.685   8.643  22.004  0.00  0.00    +0.000 A 
ENDBRANCH   4   7
BRANCH   1  13
ATOM     13  S   UNL     1       4.436   5.365  17.185  0.00  0.00    +0.000 S 
ATOM     14  O   UNL     1       4.731   6.115  15.985  0.00  0.00    +0.000 OA
ATOM     15  O   UNL     1       3.736   4.096  17.134  0.00  0.00    +0.000 OA
BRANCH  13  16
ATOM     16  C   UNL     1       5.891   5.196  18.147  0.00  0.00    +0.000 C 
BRANCH  16  18
ATOM     17  O   UNL     1       8.291   4.109  17.786  0.00  0.00    +0.000 OA
ATOM     18  S   UNL     1       7.271   4.871  17.109  0.00  0.00    +0.000 S 
ATOM     19  O   UNL     1       7.573   6.006  16.269  0.00  0.00    +0.000 OA
BRANCH  18  20
ATOM     20  O   UNL     1       6.529   3.818  16.126  0.00  0.00    +0.000 OA
ATOM     21  H   UNL     1       7.031   3.788  15.282  0.00  0.00    +0.000 HD
ENDBRANCH  18  20
ENDBRANCH  16  18
ENDBRANCH  13  16
ENDBRANCH   1  13
TORSDOF 5
ENDMDL
MODEL 4
REMARK VINA RESULT:      -7.1      1.067      2.051
REMARK  Name = 
REMARK  5 active torsions:
REMARK  status: ('A' for Active; 'I' for Inactive)
REMARK    1  A    between atoms: S_2  and  O_4
REMARK    2  A    between atoms: S_2  and  C_5
REMARK    3  A    between atoms: C_5  and  S_6
REMARK    4  A    between atoms: S_6  and  C_9
REMARK    5  A    between atoms: C_12  and  C_13
REMARK                            x       y       z     vdW  Elec       q    Type
REMARK                         _______ _______ _______ _____ _____    ______ ____
ROOT
ATOM      1  C   UNL     1       3.908   5.710  18.403  0.00  0.00    +0.000 A 
ATOM      2  C   UNL     1       3.136   5.701  19.564  0.00  0.00    +0.000 A 
ATOM      3  C   UNL     1       2.280   6.771  19.828  0.00  0.00    +0.000 A 
ATOM      4  C   UNL     1       2.180   7.876  18.959  0.00  0.00    +0.000 A 
ATOM      5  C   UNL     1       2.987   7.861  17.806  0.00  0.00    +0.000 A 
ATOM      6  C   UNL     1       3.846   6.789  17.524  0.00  0.00    +0.000 A 
ENDROOT
BRANCH   4   7
ATOM      7  C   UNL     1       1.244   8.990  19.258  0.00  0.00    +0.000 A 
ATOM      8  C   UNL     1       0.853   9.280  20.579  0.00  0.00    +0.000 A 
ATOM      9  C   UNL     1      -0.095  10.265  20.866  0.00  0.00    +0.000 A 
ATOM     10  C   UNL     1      -0.661  11.006  19.835  0.00  0.00    +0.000 A 
ATOM     11  C   UNL     1      -0.266  10.770  18.522  0.00  0.00    +0.000 A 
ATOM     12  C   UNL     1       0.674   9.773  18.237  0.00  0.00    +0.000 A 
ENDBRANCH   4   7
BRANCH   1  13
ATOM     13  S   UNL     1       4.981   4.329  18.045  0.00  0.00    +0.000 S 
ATOM     14  O   UNL     1       4.136   3.155  18.025  0.00  0.00    +0.000 OA
ATOM     15  O   UNL     1       6.089   4.449  18.973  0.00  0.00    +0.000 OA
BRANCH  13  16
ATOM     16  C   UNL     1       5.532   4.685  16.421  0.00  0.00    +0.000 C 
BRANCH  16  18
ATOM     17  O   UNL     1       8.099   4.244  16.960  0.00  0.00    +0.000 OA
ATOM     18  S   UNL     1       7.196   5.247  16.453  0.00  0.00    +0.000 S 
ATOM     19  O   UNL     1       7.273   6.635  16.845  0.00  0.00    +0.000 OA
BRANCH  18  20
ATOM     20  O   UNL     1       7.427   5.260  14.849  0.00  0.00    +0.000 OA
ATOM     21  H   UNL     1       8.068   5.976  14.642  0.00  0.00    +0.000 HD
ENDBRANCH  18  20
ENDBRANCH  16  18
ENDBRANCH  13  16
ENDBRANCH   1  13
TORSDOF 5
ENDMDL
MODEL 5
REMARK VINA RESULT:      -7.1      1.096      1.775
REMARK  Name = 
REMARK  5 active torsions:
REMARK  status: ('A' for Active; 'I' for Inactive)
REMARK    1  A    between atoms: S_2  and  O_4
REMARK    2  A    between atoms: S_2  and  C_5
REMARK    3  A    between atoms: C_5  and  S_6
REMARK    4  A    between atoms: S_6  and  C_9
REMARK    5  A    between atoms: C_12  and  C_13
REMARK                            x       y       z     vdW  Elec       q    Type
REMARK                         _______ _______ _______ _____ _____    ______ ____
ROOT
ATOM      1  C   UNL     1       3.855   5.654  18.627  0.00  0.00    +0.000 A 
ATOM      2  C   UNL     1       3.790   6.707  17.715  0.00  0.00    +0.000 A 
ATOM      3  C   UNL     1       2.935   7.780  17.965  0.00  0.00    +0.000 A 
ATOM      4  C   UNL     1       2.115   7.829  19.110  0.00  0.00    +0.000 A 
ATOM      5  C   UNL     1       2.191   6.741  20.000  0.00  0.00    +0.000 A 
ATOM      6  C   UNL     1       3.052   5.660  19.766  0.00  0.00    +0.000 A 
ENDROOT
BRANCH   4   7
ATOM      7  C   UNL     1       1.230   8.995  19.357  0.00  0.00    +0.000 A 
ATOM      8  C   UNL     1       0.821   9.337  20.661  0.00  0.00    +0.000 A 
ATOM      9  C   UNL     1      -0.082  10.377  20.899  0.00  0.00    +0.000 A 
ATOM     10  C   UNL     1      -0.582  11.119  19.836  0.00  0.00    +0.000 A 
ATOM     11  C   UNL     1      -0.166  10.832  18.541  0.00  0.00    +0.000 A 
ATOM     12  C   UNL     1       0.728   9.781  18.304  0.00  0.00    +0.000 A 
ENDBRANCH   4   7
BRANCH   1  13
ATOM     13  S   UNL     1       4.971   4.293  18.329  0.00  0.00    +0.000 S 
ATOM     14  O   UNL     1       4.156   3.099  18.313  0.00  0.00    +0.000 OA
ATOM     15  O   UNL     1       6.051   4.462  19.281  0.00  0.00    +0.000 OA
BRANCH  13  16
ATOM     16  C   UNL     1       5.555   4.628  16.711  0.00  0.00    +0.000 C 
BRANCH  16  18
ATOM     17  O   UNL     1       8.141   4.206  17.163  0.00  0.00    +0.000 OA
ATOM     18  S   UNL     1       7.204   5.229  16.772  0.00  0.00    +0.000 S 
ATOM     19  O   UNL     1       7.253   6.573  17.299  0.00  0.00    +0.000 OA
BRANCH  18  20
ATOM     20  O   UNL     1       7.405   5.406  15.174  0.00  0.00    +0.000 OA
ATOM     21  H   UNL     1       7.646   4.530  14.801  0.00  0.00    +0.000 HD
ENDBRANCH  18  20
ENDBRANCH  16  18
ENDBRANCH  13  16
ENDBRANCH   1  13
TORSDOF 5
ENDMDL
MODEL 6
REMARK VINA RESULT:      -7.0      0.487      1.179
REMARK  Name = 
REMARK  5 active torsions:
REMARK  status: ('A' for Active; 'I' for Inactive)
REMARK    1  A    between atoms: S_2  and  O_4
REMARK    2  A    between atoms: S_2  and  C_5
REMARK    3  A    between atoms: C_5  and  S_6
REMARK    4  A    between atoms: S_6  and  C_9
REMARK    5  A    between atoms: C_12  and  C_13
REMARK                            x       y       z     vdW  Elec       q    Type
REMARK                         _______ _______ _______ _____ _____    ______ ____
ROOT
ATOM      1  C   UNL     1       3.770   5.764  18.347  0.00  0.00    +0.000 A 
ATOM      2  C   UNL     1       3.517   6.997  17.747  0.00  0.00    +0.000 A 
ATOM      3  C   UNL     1       2.689   7.917  18.390  0.00  0.00    +0.000 A 
ATOM      4  C   UNL     1       2.082   7.634  19.629  0.00  0.00    +0.000 A 
ATOM      5  C   UNL     1       2.344   6.373  20.199  0.00  0.00    +0.000 A 
ATOM      6  C   UNL     1       3.180   5.442  19.568  0.00  0.00    +0.000 A 
ENDROOT
BRANCH   4   7
ATOM      7  C   UNL     1       1.222   8.643  20.298  0.00  0.00    +0.000 A 
ATOM      8  C   UNL     1       0.956   8.574  21.679  0.00  0.00    +0.000 A 
ATOM      9  C   UNL     1       0.077   9.463  22.304  0.00  0.00    +0.000 A 
ATOM     10  C   UNL     1      -0.540  10.464  21.564  0.00  0.00    +0.000 A 
ATOM     11  C   UNL     1      -0.266  10.583  20.205  0.00  0.00    +0.000 A 
ATOM     12  C   UNL     1       0.603   9.682  19.580  0.00  0.00    +0.000 A 
ENDBRANCH   4   7
BRANCH   1  13
ATOM     13  S   UNL     1       4.854   4.595  17.544  0.00  0.00    +0.000 S 
ATOM     14  O   UNL     1       3.996   3.619  16.910  0.00  0.00    +0.000 OA
ATOM     15  O   UNL     1       5.825   4.212  18.550  0.00  0.00    +0.000 OA
BRANCH  13  16
ATOM     16  C   UNL     1       5.633   5.578  16.320  0.00  0.00    +0.000 C 
BRANCH  16  18
ATOM     17  O   UNL     1       7.954   4.340  16.713  0.00  0.00    +0.000 OA
ATOM     18  S   UNL     1       7.039   4.745  15.675  0.00  0.00    +0.000 S 
ATOM     19  O   UNL     1       7.479   5.342  14.436  0.00  0.00    +0.000 OA
BRANCH  18  20
ATOM     20  O   UNL     1       6.272   3.389  15.228  0.00  0.00    +0.000 OA
ATOM     21  H   UNL     1       6.885   2.634  15.371  0.00  0.00    +0.000 HD
ENDBRANCH  18  20
ENDBRANCH  16  18
ENDBRANCH  13  16
ENDBRANCH   1  13
TORSDOF 5
ENDMDL
MODEL 7
REMARK VINA RESULT:      -7.0      1.088      1.735
REMARK  Name = 
REMARK  5 active torsions:
REMARK  status: ('A' for Active; 'I' for Inactive)
REMARK    1  A    between atoms: S_2  and  O_4
REMARK    2  A    between atoms: S_2  and  C_5
REMARK    3  A    between atoms: C_5  and  S_6
REMARK    4  A    between atoms: S_6  and  C_9
REMARK    5  A    between atoms: C_12  and  C_13
REMARK                            x       y       z     vdW  Elec       q    Type
REMARK                         _______ _______ _______ _____ _____    ______ ____
ROOT
ATOM      1  C   UNL     1       3.974   5.684  18.513  0.00  0.00    +0.000 A 
ATOM      2  C   UNL     1       3.210   5.684  19.679  0.00  0.00    +0.000 A 
ATOM      3  C   UNL     1       2.328   6.737  19.922  0.00  0.00    +0.000 A 
ATOM      4  C   UNL     1       2.193   7.817  19.028  0.00  0.00    +0.000 A 
ATOM      5  C   UNL     1       2.993   7.795  17.869  0.00  0.00    +0.000 A 
ATOM      6  C   UNL     1       3.877   6.739  17.608  0.00  0.00    +0.000 A 
ENDROOT
BRANCH   4   7
ATOM      7  C   UNL     1       1.230   8.912  19.306  0.00  0.00    +0.000 A 
ATOM      8  C   UNL     1       0.735   9.729  18.270  0.00  0.00    +0.000 A 
ATOM      9  C   UNL     1      -0.101  10.819  18.528  0.00  0.00    +0.000 A 
ATOM     10  C   UNL     1      -0.485  11.105  19.832  0.00  0.00    +0.000 A 
ATOM     11  C   UNL     1      -0.045  10.294  20.873  0.00  0.00    +0.000 A 
ATOM     12  C   UNL     1       0.803   9.211  20.612  0.00  0.00    +0.000 A 
ENDBRANCH   4   7
BRANCH   1  13
ATOM     13  S   UNL     1       5.081   4.323  18.182  0.00  0.00    +0.000 S 
ATOM     14  O   UNL     1       4.276   3.123  18.245  0.00  0.00    +0.000 OA
ATOM     15  O   UNL     1       6.215   4.523  19.063  0.00  0.00    +0.000 OA
BRANCH  13  16
ATOM     16  C   UNL     1       5.564   4.620  16.524  0.00  0.00    +0.000 C 
BRANCH  16  18
ATOM     17  O   UNL     1       7.293   6.409  17.465  0.00  0.00    +0.000 OA
ATOM     18  S   UNL     1       7.154   5.366  16.478  0.00  0.00    +0.000 S 
ATOM     19  O   UNL     1       7.627   5.508  15.122  0.00  0.00    +0.000 OA
BRANCH  18  20
ATOM     20  O   UNL     1       7.977   4.103  17.071  0.00  0.00    +0.000 OA
ATOM     21  H   UNL     1       8.125   3.467  16.336  0.00  0.00    +0.000 HD
ENDBRANCH  18  20
ENDBRANCH  16  18
ENDBRANCH  13  16
ENDBRANCH   1  13
TORSDOF 5
ENDMDL
MODEL 8
REMARK VINA RESULT:      -7.0      0.620      1.667
REMARK  Name = 
REMARK  5 active torsions:
REMARK  status: ('A' for Active; 'I' for Inactive)
REMARK    1  A    between atoms: S_2  and  O_4
REMARK    2  A    between atoms: S_2  and  C_5
REMARK    3  A    between atoms: C_5  and  S_6
REMARK    4  A    between atoms: S_6  and  C_9
REMARK    5  A    between atoms: C_12  and  C_13
REMARK                            x       y       z     vdW  Elec       q    Type
REMARK                         _______ _______ _______ _____ _____    ______ ____
ROOT
ATOM      1  C   UNL     1       3.518   6.281  18.299  0.00  0.00    +0.000 A 
ATOM      2  C   UNL     1       2.922   6.139  19.551  0.00  0.00    +0.000 A 
ATOM      3  C   UNL     1       2.094   7.151  20.037  0.00  0.00    +0.000 A 
ATOM      4  C   UNL     1       1.850   8.330  19.304  0.00  0.00    +0.000 A 
ATOM      5  C   UNL     1       2.483   8.449  18.052  0.00  0.00    +0.000 A 
ATOM      6  C   UNL     1       3.311   7.437  17.548  0.00  0.00    +0.000 A 
ENDROOT
BRANCH   4   7
ATOM      7  C   UNL     1       0.947   9.379  19.840  0.00  0.00    +0.000 A 
ATOM      8  C   UNL     1       0.779   9.559  21.227  0.00  0.00    +0.000 A 
ATOM      9  C   UNL     1      -0.135  10.481  21.743  0.00  0.00    +0.000 A 
ATOM     10  C   UNL     1      -0.889  11.269  20.882  0.00  0.00    +0.000 A 
ATOM     11  C   UNL     1      -0.717  11.143  19.507  0.00  0.00    +0.000 A 
ATOM     12  C   UNL     1       0.189  10.208  18.993  0.00  0.00    +0.000 A 
ENDBRANCH   4   7
BRANCH   1  13
ATOM     13  S   UNL     1       4.554   4.975  17.659  0.00  0.00    +0.000 S 
ATOM     14  O   UNL     1       3.696   4.142  16.846  0.00  0.00    +0.000 OA
ATOM     15  O   UNL     1       5.260   4.443  18.808  0.00  0.00    +0.000 OA
BRANCH  13  16
ATOM     16  C   UNL     1       5.673   5.846  16.631  0.00  0.00    +0.000 C 
BRANCH  16  18
ATOM     17  O   UNL     1       7.896   4.541  17.287  0.00  0.00    +0.000 OA
ATOM     18  S   UNL     1       7.015   4.808  16.177  0.00  0.00    +0.000 S 
ATOM     19  O   UNL     1       7.501   5.128  14.855  0.00  0.00    +0.000 OA
BRANCH  18  20
ATOM     20  O   UNL     1       6.151   3.451  15.979  0.00  0.00    +0.000 OA
ATOM     21  H   UNL     1       5.897   3.123  16.870  0.00  0.00    +0.000 HD
ENDBRANCH  18  20
ENDBRANCH  16  18
ENDBRANCH  13  16
ENDBRANCH   1  13
TORSDOF 5
ENDMDL
MODEL 9
REMARK VINA RESULT:      -7.0      1.067      1.804
REMARK  Name = 
REMARK  5 active torsions:
REMARK  status: ('A' for Active; 'I' for Inactive)
REMARK    1  A    between atoms: S_2  and  O_4
REMARK    2  A    between atoms: S_2  and  C_5
REMARK    3  A    between atoms: C_5  and  S_6
REMARK    4  A    between atoms: S_6  and  C_9
REMARK    5  A    between atoms: C_12  and  C_13
REMARK                            x       y       z     vdW  Elec       q    Type
REMARK                         _______ _______ _______ _____ _____    ______ ____
ROOT
ATOM      1  C   UNL     1       3.726   5.592  18.549  0.00  0.00    +0.000 A 
ATOM      2  C   UNL     1       3.017   5.644  19.748  0.00  0.00    +0.000 A 
ATOM      3  C   UNL     1       2.216   6.753  20.025  0.00  0.00    +0.000 A 
ATOM      4  C   UNL     1       2.112   7.838  19.131  0.00  0.00    +0.000 A 
ATOM      5  C   UNL     1       2.855   7.760  17.938  0.00  0.00    +0.000 A 
ATOM      6  C   UNL     1       3.657   6.648  17.644  0.00  0.00    +0.000 A 
ENDROOT
BRANCH   4   7
ATOM      7  C   UNL     1       1.234   8.993  19.445  0.00  0.00    +0.000 A 
ATOM      8  C   UNL     1       0.930   9.964  18.471  0.00  0.00    +0.000 A 
ATOM      9  C   UNL     1       0.181  11.103  18.777  0.00  0.00    +0.000 A 
ATOM     10  C   UNL     1      -0.307  11.288  20.065  0.00  0.00    +0.000 A 
ATOM     11  C   UNL     1      -0.057  10.327  21.039  0.00  0.00    +0.000 A 
ATOM     12  C   UNL     1       0.706   9.194  20.733  0.00  0.00    +0.000 A 
ENDBRANCH   4   7
BRANCH   1  13
ATOM     13  S   UNL     1       4.727   4.161  18.176  0.00  0.00    +0.000 S 
ATOM     14  O   UNL     1       3.806   3.105  17.821  0.00  0.00    +0.000 OA
ATOM     15  O   UNL     1       5.640   4.026  19.295  0.00  0.00    +0.000 OA
BRANCH  13  16
ATOM     16  C   UNL     1       5.611   4.675  16.753  0.00  0.00    +0.000 C 
BRANCH  16  18
ATOM     17  O   UNL     1       8.153   4.193  17.365  0.00  0.00    +0.000 OA
ATOM     18  S   UNL     1       7.202   5.265  17.206  0.00  0.00    +0.000 S 
ATOM     19  O   UNL     1       7.109   6.368  18.132  0.00  0.00    +0.000 OA
BRANCH  18  20
ATOM     20  O   UNL     1       7.565   5.952  15.784  0.00  0.00    +0.000 OA
ATOM     21  H   UNL     1       7.461   6.924  15.883  0.00  0.00    +0.000 HD
ENDBRANCH  18  20
ENDBRANCH  16  18
ENDBRANCH  13  16
ENDBRANCH   1  13
TORSDOF 5
ENDMDL
