MODEL 1
REMARK VINA RESULT:      -6.2      0.000      0.000
REMARK  Name = 
REMARK  7 active torsions:
REMARK  status: ('A' for Active; 'I' for Inactive)
REMARK    1  A    between atoms: C_1  and  C_2
REMARK    2  A    between atoms: C_2  and  O_3
REMARK    3  A    between atoms: O_3  and  C_4
REMARK    4  A    between atoms: C_9  and  C_10
REMARK    5  A    between atoms: C_11  and  C_12
REMARK    6  A    between atoms: N_14  and  C_15
REMARK    7  A    between atoms: N_14  and  C_16
REMARK                            x       y       z     vdW  Elec       q    Type
REMARK                         _______ _______ _______ _____ _____    ______ ____
ROOT
ATOM      1  C   UNL     1       6.757   4.936  14.864  0.00  0.00    +0.000 C 
ATOM      2  O   UNL     1       6.428   3.767  14.743  0.00  0.00    +0.000 OA
ATOM      3  N   UNL     1       6.253   5.866  15.707  0.00  0.00    +0.000 N 
ATOM      4  C   UNL     1       5.165   5.742  16.520  0.00  0.00    +0.000 A 
ATOM      5  N   UNL     1       4.693   6.803  17.126  0.00  0.00    +0.000 NA
ATOM      6  C   UNL     1       3.474   6.534  17.732  0.00  0.00    +0.000 A 
ATOM      7  C   UNL     1       2.753   7.764  18.160  0.00  0.00    +0.000 C 
ATOM      8  C   UNL     1       3.106   5.183  17.733  0.00  0.00    +0.000 A 
ATOM      9  S   UNL     1       4.324   4.317  16.803  0.00  0.00    +0.000 S 
ATOM     10  H   UNL     1       6.657   6.787  15.667  0.00  0.00    +0.000 HD
ENDROOT
BRANCH   8  11
ATOM     11  C   UNL     1       1.973   4.340  18.165  0.00  0.00    +0.000 C 
ATOM     12  O   UNL     1       1.147   3.965  17.326  0.00  0.00    +0.000 OA
ATOM     13  N   UNL     1       1.802   3.877  19.482  0.00  0.00    +0.000 N 
ATOM     14  C   UNL     1       2.644   4.133  20.627  0.00  0.00    +0.000 C 
ATOM     15  C   UNL     1       0.717   2.933  19.750  0.00  0.00    +0.000 C 
ENDBRANCH   8  11
BRANCH   1  16
ATOM     16  O   UNL     1       7.749   5.530  14.155  0.00  0.00    +0.000 OA
BRANCH  16  18
ATOM     17  C   UNL     1       8.262   6.207  11.931  0.00  0.00    +0.000 C 
ATOM     18  C   UNL     1       7.943   5.026  12.828  0.00  0.00    +0.000 C 
ENDBRANCH  16  18
ENDBRANCH   1  16
TORSDOF 3
ENDMDL
MODEL 2
REMARK VINA RESULT:      -6.0      1.350      1.535
REMARK  Name = 
REMARK  7 active torsions:
REMARK  status: ('A' for Active; 'I' for Inactive)
REMARK    1  A    between atoms: C_1  and  C_2
REMARK    2  A    between atoms: C_2  and  O_3
REMARK    3  A    between atoms: O_3  and  C_4
REMARK    4  A    between atoms: C_9  and  C_10
REMARK    5  A    between atoms: C_11  and  C_12
REMARK    6  A    between atoms: N_14  and  C_15
REMARK    7  A    between atoms: N_14  and  C_16
REMARK                            x       y       z     vdW  Elec       q    Type
REMARK                         _______ _______ _______ _____ _____    ______ ____
ROOT
ATOM      1  C   UNL     1       6.810   5.151  15.789  0.00  0.00    +0.000 C 
ATOM      2  O   UNL     1       6.852   4.034  16.279  0.00  0.00    +0.000 OA
ATOM      3  N   UNL     1       6.053   6.206  16.170  0.00  0.00    +0.000 N 
ATOM      4  C   UNL     1       5.062   6.217  17.107  0.00  0.00    +0.000 A 
ATOM      5  N   UNL     1       4.294   7.272  17.215  0.00  0.00    +0.000 NA
ATOM      6  C   UNL     1       3.220   7.027  18.059  0.00  0.00    +0.000 A 
ATOM      7  C   UNL     1       2.162   8.071  17.974  0.00  0.00    +0.000 C 
ATOM      8  C   UNL     1       3.281   5.808  18.746  0.00  0.00    +0.000 A 
ATOM      9  S   UNL     1       4.697   4.951  18.147  0.00  0.00    +0.000 S 
ATOM     10  H   UNL     1       6.157   7.057  15.644  0.00  0.00    +0.000 HD
ENDROOT
BRANCH   8  11
ATOM     11  C   UNL     1       2.463   5.023  19.691  0.00  0.00    +0.000 C 
ATOM     12  O   UNL     1       2.429   5.357  20.880  0.00  0.00    +0.000 OA
ATOM     13  N   UNL     1       1.657   3.934  19.309  0.00  0.00    +0.000 N 
ATOM     14  C   UNL     1       1.489   3.379  17.987  0.00  0.00    +0.000 C 
ATOM     15  C   UNL     1       0.786   3.329  20.316  0.00  0.00    +0.000 C 
ENDBRANCH   8  11
BRANCH   1  16
ATOM     16  O   UNL     1       7.568   5.557  14.740  0.00  0.00    +0.000 OA
BRANCH  16  18
ATOM     17  C   UNL     1       8.021   5.647  12.405  0.00  0.00    +0.000 C 
ATOM     18  C   UNL     1       7.329   4.867  13.507  0.00  0.00    +0.000 C 
ENDBRANCH  16  18
ENDBRANCH   1  16
TORSDOF 3
ENDMDL
MODEL 3
REMARK VINA RESULT:      -5.9      2.450      2.927
REMARK  Name = 
REMARK  7 active torsions:
REMARK  status: ('A' for Active; 'I' for Inactive)
REMARK    1  A    between atoms: C_1  and  C_2
REMARK    2  A    between atoms: C_2  and  O_3
REMARK    3  A    between atoms: O_3  and  C_4
REMARK    4  A    between atoms: C_9  and  C_10
REMARK    5  A    between atoms: C_11  and  C_12
REMARK    6  A    between atoms: N_14  and  C_15
REMARK    7  A    between atoms: N_14  and  C_16
REMARK                            x       y       z     vdW  Elec       q    Type
REMARK                         _______ _______ _______ _____ _____    ______ ____
ROOT
ATOM      1  C   UNL     1       6.084   3.961  13.719  0.00  0.00    +0.000 C 
ATOM      2  O   UNL     1       4.868   3.867  13.684  0.00  0.00    +0.000 OA
ATOM      3  N   UNL     1       6.883   4.108  14.802  0.00  0.00    +0.000 N 
ATOM      4  C   UNL     1       6.496   4.325  16.091  0.00  0.00    +0.000 A 
ATOM      5  N   UNL     1       7.397   4.643  16.987  0.00  0.00    +0.000 NA
ATOM      6  C   UNL     1       6.804   5.031  18.180  0.00  0.00    +0.000 A 
ATOM      7  C   UNL     1       7.755   5.692  19.114  0.00  0.00    +0.000 C 
ATOM      8  C   UNL     1       5.420   4.827  18.240  0.00  0.00    +0.000 A 
ATOM      9  S   UNL     1       4.916   4.253  16.654  0.00  0.00    +0.000 S 
ATOM     10  H   UNL     1       7.874   4.165  14.635  0.00  0.00    +0.000 HD
ENDROOT
BRANCH   8  11
ATOM     11  C   UNL     1       4.300   5.067  19.172  0.00  0.00    +0.000 C 
ATOM     12  O   UNL     1       3.830   6.206  19.268  0.00  0.00    +0.000 OA
ATOM     13  N   UNL     1       3.684   4.054  19.929  0.00  0.00    +0.000 N 
ATOM     14  C   UNL     1       4.014   2.649  19.963  0.00  0.00    +0.000 C 
ATOM     15  C   UNL     1       2.494   4.397  20.708  0.00  0.00    +0.000 C 
ENDBRANCH   8  11
BRANCH   1  16
ATOM     16  O   UNL     1       6.890   3.907  12.629  0.00  0.00    +0.000 OA
BRANCH  16  18
ATOM     17  C   UNL     1       7.445   2.060  11.234  0.00  0.00    +0.000 C 
ATOM     18  C   UNL     1       6.399   3.115  11.541  0.00  0.00    +0.000 C 
ENDBRANCH  16  18
ENDBRANCH   1  16
TORSDOF 3
ENDMDL
MODEL 4
REMARK VINA RESULT:      -5.9      1.949      2.279
REMARK  Name = 
REMARK  7 active torsions:
REMARK  status: ('A' for Active; 'I' for Inactive)
REMARK    1  A    between atoms: C_1  and  C_2
REMARK    2  A    between atoms: C_2  and  O_3
REMARK    3  A    between atoms: O_3  and  C_4
REMARK    4  A    between atoms: C_9  and  C_10
REMARK    5  A    between atoms: C_11  and  C_12
REMARK    6  A    between atoms: N_14  and  C_15
REMARK    7  A    between atoms: N_14  and  C_16
REMARK                            x       y       z     vdW  Elec       q    Type
REMARK                         _______ _______ _______ _____ _____    ______ ____
ROOT
ATOM      1  C   UNL     1       7.246   4.873  16.199  0.00  0.00    +0.000 C 
ATOM      2  O   UNL     1       7.890   4.326  17.080  0.00  0.00    +0.000 OA
ATOM      3  N   UNL     1       5.927   5.176  16.189  0.00  0.00    +0.000 N 
ATOM      4  C   UNL     1       4.988   4.813  17.110  0.00  0.00    +0.000 A 
ATOM      5  N   UNL     1       3.722   5.020  16.850  0.00  0.00    +0.000 NA
ATOM      6  C   UNL     1       2.909   4.403  17.790  0.00  0.00    +0.000 A 
ATOM      7  C   UNL     1       1.481   4.342  17.375  0.00  0.00    +0.000 C 
ATOM      8  C   UNL     1       3.589   3.866  18.890  0.00  0.00    +0.000 A 
ATOM      9  S   UNL     1       5.310   4.070  18.581  0.00  0.00    +0.000 S 
ATOM     10  H   UNL     1       5.569   5.636  15.369  0.00  0.00    +0.000 HD
ENDROOT
BRANCH   8  11
ATOM     11  C   UNL     1       3.290   3.099  20.116  0.00  0.00    +0.000 C 
ATOM     12  O   UNL     1       4.131   2.304  20.550  0.00  0.00    +0.000 OA
ATOM     13  N   UNL     1       2.113   3.261  20.870  0.00  0.00    +0.000 N 
ATOM     14  C   UNL     1       1.006   4.149  20.603  0.00  0.00    +0.000 C 
ATOM     15  C   UNL     1       2.000   2.545  22.141  0.00  0.00    +0.000 C 
ENDBRANCH   8  11
BRANCH   1  16
ATOM     16  O   UNL     1       7.769   5.315  15.028  0.00  0.00    +0.000 OA
BRANCH  16  18
ATOM     17  C   UNL     1       7.899   5.330  12.651  0.00  0.00    +0.000 C 
ATOM     18  C   UNL     1       7.073   4.897  13.847  0.00  0.00    +0.000 C 
ENDBRANCH  16  18
ENDBRANCH   1  16
TORSDOF 3
ENDMDL
MODEL 5
REMARK VINA RESULT:      -5.9      2.237      2.657
REMARK  Name = 
REMARK  7 active torsions:
REMARK  status: ('A' for Active; 'I' for Inactive)
REMARK    1  A    between atoms: C_1  and  C_2
REMARK    2  A    between atoms: C_2  and  O_3
REMARK    3  A    between atoms: O_3  and  C_4
REMARK    4  A    between atoms: C_9  and  C_10
REMARK    5  A    between atoms: C_11  and  C_12
REMARK    6  A    between atoms: N_14  and  C_15
REMARK    7  A    between atoms: N_14  and  C_16
REMARK                            x       y       z     vdW  Elec       q    Type
REMARK                         _______ _______ _______ _____ _____    ______ ____
ROOT
ATOM      1  C   UNL     1       6.286   4.195  13.727  0.00  0.00    +0.000 C 
ATOM      2  O   UNL     1       5.087   3.971  13.677  0.00  0.00    +0.000 OA
ATOM      3  N   UNL     1       7.064   4.357  14.822  0.00  0.00    +0.000 N 
ATOM      4  C   UNL     1       6.656   4.444  16.121  0.00  0.00    +0.000 A 
ATOM      5  N   UNL     1       7.517   4.799  17.041  0.00  0.00    +0.000 NA
ATOM      6  C   UNL     1       6.886   5.038  18.253  0.00  0.00    +0.000 A 
ATOM      7  C   UNL     1       7.759   5.737  19.236  0.00  0.00    +0.000 C 
ATOM      8  C   UNL     1       5.532   4.680  18.290  0.00  0.00    +0.000 A 
ATOM      9  S   UNL     1       5.094   4.161  16.666  0.00  0.00    +0.000 S 
ATOM     10  H   UNL     1       8.043   4.533  14.666  0.00  0.00    +0.000 HD
ENDROOT
BRANCH   8  11
ATOM     11  C   UNL     1       4.394   4.733  19.229  0.00  0.00    +0.000 C 
ATOM     12  O   UNL     1       3.851   5.819  19.457  0.00  0.00    +0.000 OA
ATOM     13  N   UNL     1       3.838   3.597  19.846  0.00  0.00    +0.000 N 
ATOM     14  C   UNL     1       4.257   2.222  19.712  0.00  0.00    +0.000 C 
ATOM     15  C   UNL     1       2.623   3.767  20.644  0.00  0.00    +0.000 C 
ENDBRANCH   8  11
BRANCH   1  16
ATOM     16  O   UNL     1       7.092   4.303  12.641  0.00  0.00    +0.000 OA
BRANCH  16  18
ATOM     17  C   UNL     1       7.939   6.238  11.542  0.00  0.00    +0.000 C 
ATOM     18  C   UNL     1       8.110   5.308  12.729  0.00  0.00    +0.000 C 
ENDBRANCH  16  18
ENDBRANCH   1  16
TORSDOF 3
ENDMDL
MODEL 6
REMARK VINA RESULT:      -5.8      3.086      7.091
REMARK  Name = 
REMARK  7 active torsions:
REMARK  status: ('A' for Active; 'I' for Inactive)
REMARK    1  A    between atoms: C_1  and  C_2
REMARK    2  A    between atoms: C_2  and  O_3
REMARK    3  A    between atoms: O_3  and  C_4
REMARK    4  A    between atoms: C_9  and  C_10
REMARK    5  A    between atoms: C_11  and  C_12
REMARK    6  A    between atoms: N_14  and  C_15
REMARK    7  A    between atoms: N_14  and  C_16
REMARK                            x       y       z     vdW  Elec       q    Type
REMARK                         _______ _______ _______ _____ _____    ______ ____
ROOT
ATOM      1  C   UNL     1       1.695   7.426  20.445  0.00  0.00    +0.000 C 
ATOM      2  O   UNL     1       2.021   8.207  19.565  0.00  0.00    +0.000 OA
ATOM      3  N   UNL     1       2.152   6.171  20.664  0.00  0.00    +0.000 N 
ATOM      4  C   UNL     1       2.984   5.443  19.865  0.00  0.00    +0.000 A 
ATOM      5  N   UNL     1       3.172   4.173  20.123  0.00  0.00    +0.000 NA
ATOM      6  C   UNL     1       3.869   3.550  19.097  0.00  0.00    +0.000 A 
ATOM      7  C   UNL     1       3.836   2.065  19.190  0.00  0.00    +0.000 C 
ATOM      8  C   UNL     1       4.375   4.418  18.122  0.00  0.00    +0.000 A 
ATOM      9  S   UNL     1       3.793   6.031  18.517  0.00  0.00    +0.000 S 
ATOM     10  H   UNL     1       1.766   5.674  21.449  0.00  0.00    +0.000 HD
ENDROOT
BRANCH   8  11
ATOM     11  C   UNL     1       5.117   4.346  16.847  0.00  0.00    +0.000 C 
ATOM     12  O   UNL     1       4.491   4.190  15.793  0.00  0.00    +0.000 OA
ATOM     13  N   UNL     1       6.511   4.505  16.745  0.00  0.00    +0.000 N 
ATOM     14  C   UNL     1       7.456   4.740  17.812  0.00  0.00    +0.000 C 
ATOM     15  C   UNL     1       7.108   4.553  15.410  0.00  0.00    +0.000 C 
ENDBRANCH   8  11
BRANCH   1  16
ATOM     16  O   UNL     1       0.790   7.700  21.417  0.00  0.00    +0.000 OA
BRANCH  16  18
ATOM     17  C   UNL     1       0.135   9.480  22.856  0.00  0.00    +0.000 C 
ATOM     18  C   UNL     1       0.268   9.034  21.412  0.00  0.00    +0.000 C 
ENDBRANCH  16  18
ENDBRANCH   1  16
TORSDOF 3
ENDMDL
MODEL 7
REMARK VINA RESULT:      -5.7      1.533      1.792
REMARK  Name = 
REMARK  7 active torsions:
REMARK  status: ('A' for Active; 'I' for Inactive)
REMARK    1  A    between atoms: C_1  and  C_2
REMARK    2  A    between atoms: C_2  and  O_3
REMARK    3  A    between atoms: O_3  and  C_4
REMARK    4  A    between atoms: C_9  and  C_10
REMARK    5  A    between atoms: C_11  and  C_12
REMARK    6  A    between atoms: N_14  and  C_15
REMARK    7  A    between atoms: N_14  and  C_16
REMARK                            x       y       z     vdW  Elec       q    Type
REMARK                         _______ _______ _______ _____ _____    ______ ____
ROOT
ATOM      1  C   UNL     1       6.227   4.439  14.783  0.00  0.00    +0.000 C 
ATOM      2  O   UNL     1       6.161   3.326  15.280  0.00  0.00    +0.000 OA
ATOM      3  N   UNL     1       5.770   5.609  15.284  0.00  0.00    +0.000 N 
ATOM      4  C   UNL     1       5.007   5.789  16.401  0.00  0.00    +0.000 A 
ATOM      5  N   UNL     1       4.484   6.966  16.638  0.00  0.00    +0.000 NA
ATOM      6  C   UNL     1       3.577   6.910  17.686  0.00  0.00    +0.000 A 
ATOM      7  C   UNL     1       2.733   8.132  17.791  0.00  0.00    +0.000 C 
ATOM      8  C   UNL     1       3.550   5.690  18.374  0.00  0.00    +0.000 A 
ATOM      9  S   UNL     1       4.634   4.596  17.522  0.00  0.00    +0.000 S 
ATOM     10  H   UNL     1       5.919   6.435  14.729  0.00  0.00    +0.000 HD
ENDROOT
BRANCH   8  11
ATOM     11  C   UNL     1       2.809   5.055  19.482  0.00  0.00    +0.000 C 
ATOM     12  O   UNL     1       3.049   5.401  20.643  0.00  0.00    +0.000 OA
ATOM     13  N   UNL     1       1.787   4.106  19.294  0.00  0.00    +0.000 N 
ATOM     14  C   UNL     1       1.292   3.572  18.047  0.00  0.00    +0.000 C 
ATOM     15  C   UNL     1       1.034   3.658  20.466  0.00  0.00    +0.000 C 
ENDBRANCH   8  11
BRANCH   1  16
ATOM     16  O   UNL     1       6.819   4.714  13.594  0.00  0.00    +0.000 OA
BRANCH  16  18
ATOM     17  C   UNL     1       5.248   3.626  12.174  0.00  0.00    +0.000 C 
ATOM     18  C   UNL     1       6.703   3.690  12.598  0.00  0.00    +0.000 C 
ENDBRANCH  16  18
ENDBRANCH   1  16
TORSDOF 3
ENDMDL
MODEL 8
REMARK VINA RESULT:      -5.7      2.413      3.143
REMARK  Name = 
REMARK  7 active torsions:
REMARK  status: ('A' for Active; 'I' for Inactive)
REMARK    1  A    between atoms: C_1  and  C_2
REMARK    2  A    between atoms: C_2  and  O_3
REMARK    3  A    between atoms: O_3  and  C_4
REMARK    4  A    between atoms: C_9  and  C_10
REMARK    5  A    between atoms: C_11  and  C_12
REMARK    6  A    between atoms: N_14  and  C_15
REMARK    7  A    between atoms: N_14  and  C_16
REMARK                            x       y       z     vdW  Elec       q    Type
REMARK                         _______ _______ _______ _____ _____    ______ ____
ROOT
ATOM      1  C   UNL     1       6.110   3.893  12.884  0.00  0.00    +0.000 C 
ATOM      2  O   UNL     1       4.942   3.555  12.990  0.00  0.00    +0.000 OA
ATOM      3  N   UNL     1       6.905   4.469  13.815  0.00  0.00    +0.000 N 
ATOM      4  C   UNL     1       6.538   4.928  15.046  0.00  0.00    +0.000 A 
ATOM      5  N   UNL     1       7.388   5.638  15.745  0.00  0.00    +0.000 NA
ATOM      6  C   UNL     1       6.778   6.193  16.861  0.00  0.00    +0.000 A 
ATOM      7  C   UNL     1       7.605   7.247  17.511  0.00  0.00    +0.000 C 
ATOM      8  C   UNL     1       5.475   5.742  17.103  0.00  0.00    +0.000 A 
ATOM      9  S   UNL     1       5.037   4.693  15.760  0.00  0.00    +0.000 S 
ATOM     10  H   UNL     1       7.852   4.675  13.544  0.00  0.00    +0.000 HD
ENDROOT
BRANCH   8  11
ATOM     11  C   UNL     1       4.372   5.987  18.054  0.00  0.00    +0.000 C 
ATOM     12  O   UNL     1       3.700   7.018  17.944  0.00  0.00    +0.000 OA
ATOM     13  N   UNL     1       3.993   5.079  19.060  0.00  0.00    +0.000 N 
ATOM     14  C   UNL     1       4.583   3.798  19.365  0.00  0.00    +0.000 C 
ATOM     15  C   UNL     1       2.794   5.376  19.845  0.00  0.00    +0.000 C 
ENDBRANCH   8  11
BRANCH   1  16
ATOM     16  O   UNL     1       6.859   3.722  11.766  0.00  0.00    +0.000 OA
BRANCH  16  18
ATOM     17  C   UNL     1       6.304   1.516  11.063  0.00  0.00    +0.000 C 
ATOM     18  C   UNL     1       7.410   2.411  11.590  0.00  0.00    +0.000 C 
ENDBRANCH  16  18
ENDBRANCH   1  16
TORSDOF 3
ENDMDL
MODEL 9
REMARK VINA RESULT:      -5.7      2.112      2.979
REMARK  Name = 
REMARK  7 active torsions:
REMARK  status: ('A' for Active; 'I' for Inactive)
REMARK    1  A    between atoms: C_1  and  C_2
REMARK    2  A    between atoms: C_2  and  O_3
REMARK    3  A    between atoms: O_3  and  C_4
REMARK    4  A    between atoms: C_9  and  C_10
REMARK    5  A    between atoms: C_11  and  C_12
REMARK    6  A    between atoms: N_14  and  C_15
REMARK    7  A    between atoms: N_14  and  C_16
REMARK                            x       y       z     vdW  Elec       q    Type
REMARK                         _______ _______ _______ _____ _____    ______ ____
ROOT
ATOM      1  C   UNL     1       6.746   5.401  15.991  0.00  0.00    +0.000 C 
ATOM      2  O   UNL     1       7.013   6.412  16.620  0.00  0.00    +0.000 OA
ATOM      3  N   UNL     1       5.599   4.682  16.006  0.00  0.00    +0.000 N 
ATOM      4  C   UNL     1       4.530   4.849  16.836  0.00  0.00    +0.000 A 
ATOM      5  N   UNL     1       3.583   3.945  16.852  0.00  0.00    +0.000 NA
ATOM      6  C   UNL     1       2.694   4.167  17.895  0.00  0.00    +0.000 A 
ATOM      7  C   UNL     1       1.793   3.009  18.147  0.00  0.00    +0.000 C 
ATOM      8  C   UNL     1       2.878   5.378  18.574  0.00  0.00    +0.000 A 
ATOM      9  S   UNL     1       4.319   6.131  17.900  0.00  0.00    +0.000 S 
ATOM     10  H   UNL     1       5.559   3.871  15.412  0.00  0.00    +0.000 HD
ENDROOT
BRANCH   8  11
ATOM     11  C   UNL     1       2.307   6.104  19.725  0.00  0.00    +0.000 C 
ATOM     12  O   UNL     1       2.181   5.518  20.806  0.00  0.00    +0.000 OA
ATOM     13  N   UNL     1       1.945   7.463  19.689  0.00  0.00    +0.000 N 
ATOM     14  C   UNL     1       2.034   8.374  18.572  0.00  0.00    +0.000 C 
ATOM     15  C   UNL     1       1.523   8.102  20.936  0.00  0.00    +0.000 C 
ENDBRANCH   8  11
BRANCH   1  16
ATOM     16  O   UNL     1       7.582   4.805  15.106  0.00  0.00    +0.000 OA
BRANCH  16  18
ATOM     17  C   UNL     1       7.876   5.264  12.788  0.00  0.00    +0.000 C 
ATOM     18  C   UNL     1       7.023   4.541  13.813  0.00  0.00    +0.000 C 
ENDBRANCH  16  18
ENDBRANCH   1  16
TORSDOF 3
ENDMDL
