MODEL 1
REMARK VINA RESULT:      -7.7      0.000      0.000
REMARK  Name = 
REMARK  3 active torsions:
REMARK  status: ('A' for Active; 'I' for Inactive)
REMARK    1  A    between atoms: C_2  and  C_3
REMARK    2  A    between atoms: C_16  and  C_17
REMARK    3  A    between atoms: C_20  and  N_21
REMARK                            x       y       z     vdW  Elec       q    Type
REMARK                         _______ _______ _______ _____ _____    ______ ____
ROOT
ATOM      1  O   UNL     1       2.735   8.325  17.109  0.00  0.00    +0.000 OA
ATOM      2  C   UNL     1       2.417   7.824  18.188  0.00  0.00    +0.000 C 
ATOM      3  N   UNL     1       1.615   8.500  19.110  0.00  0.00    +0.000 N 
ATOM      4  C   UNL     1       1.198   8.022  20.441  0.00  0.00    +0.000 C 
ATOM      5  C   UNL     1       1.257   9.103  21.529  0.00  0.00    +0.000 C 
ATOM      6  N   UNL     1       0.597  10.323  21.073  0.00  0.00    +0.000 N 
ATOM      7  C   UNL     1      -0.423  10.847  21.803  0.00  0.00    +0.000 A 
ATOM      8  N   UNL     1      -0.807  10.380  22.980  0.00  0.00    +0.000 NA
ATOM      9  N   UNL     1      -1.899  11.028  23.511  0.00  0.00    +0.000 NA
ATOM     10  C   UNL     1      -2.320  11.983  22.712  0.00  0.00    +0.000 A 
ATOM     11  S   UNL     1      -1.389  12.187  21.297  0.00  0.00    +0.000 S 
ATOM     12  C   UNL     1       1.089  10.849  19.797  0.00  0.00    +0.000 C 
ATOM     13  C   UNL     1       0.993   9.771  18.700  0.00  0.00    +0.000 C 
ENDROOT
BRANCH   2  14
ATOM     14  C   UNL     1       2.983   6.480  18.508  0.00  0.00    +0.000 A 
ATOM     15  C   UNL     1       2.236   5.347  18.160  0.00  0.00    +0.000 A 
ATOM     16  C   UNL     1       2.760   4.067  18.360  0.00  0.00    +0.000 A 
ATOM     17  C   UNL     1       4.041   3.914  18.890  0.00  0.00    +0.000 A 
ATOM     18  C   UNL     1       4.765   5.033  19.292  0.00  0.00    +0.000 A 
ATOM     19  C   UNL     1       4.212   6.307  19.155  0.00  0.00    +0.000 A 
ENDBRANCH   2  14
BRANCH  10  20
ATOM     20  C   UNL     1      -3.491  12.768  22.972  0.00  0.00    +0.000 A 
ATOM     21  C   UNL     1      -3.648  14.146  22.879  0.00  0.00    +0.000 A 
ATOM     22  C   UNL     1      -4.971  14.455  23.284  0.00  0.00    +0.000 A 
ATOM     23  C   UNL     1      -5.543  13.246  23.588  0.00  0.00    +0.000 A 
ATOM     24  O   UNL     1      -4.678  12.221  23.399  0.00  0.00    +0.000 OA
BRANCH  23  25
ATOM     25  N   UNL     1      -6.843  12.890  24.060  0.00  0.00    +0.000 N 
ATOM     26  O   UNL     1      -7.127  11.687  24.024  0.00  0.00    +0.000 OA
ATOM     27  O   UNL     1      -7.585  13.799  24.460  0.00  0.00    +0.000 OA
ENDBRANCH  23  25
ENDBRANCH  10  20
TORSDOF 3
ENDMDL
MODEL 2
REMARK VINA RESULT:      -7.4      3.790     10.837
REMARK  Name = 
REMARK  3 active torsions:
REMARK  status: ('A' for Active; 'I' for Inactive)
REMARK    1  A    between atoms: C_2  and  C_3
REMARK    2  A    between atoms: C_16  and  C_17
REMARK    3  A    between atoms: C_20  and  N_21
REMARK                            x       y       z     vdW  Elec       q    Type
REMARK                         _______ _______ _______ _____ _____    ______ ____
ROOT
ATOM      1  O   UNL     1      -0.480  13.589  19.469  0.00  0.00    +0.000 OA
ATOM      2  C   UNL     1      -0.372  12.731  20.347  0.00  0.00    +0.000 C 
ATOM      3  N   UNL     1       0.308  11.531  20.128  0.00  0.00    +0.000 N 
ATOM      4  C   UNL     1       0.474  10.420  21.083  0.00  0.00    +0.000 C 
ATOM      5  C   UNL     1       0.302   9.033  20.448  0.00  0.00    +0.000 C 
ATOM      6  N   UNL     1       1.098   8.928  19.229  0.00  0.00    +0.000 N 
ATOM      7  C   UNL     1       2.014   7.931  19.109  0.00  0.00    +0.000 A 
ATOM      8  N   UNL     1       2.174   6.962  19.997  0.00  0.00    +0.000 NA
ATOM      9  N   UNL     1       3.201   6.095  19.701  0.00  0.00    +0.000 NA
ATOM     10  C   UNL     1       3.802   6.433  18.582  0.00  0.00    +0.000 A 
ATOM     11  S   UNL     1       3.127   7.788  17.795  0.00  0.00    +0.000 S 
ATOM     12  C   UNL     1       0.852   9.980  18.240  0.00  0.00    +0.000 C 
ATOM     13  C   UNL     1       1.062  11.370  18.873  0.00  0.00    +0.000 C 
ENDROOT
BRANCH   2  14
ATOM     14  C   UNL     1      -1.061  12.995  21.645  0.00  0.00    +0.000 A 
ATOM     15  C   UNL     1      -0.501  13.943  22.511  0.00  0.00    +0.000 A 
ATOM     16  C   UNL     1      -1.153  14.287  23.698  0.00  0.00    +0.000 A 
ATOM     17  C   UNL     1      -2.378  13.700  24.015  0.00  0.00    +0.000 A 
ATOM     18  C   UNL     1      -2.911  12.715  23.188  0.00  0.00    +0.000 A 
ATOM     19  C   UNL     1      -2.224  12.323  22.039  0.00  0.00    +0.000 A 
ENDBRANCH   2  14
BRANCH  10  20
ATOM     20  C   UNL     1       4.959   5.757  18.074  0.00  0.00    +0.000 A 
ATOM     21  C   UNL     1       6.019   5.203  18.783  0.00  0.00    +0.000 A 
ATOM     22  C   UNL     1       6.946   4.691  17.839  0.00  0.00    +0.000 A 
ATOM     23  C   UNL     1       6.387   4.953  16.614  0.00  0.00    +0.000 A 
ATOM     24  O   UNL     1       5.193   5.582  16.731  0.00  0.00    +0.000 OA
BRANCH  23  25
ATOM     25  N   UNL     1       6.833   4.695  15.282  0.00  0.00    +0.000 N 
ATOM     26  O   UNL     1       6.322   3.722  14.713  0.00  0.00    +0.000 OA
ATOM     27  O   UNL     1       7.689   5.449  14.799  0.00  0.00    +0.000 OA
ENDBRANCH  23  25
ENDBRANCH  10  20
TORSDOF 3
ENDMDL
MODEL 3
REMARK VINA RESULT:      -7.2      3.881     10.811
REMARK  Name = 
REMARK  3 active torsions:
REMARK  status: ('A' for Active; 'I' for Inactive)
REMARK    1  A    between atoms: C_2  and  C_3
REMARK    2  A    between atoms: C_16  and  C_17
REMARK    3  A    between atoms: C_20  and  N_21
REMARK                            x       y       z     vdW  Elec       q    Type
REMARK                         _______ _______ _______ _____ _____    ______ ____
ROOT
ATOM      1  O   UNL     1      -0.561  13.573  19.042  0.00  0.00    +0.000 OA
ATOM      2  C   UNL     1      -0.421  12.774  19.970  0.00  0.00    +0.000 C 
ATOM      3  N   UNL     1       0.279  11.575  19.815  0.00  0.00    +0.000 N 
ATOM      4  C   UNL     1       0.482  10.530  20.834  0.00  0.00    +0.000 C 
ATOM      5  C   UNL     1       0.329   9.102  20.291  0.00  0.00    +0.000 C 
ATOM      6  N   UNL     1       1.107   8.936  19.067  0.00  0.00    +0.000 N 
ATOM      7  C   UNL     1       2.042   7.952  18.995  0.00  0.00    +0.000 A 
ATOM      8  N   UNL     1       2.235   7.044  19.939  0.00  0.00    +0.000 NA
ATOM      9  N   UNL     1       3.275   6.180  19.681  0.00  0.00    +0.000 NA
ATOM     10  C   UNL     1       3.851   6.458  18.533  0.00  0.00    +0.000 A 
ATOM     11  S   UNL     1       3.137   7.748  17.674  0.00  0.00    +0.000 S 
ATOM     12  C   UNL     1       0.825   9.920  18.019  0.00  0.00    +0.000 C 
ATOM     13  C   UNL     1       1.016  11.350  18.560  0.00  0.00    +0.000 C 
ENDROOT
BRANCH   2  14
ATOM     14  C   UNL     1      -1.096  13.105  21.260  0.00  0.00    +0.000 A 
ATOM     15  C   UNL     1      -2.417  12.677  21.444  0.00  0.00    +0.000 A 
ATOM     16  C   UNL     1      -3.063  12.887  22.666  0.00  0.00    +0.000 A 
ATOM     17  C   UNL     1      -2.384  13.507  23.715  0.00  0.00    +0.000 A 
ATOM     18  C   UNL     1      -1.092  13.986  23.519  0.00  0.00    +0.000 A 
ATOM     19  C   UNL     1      -0.474  13.837  22.277  0.00  0.00    +0.000 A 
ENDBRANCH   2  14
BRANCH  10  20
ATOM     20  C   UNL     1       5.014   5.774  18.049  0.00  0.00    +0.000 A 
ATOM     21  C   UNL     1       6.076   5.251  18.777  0.00  0.00    +0.000 A 
ATOM     22  C   UNL     1       7.008   4.715  17.852  0.00  0.00    +0.000 A 
ATOM     23  C   UNL     1       6.451   4.933  16.618  0.00  0.00    +0.000 A 
ATOM     24  O   UNL     1       5.252   5.557  16.712  0.00  0.00    +0.000 OA
BRANCH  23  25
ATOM     25  N   UNL     1       6.900   4.636  15.295  0.00  0.00    +0.000 N 
ATOM     26  O   UNL     1       7.765   5.387  14.830  0.00  0.00    +0.000 OA
ATOM     27  O   UNL     1       6.396   3.663  14.716  0.00  0.00    +0.000 OA
ENDBRANCH  23  25
ENDBRANCH  10  20
TORSDOF 3
ENDMDL
MODEL 4
REMARK VINA RESULT:      -7.1      3.906     10.657
REMARK  Name = 
REMARK  3 active torsions:
REMARK  status: ('A' for Active; 'I' for Inactive)
REMARK    1  A    between atoms: C_2  and  C_3
REMARK    2  A    between atoms: C_16  and  C_17
REMARK    3  A    between atoms: C_20  and  N_21
REMARK                            x       y       z     vdW  Elec       q    Type
REMARK                         _______ _______ _______ _____ _____    ______ ____
ROOT
ATOM      1  O   UNL     1      -0.395  14.446  19.454  0.00  0.00    +0.000 OA
ATOM      2  C   UNL     1      -0.112  13.706  20.398  0.00  0.00    +0.000 C 
ATOM      3  N   UNL     1       0.388  12.417  20.203  0.00  0.00    +0.000 N 
ATOM      4  C   UNL     1       0.728  11.431  21.246  0.00  0.00    +0.000 C 
ATOM      5  C   UNL     1       0.285  10.001  20.909  0.00  0.00    +0.000 C 
ATOM      6  N   UNL     1       0.701   9.643  19.556  0.00  0.00    +0.000 N 
ATOM      7  C   UNL     1       1.472   8.540  19.362  0.00  0.00    +0.000 A 
ATOM      8  N   UNL     1       1.798   7.687  20.320  0.00  0.00    +0.000 NA
ATOM      9  N   UNL     1       2.635   6.674  19.907  0.00  0.00    +0.000 NA
ATOM     10  C   UNL     1       2.926   6.788  18.631  0.00  0.00    +0.000 A 
ATOM     11  S   UNL     1       2.163   8.095  17.842  0.00  0.00    +0.000 S 
ATOM     12  C   UNL     1       0.271  10.575  18.512  0.00  0.00    +0.000 C 
ATOM     13  C   UNL     1       0.751  12.003  18.837  0.00  0.00    +0.000 C 
ENDROOT
BRANCH   2  14
ATOM     14  C   UNL     1      -0.393  14.218  21.772  0.00  0.00    +0.000 A 
ATOM     15  C   UNL     1       0.269  15.378  22.193  0.00  0.00    +0.000 A 
ATOM     16  C   UNL     1      -0.023  15.945  23.437  0.00  0.00    +0.000 A 
ATOM     17  C   UNL     1      -0.993  15.368  24.255  0.00  0.00    +0.000 A 
ATOM     18  C   UNL     1      -1.614  14.183  23.867  0.00  0.00    +0.000 A 
ATOM     19  C   UNL     1      -1.270  13.580  22.656  0.00  0.00    +0.000 A 
ENDBRANCH   2  14
BRANCH  10  20
ATOM     20  C   UNL     1       3.843   5.921  17.952  0.00  0.00    +0.000 A 
ATOM     21  C   UNL     1       3.602   4.671  17.394  0.00  0.00    +0.000 A 
ATOM     22  C   UNL     1       4.831   4.185  16.881  0.00  0.00    +0.000 A 
ATOM     23  C   UNL     1       5.745   5.174  17.147  0.00  0.00    +0.000 A 
ATOM     24  O   UNL     1       5.173   6.227  17.779  0.00  0.00    +0.000 OA
BRANCH  23  25
ATOM     25  N   UNL     1       7.145   5.282  16.890  0.00  0.00    +0.000 N 
ATOM     26  O   UNL     1       7.882   4.551  17.563  0.00  0.00    +0.000 OA
ATOM     27  O   UNL     1       7.517   6.091  16.028  0.00  0.00    +0.000 OA
ENDBRANCH  23  25
ENDBRANCH  10  20
TORSDOF 3
ENDMDL
MODEL 5
REMARK VINA RESULT:      -7.0      5.416      6.595
REMARK  Name = 
REMARK  3 active torsions:
REMARK  status: ('A' for Active; 'I' for Inactive)
REMARK    1  A    between atoms: C_2  and  C_3
REMARK    2  A    between atoms: C_16  and  C_17
REMARK    3  A    between atoms: C_20  and  N_21
REMARK                            x       y       z     vdW  Elec       q    Type
REMARK                         _______ _______ _______ _____ _____    ______ ____
ROOT
ATOM      1  O   UNL     1       1.541   5.477  21.074  0.00  0.00    +0.000 OA
ATOM      2  C   UNL     1       2.068   5.918  20.051  0.00  0.00    +0.000 C 
ATOM      3  N   UNL     1       2.084   7.283  19.755  0.00  0.00    +0.000 N 
ATOM      4  C   UNL     1       2.649   7.922  18.554  0.00  0.00    +0.000 C 
ATOM      5  C   UNL     1       1.772   9.047  17.985  0.00  0.00    +0.000 C 
ATOM      6  N   UNL     1       1.368   9.964  19.045  0.00  0.00    +0.000 N 
ATOM      7  C   UNL     1       1.655  11.288  18.932  0.00  0.00    +0.000 A 
ATOM      8  N   UNL     1       2.197  11.839  17.857  0.00  0.00    +0.000 NA
ATOM      9  N   UNL     1       2.454  13.185  17.986  0.00  0.00    +0.000 NA
ATOM     10  C   UNL     1       2.094  13.626  19.171  0.00  0.00    +0.000 A 
ATOM     11  S   UNL     1       1.377  12.451  20.179  0.00  0.00    +0.000 S 
ATOM     12  C   UNL     1       0.714   9.331  20.193  0.00  0.00    +0.000 C 
ATOM     13  C   UNL     1       1.615   8.229  20.782  0.00  0.00    +0.000 C 
ENDROOT
BRANCH   2  14
ATOM     14  C   UNL     1       2.632   4.921  19.093  0.00  0.00    +0.000 A 
ATOM     15  C   UNL     1       3.955   4.499  19.281  0.00  0.00    +0.000 A 
ATOM     16  C   UNL     1       4.502   3.505  18.464  0.00  0.00    +0.000 A 
ATOM     17  C   UNL     1       3.722   2.915  17.470  0.00  0.00    +0.000 A 
ATOM     18  C   UNL     1       2.427   3.370  17.240  0.00  0.00    +0.000 A 
ATOM     19  C   UNL     1       1.907   4.410  18.011  0.00  0.00    +0.000 A 
ENDBRANCH   2  14
BRANCH  10  20
ATOM     20  C   UNL     1       2.321  14.971  19.612  0.00  0.00    +0.000 A 
ATOM     21  C   UNL     1       1.425  15.849  20.211  0.00  0.00    +0.000 A 
ATOM     22  C   UNL     1       2.100  17.078  20.417  0.00  0.00    +0.000 A 
ATOM     23  C   UNL     1       3.370  16.871  19.941  0.00  0.00    +0.000 A 
ATOM     24  O   UNL     1       3.528  15.614  19.464  0.00  0.00    +0.000 OA
BRANCH  23  25
ATOM     25  N   UNL     1       4.514  17.722  19.858  0.00  0.00    +0.000 N 
ATOM     26  O   UNL     1       5.295  17.498  18.925  0.00  0.00    +0.000 OA
ATOM     27  O   UNL     1       4.644  18.607  20.716  0.00  0.00    +0.000 OA
ENDBRANCH  23  25
ENDBRANCH  10  20
TORSDOF 3
ENDMDL
MODEL 6
REMARK VINA RESULT:      -7.0      3.680     10.571
REMARK  Name = 
REMARK  3 active torsions:
REMARK  status: ('A' for Active; 'I' for Inactive)
REMARK    1  A    between atoms: C_2  and  C_3
REMARK    2  A    between atoms: C_16  and  C_17
REMARK    3  A    between atoms: C_20  and  N_21
REMARK                            x       y       z     vdW  Elec       q    Type
REMARK                         _______ _______ _______ _____ _____    ______ ____
ROOT
ATOM      1  O   UNL     1      -0.719  14.522  19.574  0.00  0.00    +0.000 OA
ATOM      2  C   UNL     1      -0.506  13.735  20.497  0.00  0.00    +0.000 C 
ATOM      3  N   UNL     1       0.058  12.475  20.281  0.00  0.00    +0.000 N 
ATOM      4  C   UNL     1       0.327  11.439  21.294  0.00  0.00    +0.000 C 
ATOM      5  C   UNL     1      -0.028  10.019  20.832  0.00  0.00    +0.000 C 
ATOM      6  N   UNL     1       0.534   9.757  19.510  0.00  0.00    +0.000 N 
ATOM      7  C   UNL     1       1.360   8.692  19.332  0.00  0.00    +0.000 A 
ATOM      8  N   UNL     1       1.619   7.792  20.267  0.00  0.00    +0.000 NA
ATOM      9  N   UNL     1       2.530   6.832  19.885  0.00  0.00    +0.000 NA
ATOM     10  C   UNL     1       2.942   7.033  18.654  0.00  0.00    +0.000 A 
ATOM     11  S   UNL     1       2.216   8.362  17.868  0.00  0.00    +0.000 S 
ATOM     12  C   UNL     1       0.178  10.738  18.483  0.00  0.00    +0.000 C 
ATOM     13  C   UNL     1       0.571  12.157  18.937  0.00  0.00    +0.000 C 
ENDROOT
BRANCH   2  14
ATOM     14  C   UNL     1      -0.941  14.153  21.863  0.00  0.00    +0.000 A 
ATOM     15  C   UNL     1      -2.096  13.567  22.397  0.00  0.00    +0.000 A 
ATOM     16  C   UNL     1      -2.498  13.862  23.703  0.00  0.00    +0.000 A 
ATOM     17  C   UNL     1      -1.735  14.727  24.487  0.00  0.00    +0.000 A 
ATOM     18  C   UNL     1      -0.619  15.356  23.943  0.00  0.00    +0.000 A 
ATOM     19  C   UNL     1      -0.260  15.115  22.617  0.00  0.00    +0.000 A 
ENDBRANCH   2  14
BRANCH  10  20
ATOM     20  C   UNL     1       3.954   6.237  18.023  0.00  0.00    +0.000 A 
ATOM     21  C   UNL     1       4.030   4.853  17.925  0.00  0.00    +0.000 A 
ATOM     22  C   UNL     1       5.240   4.535  17.256  0.00  0.00    +0.000 A 
ATOM     23  C   UNL     1       5.821   5.746  16.976  0.00  0.00    +0.000 A 
ATOM     24  O   UNL     1       5.063   6.779  17.418  0.00  0.00    +0.000 OA
BRANCH  23  25
ATOM     25  N   UNL     1       7.045   6.098  16.331  0.00  0.00    +0.000 N 
ATOM     26  O   UNL     1       7.337   5.446  15.321  0.00  0.00    +0.000 OA
ATOM     27  O   UNL     1       7.720   7.013  16.824  0.00  0.00    +0.000 OA
ENDBRANCH  23  25
ENDBRANCH  10  20
TORSDOF 3
ENDMDL
MODEL 7
REMARK VINA RESULT:      -6.9      1.434      1.618
REMARK  Name = 
REMARK  3 active torsions:
REMARK  status: ('A' for Active; 'I' for Inactive)
REMARK    1  A    between atoms: C_2  and  C_3
REMARK    2  A    between atoms: C_16  and  C_17
REMARK    3  A    between atoms: C_20  and  N_21
REMARK                            x       y       z     vdW  Elec       q    Type
REMARK                         _______ _______ _______ _____ _____    ______ ____
ROOT
ATOM      1  O   UNL     1       2.951   8.031  17.118  0.00  0.00    +0.000 OA
ATOM      2  C   UNL     1       2.561   7.553  18.185  0.00  0.00    +0.000 C 
ATOM      3  N   UNL     1       1.777   8.284  19.080  0.00  0.00    +0.000 N 
ATOM      4  C   UNL     1       1.282   7.836  20.395  0.00  0.00    +0.000 C 
ATOM      5  C   UNL     1       1.378   8.911  21.487  0.00  0.00    +0.000 C 
ATOM      6  N   UNL     1       0.820  10.173  21.011  0.00  0.00    +0.000 N 
ATOM      7  C   UNL     1      -0.186  10.767  21.706  0.00  0.00    +0.000 A 
ATOM      8  N   UNL     1      -0.642  10.328  22.868  0.00  0.00    +0.000 NA
ATOM      9  N   UNL     1      -1.704  11.051  23.363  0.00  0.00    +0.000 NA
ATOM     10  C   UNL     1      -2.030  12.032  22.552  0.00  0.00    +0.000 A 
ATOM     11  S   UNL     1      -1.039  12.170  21.169  0.00  0.00    +0.000 S 
ATOM     12  C   UNL     1       1.390  10.664  19.754  0.00  0.00    +0.000 C 
ATOM     13  C   UNL     1       1.258   9.594  18.652  0.00  0.00    +0.000 C 
ENDROOT
BRANCH   2  14
ATOM     14  C   UNL     1       3.023   6.174  18.522  0.00  0.00    +0.000 A 
ATOM     15  C   UNL     1       2.199   5.097  18.170  0.00  0.00    +0.000 A 
ATOM     16  C   UNL     1       2.624   3.783  18.387  0.00  0.00    +0.000 A 
ATOM     17  C   UNL     1       3.882   3.540  18.936  0.00  0.00    +0.000 A 
ATOM     18  C   UNL     1       4.681   4.606  19.341  0.00  0.00    +0.000 A 
ATOM     19  C   UNL     1       4.226   5.916  19.188  0.00  0.00    +0.000 A 
ENDBRANCH   2  14
BRANCH  10  20
ATOM     20  C   UNL     1      -3.153  12.895  22.772  0.00  0.00    +0.000 A 
ATOM     21  C   UNL     1      -4.398  12.873  22.154  0.00  0.00    +0.000 A 
ATOM     22  C   UNL     1      -5.154  13.956  22.671  0.00  0.00    +0.000 A 
ATOM     23  C   UNL     1      -4.327  14.565  23.581  0.00  0.00    +0.000 A 
ATOM     24  O   UNL     1      -3.128  13.941  23.665  0.00  0.00    +0.000 OA
BRANCH  23  25
ATOM     25  N   UNL     1      -4.501  15.706  24.421  0.00  0.00    +0.000 N 
ATOM     26  O   UNL     1      -3.531  16.022  25.122  0.00  0.00    +0.000 OA
ATOM     27  O   UNL     1      -5.595  16.287  24.393  0.00  0.00    +0.000 OA
ENDBRANCH  23  25
ENDBRANCH  10  20
TORSDOF 3
ENDMDL
MODEL 8
REMARK VINA RESULT:      -6.9      2.793     10.399
REMARK  Name = 
REMARK  3 active torsions:
REMARK  status: ('A' for Active; 'I' for Inactive)
REMARK    1  A    between atoms: C_2  and  C_3
REMARK    2  A    between atoms: C_16  and  C_17
REMARK    3  A    between atoms: C_20  and  N_21
REMARK                            x       y       z     vdW  Elec       q    Type
REMARK                         _______ _______ _______ _____ _____    ______ ____
ROOT
ATOM      1  O   UNL     1      -2.505  12.698  23.514  0.00  0.00    +0.000 OA
ATOM      2  C   UNL     1      -2.480  12.712  22.282  0.00  0.00    +0.000 C 
ATOM      3  N   UNL     1      -1.656  11.854  21.550  0.00  0.00    +0.000 N 
ATOM      4  C   UNL     1      -1.513  11.801  20.084  0.00  0.00    +0.000 C 
ATOM      5  C   UNL     1      -0.062  11.629  19.613  0.00  0.00    +0.000 C 
ATOM      6  N   UNL     1       0.585  10.541  20.340  0.00  0.00    +0.000 N 
ATOM      7  C   UNL     1       1.136   9.508  19.651  0.00  0.00    +0.000 A 
ATOM      8  N   UNL     1       1.222   9.461  18.330  0.00  0.00    +0.000 NA
ATOM      9  N   UNL     1       1.763   8.292  17.845  0.00  0.00    +0.000 NA
ATOM     10  C   UNL     1       2.078   7.472  18.823  0.00  0.00    +0.000 A 
ATOM     11  S   UNL     1       1.786   8.087  20.387  0.00  0.00    +0.000 S 
ATOM     12  C   UNL     1       0.527  10.655  21.799  0.00  0.00    +0.000 C 
ATOM     13  C   UNL     1      -0.935  10.790  22.269  0.00  0.00    +0.000 C 
ENDROOT
BRANCH   2  14
ATOM     14  C   UNL     1      -3.320  13.738  21.595  0.00  0.00    +0.000 A 
ATOM     15  C   UNL     1      -4.604  13.368  21.176  0.00  0.00    +0.000 A 
ATOM     16  C   UNL     1      -5.459  14.314  20.605  0.00  0.00    +0.000 A 
ATOM     17  C   UNL     1      -5.043  15.639  20.471  0.00  0.00    +0.000 A 
ATOM     18  C   UNL     1      -3.748  15.999  20.832  0.00  0.00    +0.000 A 
ATOM     19  C   UNL     1      -2.871  15.038  21.337  0.00  0.00    +0.000 A 
ENDBRANCH   2  14
BRANCH  10  20
ATOM     20  C   UNL     1       2.584   6.148  18.607  0.00  0.00    +0.000 A 
ATOM     21  C   UNL     1       2.019   5.115  17.869  0.00  0.00    +0.000 A 
ATOM     22  C   UNL     1       2.865   3.984  17.995  0.00  0.00    +0.000 A 
ATOM     23  C   UNL     1       3.901   4.401  18.793  0.00  0.00    +0.000 A 
ATOM     24  O   UNL     1       3.758   5.696  19.163  0.00  0.00    +0.000 OA
BRANCH  23  25
ATOM     25  N   UNL     1       5.059   3.731  19.291  0.00  0.00    +0.000 N 
ATOM     26  O   UNL     1       6.136   4.322  19.149  0.00  0.00    +0.000 OA
ATOM     27  O   UNL     1       4.905   2.619  19.818  0.00  0.00    +0.000 OA
ENDBRANCH  23  25
ENDBRANCH  10  20
TORSDOF 3
ENDMDL
MODEL 9
REMARK VINA RESULT:      -6.9      3.670      4.829
REMARK  Name = 
REMARK  3 active torsions:
REMARK  status: ('A' for Active; 'I' for Inactive)
REMARK    1  A    between atoms: C_2  and  C_3
REMARK    2  A    between atoms: C_16  and  C_17
REMARK    3  A    between atoms: C_20  and  N_21
REMARK                            x       y       z     vdW  Elec       q    Type
REMARK                         _______ _______ _______ _____ _____    ______ ____
ROOT
ATOM      1  O   UNL     1       4.528   3.676  19.311  0.00  0.00    +0.000 OA
ATOM      2  C   UNL     1       4.607   4.659  18.572  0.00  0.00    +0.000 C 
ATOM      3  N   UNL     1       3.864   5.819  18.801  0.00  0.00    +0.000 N 
ATOM      4  C   UNL     1       3.847   7.038  17.973  0.00  0.00    +0.000 C 
ATOM      5  C   UNL     1       2.445   7.633  17.781  0.00  0.00    +0.000 C 
ATOM      6  N   UNL     1       1.758   7.743  19.063  0.00  0.00    +0.000 N 
ATOM      7  C   UNL     1       1.286   8.952  19.470  0.00  0.00    +0.000 A 
ATOM      8  N   UNL     1       1.315  10.046  18.725  0.00  0.00    +0.000 NA
ATOM      9  N   UNL     1       0.837  11.169  19.361  0.00  0.00    +0.000 NA
ATOM     10  C   UNL     1       0.454  10.895  20.588  0.00  0.00    +0.000 A 
ATOM     11  S   UNL     1       0.600   9.252  21.027  0.00  0.00    +0.000 S 
ATOM     12  C   UNL     1       1.689   6.501  19.835  0.00  0.00    +0.000 C 
ATOM     13  C   UNL     1       3.103   5.928  20.057  0.00  0.00    +0.000 C 
ENDROOT
BRANCH   2  14
ATOM     14  C   UNL     1       5.484   4.537  17.369  0.00  0.00    +0.000 A 
ATOM     15  C   UNL     1       4.911   4.079  16.176  0.00  0.00    +0.000 A 
ATOM     16  C   UNL     1       5.668   4.028  15.003  0.00  0.00    +0.000 A 
ATOM     17  C   UNL     1       6.996   4.455  15.012  0.00  0.00    +0.000 A 
ATOM     18  C   UNL     1       7.588   4.856  16.207  0.00  0.00    +0.000 A 
ATOM     19  C   UNL     1       6.850   4.840  17.391  0.00  0.00    +0.000 A 
ENDBRANCH   2  14
BRANCH  10  20
ATOM     20  C   UNL     1      -0.008  11.890  21.510  0.00  0.00    +0.000 A 
ATOM     21  C   UNL     1      -1.017  11.789  22.460  0.00  0.00    +0.000 A 
ATOM     22  C   UNL     1      -1.139  13.051  23.094  0.00  0.00    +0.000 A 
ATOM     23  C   UNL     1      -0.189  13.842  22.499  0.00  0.00    +0.000 A 
ATOM     24  O   UNL     1       0.507  13.164  21.555  0.00  0.00    +0.000 OA
BRANCH  23  25
ATOM     25  N   UNL     1       0.179  15.208  22.689  0.00  0.00    +0.000 N 
ATOM     26  O   UNL     1       1.391  15.446  22.747  0.00  0.00    +0.000 OA
ATOM     27  O   UNL     1      -0.730  16.046  22.786  0.00  0.00    +0.000 OA
ENDBRANCH  23  25
ENDBRANCH  10  20
TORSDOF 3
ENDMDL
