MODEL 1
REMARK VINA RESULT:      -7.3      0.000      0.000
REMARK  Name = 
REMARK  2 active torsions:
REMARK  status: ('A' for Active; 'I' for Inactive)
REMARK    1  A    between atoms: C_1  and  C_2
REMARK    2  A    between atoms: C_9  and  C_10
REMARK                            x       y       z     vdW  Elec       q    Type
REMARK                         _______ _______ _______ _____ _____    ______ ____
ROOT
ATOM      1  C   UNL     1       2.981   7.595  17.815  0.00  0.00    +0.000 C 
ATOM      2  C   UNL     1       3.990   6.509  17.561  0.00  0.00    +0.000 A 
ATOM      3  N   UNL     1       5.181   6.953  17.113  0.00  0.00    +0.000 NA
ATOM      4  C   UNL     1       6.113   6.034  16.859  0.00  0.00    +0.000 A 
ATOM      5  N   UNL     1       7.395   6.472  16.620  0.00  0.00    +0.000 N 
ATOM      6  N   UNL     1       5.890   4.728  16.855  0.00  0.00    +0.000 NA
ATOM      7  C   UNL     1       4.707   4.303  17.318  0.00  0.00    +0.000 A 
ATOM      8  N   UNL     1       4.599   2.917  17.297  0.00  0.00    +0.000 N 
ATOM      9  C   UNL     1       3.717   5.150  17.794  0.00  0.00    +0.000 A 
ATOM     10  H   UNL     1       7.398   7.422  16.278  0.00  0.00    +0.000 HD
ATOM     11  H   UNL     1       7.927   5.774  16.126  0.00  0.00    +0.000 HD
ATOM     12  H   UNL     1       5.462   2.578  16.876  0.00  0.00    +0.000 HD
ATOM     13  H   UNL     1       4.507   2.540  18.233  0.00  0.00    +0.000 HD
ENDROOT
BRANCH   9  14
ATOM     14  C   UNL     1       2.555   4.756  18.704  0.00  0.00    +0.000 C 
ATOM     15  C   UNL     1       3.165   4.613  20.119  0.00  0.00    +0.000 C 
ATOM     16  C   UNL     1       2.149   4.269  21.201  0.00  0.00    +0.000 C 
ATOM     17  C   UNL     1       1.336   3.042  20.823  0.00  0.00    +0.000 C 
ATOM     18  C   UNL     1       0.652   3.241  19.472  0.00  0.00    +0.000 C 
ATOM     19  C   UNL     1       1.676   3.531  18.367  0.00  0.00    +0.000 C 
ENDBRANCH   9  14
TORSDOF 1
ENDMDL
MODEL 2
REMARK VINA RESULT:      -7.2      1.970      2.634
REMARK  Name = 
REMARK  2 active torsions:
REMARK  status: ('A' for Active; 'I' for Inactive)
REMARK    1  A    between atoms: C_1  and  C_2
REMARK    2  A    between atoms: C_9  and  C_10
REMARK                            x       y       z     vdW  Elec       q    Type
REMARK                         _______ _______ _______ _____ _____    ______ ____
ROOT
ATOM      1  C   UNL     1       5.379   4.553  14.643  0.00  0.00    +0.000 C 
ATOM      2  C   UNL     1       5.790   5.077  15.991  0.00  0.00    +0.000 A 
ATOM      3  N   UNL     1       6.691   6.079  15.944  0.00  0.00    +0.000 NA
ATOM      4  C   UNL     1       7.103   6.578  17.109  0.00  0.00    +0.000 A 
ATOM      5  N   UNL     1       7.841   7.738  17.084  0.00  0.00    +0.000 N 
ATOM      6  N   UNL     1       6.818   6.047  18.289  0.00  0.00    +0.000 NA
ATOM      7  C   UNL     1       5.909   5.063  18.320  0.00  0.00    +0.000 A 
ATOM      8  N   UNL     1       5.668   4.607  19.611  0.00  0.00    +0.000 N 
ATOM      9  C   UNL     1       5.261   4.579  17.193  0.00  0.00    +0.000 A 
ATOM     10  H   UNL     1       8.311   7.851  16.198  0.00  0.00    +0.000 HD
ATOM     11  H   UNL     1       8.370   7.846  17.934  0.00  0.00    +0.000 HD
ATOM     12  H   UNL     1       6.302   5.129  20.213  0.00  0.00    +0.000 HD
ATOM     13  H   UNL     1       4.711   4.786  19.892  0.00  0.00    +0.000 HD
ENDROOT
BRANCH   9  14
ATOM     14  C   UNL     1       3.951   3.791  17.175  0.00  0.00    +0.000 C 
ATOM     15  C   UNL     1       2.867   4.777  17.672  0.00  0.00    +0.000 C 
ATOM     16  C   UNL     1       1.458   4.196  17.683  0.00  0.00    +0.000 C 
ATOM     17  C   UNL     1       1.408   2.886  18.449  0.00  0.00    +0.000 C 
ATOM     18  C   UNL     1       2.409   1.885  17.878  0.00  0.00    +0.000 C 
ATOM     19  C   UNL     1       3.839   2.442  17.918  0.00  0.00    +0.000 C 
ENDBRANCH   9  14
TORSDOF 1
ENDMDL
MODEL 3
REMARK VINA RESULT:      -7.1      2.466      5.075
REMARK  Name = 
REMARK  2 active torsions:
REMARK  status: ('A' for Active; 'I' for Inactive)
REMARK    1  A    between atoms: C_1  and  C_2
REMARK    2  A    between atoms: C_9  and  C_10
REMARK                            x       y       z     vdW  Elec       q    Type
REMARK                         _______ _______ _______ _____ _____    ______ ____
ROOT
ATOM      1  C   UNL     1       2.600   6.862  19.166  0.00  0.00    +0.000 C 
ATOM      2  C   UNL     1       2.811   5.412  19.505  0.00  0.00    +0.000 A 
ATOM      3  N   UNL     1       1.788   4.845  20.177  0.00  0.00    +0.000 NA
ATOM      4  C   UNL     1       1.923   3.564  20.516  0.00  0.00    +0.000 A 
ATOM      5  N   UNL     1       0.812   2.909  20.997  0.00  0.00    +0.000 N 
ATOM      6  N   UNL     1       3.045   2.873  20.386  0.00  0.00    +0.000 NA
ATOM      7  C   UNL     1       4.046   3.443  19.701  0.00  0.00    +0.000 A 
ATOM      8  N   UNL     1       5.158   2.615  19.602  0.00  0.00    +0.000 N 
ATOM      9  C   UNL     1       3.965   4.705  19.130  0.00  0.00    +0.000 A 
ATOM     10  H   UNL     1       0.155   3.558  21.404  0.00  0.00    +0.000 HD
ATOM     11  H   UNL     1       1.077   2.090  21.520  0.00  0.00    +0.000 HD
ATOM     12  H   UNL     1       4.929   1.778  20.135  0.00  0.00    +0.000 HD
ATOM     13  H   UNL     1       5.345   2.363  18.639  0.00  0.00    +0.000 HD
ENDROOT
BRANCH   9  14
ATOM     14  C   UNL     1       4.855   5.246  18.012  0.00  0.00    +0.000 C 
ATOM     15  C   UNL     1       4.628   4.302  16.807  0.00  0.00    +0.000 C 
ATOM     16  C   UNL     1       5.397   4.701  15.553  0.00  0.00    +0.000 C 
ATOM     17  C   UNL     1       6.877   4.877  15.846  0.00  0.00    +0.000 C 
ATOM     18  C   UNL     1       7.090   5.893  16.966  0.00  0.00    +0.000 C 
ATOM     19  C   UNL     1       6.365   5.467  18.250  0.00  0.00    +0.000 C 
ENDBRANCH   9  14
TORSDOF 1
ENDMDL
MODEL 4
REMARK VINA RESULT:      -7.0      1.435      1.482
REMARK  Name = 
REMARK  2 active torsions:
REMARK  status: ('A' for Active; 'I' for Inactive)
REMARK    1  A    between atoms: C_1  and  C_2
REMARK    2  A    between atoms: C_9  and  C_10
REMARK                            x       y       z     vdW  Elec       q    Type
REMARK                         _______ _______ _______ _____ _____    ______ ____
ROOT
ATOM      1  C   UNL     1       3.876   7.012  17.095  0.00  0.00    +0.000 C 
ATOM      2  C   UNL     1       4.807   6.114  17.861  0.00  0.00    +0.000 A 
ATOM      3  N   UNL     1       6.059   6.597  17.994  0.00  0.00    +0.000 NA
ATOM      4  C   UNL     1       6.933   5.839  18.655  0.00  0.00    +0.000 A 
ATOM      5  N   UNL     1       8.141   6.404  18.995  0.00  0.00    +0.000 N 
ATOM      6  N   UNL     1       6.700   4.591  19.034  0.00  0.00    +0.000 NA
ATOM      7  C   UNL     1       5.448   4.132  18.910  0.00  0.00    +0.000 A 
ATOM      8  N   UNL     1       5.317   2.825  19.368  0.00  0.00    +0.000 N 
ATOM      9  C   UNL     1       4.397   4.888  18.411  0.00  0.00    +0.000 A 
ATOM     10  H   UNL     1       8.375   7.165  18.375  0.00  0.00    +0.000 HD
ATOM     11  H   UNL     1       8.831   5.693  19.177  0.00  0.00    +0.000 HD
ATOM     12  H   UNL     1       6.252   2.533  19.645  0.00  0.00    +0.000 HD
ATOM     13  H   UNL     1       4.695   2.775  20.166  0.00  0.00    +0.000 HD
ENDROOT
BRANCH   9  14
ATOM     14  C   UNL     1       2.909   4.612  18.623  0.00  0.00    +0.000 C 
ATOM     15  C   UNL     1       2.676   4.736  20.148  0.00  0.00    +0.000 C 
ATOM     16  C   UNL     1       1.225   4.544  20.572  0.00  0.00    +0.000 C 
ATOM     17  C   UNL     1       0.661   3.242  20.030  0.00  0.00    +0.000 C 
ATOM     18  C   UNL     1       0.801   3.181  18.511  0.00  0.00    +0.000 C 
ATOM     19  C   UNL     1       2.268   3.316  18.081  0.00  0.00    +0.000 C 
ENDBRANCH   9  14
TORSDOF 1
ENDMDL
MODEL 5
REMARK VINA RESULT:      -6.9      2.617      5.377
REMARK  Name = 
REMARK  2 active torsions:
REMARK  status: ('A' for Active; 'I' for Inactive)
REMARK    1  A    between atoms: C_1  and  C_2
REMARK    2  A    between atoms: C_9  and  C_10
REMARK                            x       y       z     vdW  Elec       q    Type
REMARK                         _______ _______ _______ _____ _____    ______ ____
ROOT
ATOM      1  C   UNL     1       3.106   2.101  17.788  0.00  0.00    +0.000 C 
ATOM      2  C   UNL     1       2.813   3.006  18.953  0.00  0.00    +0.000 A 
ATOM      3  N   UNL     1       2.167   2.404  19.973  0.00  0.00    +0.000 NA
ATOM      4  C   UNL     1       1.869   3.159  21.030  0.00  0.00    +0.000 A 
ATOM      5  N   UNL     1       1.416   2.523  22.163  0.00  0.00    +0.000 N 
ATOM      6  N   UNL     1       2.013   4.475  21.070  0.00  0.00    +0.000 NA
ATOM      7  C   UNL     1       2.672   5.055  20.058  0.00  0.00    +0.000 A 
ATOM      8  N   UNL     1       2.789   6.431  20.222  0.00  0.00    +0.000 N 
ATOM      9  C   UNL     1       3.202   4.355  18.984  0.00  0.00    +0.000 A 
ATOM     10  H   UNL     1       0.994   1.635  21.938  0.00  0.00    +0.000 HD
ATOM     11  H   UNL     1       0.918   3.164  22.760  0.00  0.00    +0.000 HD
ATOM     12  H   UNL     1       2.285   6.651  21.080  0.00  0.00    +0.000 HD
ATOM     13  H   UNL     1       3.759   6.709  20.318  0.00  0.00    +0.000 HD
ENDROOT
BRANCH   9  14
ATOM     14  C   UNL     1       4.296   4.849  18.038  0.00  0.00    +0.000 C 
ATOM     15  C   UNL     1       5.598   4.854  18.875  0.00  0.00    +0.000 C 
ATOM     16  C   UNL     1       6.837   5.273  18.093  0.00  0.00    +0.000 C 
ATOM     17  C   UNL     1       6.623   6.606  17.395  0.00  0.00    +0.000 C 
ATOM     18  C   UNL     1       5.395   6.552  16.490  0.00  0.00    +0.000 C 
ATOM     19  C   UNL     1       4.133   6.186  17.282  0.00  0.00    +0.000 C 
ENDBRANCH   9  14
TORSDOF 1
ENDMDL
MODEL 6
REMARK VINA RESULT:      -6.8      2.623      4.991
REMARK  Name = 
REMARK  2 active torsions:
REMARK  status: ('A' for Active; 'I' for Inactive)
REMARK    1  A    between atoms: C_1  and  C_2
REMARK    2  A    between atoms: C_9  and  C_10
REMARK                            x       y       z     vdW  Elec       q    Type
REMARK                         _______ _______ _______ _____ _____    ______ ____
ROOT
ATOM      1  C   UNL     1       3.198   6.574  18.914  0.00  0.00    +0.000 C 
ATOM      2  C   UNL     1       3.117   5.118  19.282  0.00  0.00    +0.000 A 
ATOM      3  N   UNL     1       1.891   4.712  19.670  0.00  0.00    +0.000 NA
ATOM      4  C   UNL     1       1.760   3.433  20.020  0.00  0.00    +0.000 A 
ATOM      5  N   UNL     1       0.485   2.946  20.201  0.00  0.00    +0.000 N 
ATOM      6  N   UNL     1       2.774   2.593  20.170  0.00  0.00    +0.000 NA
ATOM      7  C   UNL     1       3.982   3.006  19.764  0.00  0.00    +0.000 A 
ATOM      8  N   UNL     1       4.959   2.033  19.940  0.00  0.00    +0.000 N 
ATOM      9  C   UNL     1       4.220   4.252  19.202  0.00  0.00    +0.000 A 
ATOM     10  H   UNL     1      -0.158   3.688  20.435  0.00  0.00    +0.000 HD
ATOM     11  H   UNL     1       0.496   2.113  20.766  0.00  0.00    +0.000 HD
ATOM     12  H   UNL     1       4.492   1.249  20.391  0.00  0.00    +0.000 HD
ATOM     13  H   UNL     1       5.345   1.734  19.052  0.00  0.00    +0.000 HD
ENDROOT
BRANCH   9  14
ATOM     14  C   UNL     1       5.427   4.640  18.348  0.00  0.00    +0.000 C 
ATOM     15  C   UNL     1       6.343   5.473  19.276  0.00  0.00    +0.000 C 
ATOM     16  C   UNL     1       7.645   5.922  18.623  0.00  0.00    +0.000 C 
ATOM     17  C   UNL     1       7.383   6.643  17.312  0.00  0.00    +0.000 C 
ATOM     18  C   UNL     1       6.568   5.766  16.365  0.00  0.00    +0.000 C 
ATOM     19  C   UNL     1       5.230   5.358  16.995  0.00  0.00    +0.000 C 
ENDBRANCH   9  14
TORSDOF 1
ENDMDL
MODEL 7
REMARK VINA RESULT:      -6.7      2.721      5.039
REMARK  Name = 
REMARK  2 active torsions:
REMARK  status: ('A' for Active; 'I' for Inactive)
REMARK    1  A    between atoms: C_1  and  C_2
REMARK    2  A    between atoms: C_9  and  C_10
REMARK                            x       y       z     vdW  Elec       q    Type
REMARK                         _______ _______ _______ _____ _____    ______ ____
ROOT
ATOM      1  C   UNL     1       3.199   5.940  18.212  0.00  0.00    +0.000 C 
ATOM      2  C   UNL     1       3.192   4.657  18.996  0.00  0.00    +0.000 A 
ATOM      3  N   UNL     1       2.091   4.477  19.754  0.00  0.00    +0.000 NA
ATOM      4  C   UNL     1       2.032   3.363  20.482  0.00  0.00    +0.000 A 
ATOM      5  N   UNL     1       0.833   3.052  21.082  0.00  0.00    +0.000 N 
ATOM      6  N   UNL     1       3.042   2.519  20.635  0.00  0.00    +0.000 NA
ATOM      7  C   UNL     1       4.122   2.701  19.863  0.00  0.00    +0.000 A 
ATOM      8  N   UNL     1       5.101   1.740  20.089  0.00  0.00    +0.000 N 
ATOM      9  C   UNL     1       4.233   3.717  18.924  0.00  0.00    +0.000 A 
ATOM     10  H   UNL     1       0.275   3.880  21.229  0.00  0.00    +0.000 HD
ATOM     11  H   UNL     1       0.970   2.412  21.847  0.00  0.00    +0.000 HD
ATOM     12  H   UNL     1       4.746   1.154  20.842  0.00  0.00    +0.000 HD
ATOM     13  H   UNL     1       5.258   1.174  19.263  0.00  0.00    +0.000 HD
ENDROOT
BRANCH   9  14
ATOM     14  C   UNL     1       5.203   3.749  17.743  0.00  0.00    +0.000 C 
ATOM     15  C   UNL     1       6.343   4.705  18.169  0.00  0.00    +0.000 C 
ATOM     16  C   UNL     1       7.456   4.841  17.137  0.00  0.00    +0.000 C 
ATOM     17  C   UNL     1       6.901   5.214  15.773  0.00  0.00    +0.000 C 
ATOM     18  C   UNL     1       5.852   4.202  15.319  0.00  0.00    +0.000 C 
ATOM     19  C   UNL     1       4.700   4.103  16.326  0.00  0.00    +0.000 C 
ENDBRANCH   9  14
TORSDOF 1
ENDMDL
MODEL 8
REMARK VINA RESULT:      -6.7      1.745      2.441
REMARK  Name = 
REMARK  2 active torsions:
REMARK  status: ('A' for Active; 'I' for Inactive)
REMARK    1  A    between atoms: C_1  and  C_2
REMARK    2  A    between atoms: C_9  and  C_10
REMARK                            x       y       z     vdW  Elec       q    Type
REMARK                         _______ _______ _______ _____ _____    ______ ____
ROOT
ATOM      1  C   UNL     1       3.478   3.318  16.842  0.00  0.00    +0.000 C 
ATOM      2  C   UNL     1       4.790   3.994  17.133  0.00  0.00    +0.000 A 
ATOM      3  N   UNL     1       5.562   4.198  16.046  0.00  0.00    +0.000 NA
ATOM      4  C   UNL     1       6.743   4.783  16.244  0.00  0.00    +0.000 A 
ATOM      5  N   UNL     1       7.442   5.202  15.136  0.00  0.00    +0.000 N 
ATOM      6  N   UNL     1       7.268   5.017  17.437  0.00  0.00    +0.000 NA
ATOM      7  C   UNL     1       6.483   4.825  18.506  0.00  0.00    +0.000 A 
ATOM      8  N   UNL     1       7.129   5.131  19.698  0.00  0.00    +0.000 N 
ATOM      9  C   UNL     1       5.165   4.398  18.425  0.00  0.00    +0.000 A 
ATOM     10  H   UNL     1       7.178   4.674  14.317  0.00  0.00    +0.000 HD
ATOM     11  H   UNL     1       8.420   5.314  15.350  0.00  0.00    +0.000 HD
ATOM     12  H   UNL     1       8.080   5.388  19.440  0.00  0.00    +0.000 HD
ATOM     13  H   UNL     1       6.683   5.910  20.168  0.00  0.00    +0.000 HD
ENDROOT
BRANCH   9  14
ATOM     14  C   UNL     1       4.100   4.555  19.509  0.00  0.00    +0.000 C 
ATOM     15  C   UNL     1       3.715   3.115  19.926  0.00  0.00    +0.000 C 
ATOM     16  C   UNL     1       2.686   3.048  21.048  0.00  0.00    +0.000 C 
ATOM     17  C   UNL     1       1.456   3.876  20.718  0.00  0.00    +0.000 C 
ATOM     18  C   UNL     1       1.841   5.321  20.413  0.00  0.00    +0.000 C 
ATOM     19  C   UNL     1       2.833   5.399  19.245  0.00  0.00    +0.000 C 
ENDBRANCH   9  14
TORSDOF 1
ENDMDL
MODEL 9
REMARK VINA RESULT:      -6.6      2.713      5.069
REMARK  Name = 
REMARK  2 active torsions:
REMARK  status: ('A' for Active; 'I' for Inactive)
REMARK    1  A    between atoms: C_1  and  C_2
REMARK    2  A    between atoms: C_9  and  C_10
REMARK                            x       y       z     vdW  Elec       q    Type
REMARK                         _______ _______ _______ _____ _____    ______ ____
ROOT
ATOM      1  C   UNL     1       2.278   6.142  18.142  0.00  0.00    +0.000 C 
ATOM      2  C   UNL     1       2.495   4.702  18.520  0.00  0.00    +0.000 A 
ATOM      3  N   UNL     1       1.369   3.961  18.548  0.00  0.00    +0.000 NA
ATOM      4  C   UNL     1       1.497   2.679  18.888  0.00  0.00    +0.000 A 
ATOM      5  N   UNL     1       0.408   1.857  18.708  0.00  0.00    +0.000 N 
ATOM      6  N   UNL     1       2.613   2.140  19.355  0.00  0.00    +0.000 NA
ATOM      7  C   UNL     1       3.726   2.884  19.304  0.00  0.00    +0.000 A 
ATOM      8  N   UNL     1       4.838   2.205  19.791  0.00  0.00    +0.000 N 
ATOM      9  C   UNL     1       3.767   4.174  18.795  0.00  0.00    +0.000 A 
ATOM     10  H   UNL     1      -0.452   2.385  18.719  0.00  0.00    +0.000 HD
ATOM     11  H   UNL     1       0.483   1.032  19.280  0.00  0.00    +0.000 HD
ATOM     12  H   UNL     1       4.494   1.303  20.112  0.00  0.00    +0.000 HD
ATOM     13  H   UNL     1       5.531   2.065  19.064  0.00  0.00    +0.000 HD
ENDROOT
BRANCH   9  14
ATOM     14  C   UNL     1       5.015   4.914  18.316  0.00  0.00    +0.000 C 
ATOM     15  C   UNL     1       5.500   4.144  17.064  0.00  0.00    +0.000 C 
ATOM     16  C   UNL     1       6.723   4.758  16.394  0.00  0.00    +0.000 C 
ATOM     17  C   UNL     1       7.852   4.963  17.389  0.00  0.00    +0.000 C 
ATOM     18  C   UNL     1       7.388   5.815  18.568  0.00  0.00    +0.000 C 
ATOM     19  C   UNL     1       6.191   5.173  19.283  0.00  0.00    +0.000 C 
ENDBRANCH   9  14
TORSDOF 1
ENDMDL
