MODEL 1
REMARK VINA RESULT:      -7.8      0.000      0.000
REMARK  Name = 
REMARK  11 active torsions:
REMARK  status: ('A' for Active; 'I' for Inactive)
REMARK    1  A    between atoms: C_1  and  C_2
REMARK    2  A    between atoms: C_2  and  C_3
REMARK    3  A    between atoms: C_3  and  C_4
REMARK    4  A    between atoms: C_4  and  O_5
REMARK    5  A    between atoms: C_4  and  C_10
REMARK    6  A    between atoms: O_5  and  P_6
REMARK    7  A    between atoms: P_6  and  O_8
REMARK    8  A    between atoms: P_6  and  O_9
REMARK    9  A    between atoms: C_12  and  N_13
REMARK   10  A    between atoms: C_23  and  O_24
REMARK   11  A    between atoms: C_25  and  O_26
REMARK                            x       y       z     vdW  Elec       q    Type
REMARK                         _______ _______ _______ _____ _____    ______ ____
ROOT
ATOM      1  C   UNL     1       5.144   4.540  18.683  0.00  0.00    +0.000 C 
ATOM      2  O   UNL     1       4.501   5.660  19.330  0.00  0.00    +0.000 OA
ATOM      3  C   UNL     1       3.096   5.635  19.004  0.00  0.00    +0.000 C 
ATOM      4  C   UNL     1       2.890   4.604  17.891  0.00  0.00    +0.000 C 
ATOM      5  C   UNL     1       4.024   3.636  18.175  0.00  0.00    +0.000 C 
ENDROOT
BRANCH   3   6
ATOM      6  N   UNL     1       2.653   6.971  18.702  0.00  0.00    +0.000 N 
ATOM      7  C   UNL     1       2.918   7.625  17.510  0.00  0.00    +0.000 A 
ATOM      8  N   UNL     1       2.398   8.829  17.477  0.00  0.00    +0.000 NA
ATOM      9  C   UNL     1       1.779   8.973  18.693  0.00  0.00    +0.000 A 
ATOM     10  C   UNL     1       1.046  10.033  19.252  0.00  0.00    +0.000 A 
ATOM     11  N   UNL     1       0.803  11.223  18.576  0.00  0.00    +0.000 N 
ATOM     12  N   UNL     1       0.581   9.911  20.511  0.00  0.00    +0.000 NA
ATOM     13  C   UNL     1       0.824   8.749  21.164  0.00  0.00    +0.000 A 
ATOM     14  N   UNL     1       1.493   7.658  20.735  0.00  0.00    +0.000 NA
ATOM     15  C   UNL     1       1.944   7.847  19.471  0.00  0.00    +0.000 A 
ATOM     16  H   UNL     1       1.457  11.387  17.809  0.00  0.00    +0.000 HD
ATOM     17  H   UNL     1       0.626  11.993  19.205  0.00  0.00    +0.000 HD
ENDBRANCH   3   6
BRANCH   4  18
ATOM     18  O   UNL     1       1.621   3.956  17.986  0.00  0.00    +0.000 OA
ATOM     19  H   UNL     1       1.648   3.218  17.339  0.00  0.00    +0.000 HD
ENDBRANCH   4  18
BRANCH   5  20
ATOM     20  O   UNL     1       3.570   2.731  19.210  0.00  0.00    +0.000 OA
ATOM     21  H   UNL     1       2.830   3.138  19.695  0.00  0.00    +0.000 HD
ENDBRANCH   5  20
BRANCH   1  22
ATOM     22  C   UNL     1       6.112   5.028  17.580  0.00  0.00    +0.000 C 
BRANCH  22  23
ATOM     23  C   UNL     1       7.543   5.203  18.145  0.00  0.00    +0.000 C 
BRANCH  23  25
ATOM     24  C   UNL     1       7.678   7.694  17.589  0.00  0.00    +0.000 C 
ATOM     25  C   UNL     1       7.910   6.610  18.628  0.00  0.00    +0.000 C 
ENDBRANCH  23  25
ENDBRANCH  22  23
BRANCH  22  26
ATOM     26  O   UNL     1       6.078   4.127  16.468  0.00  0.00    +0.000 OA
BRANCH  26  27
ATOM     27  P   UNL     1       6.817   4.751  15.034  0.00  0.00    +0.000 P 
ATOM     28  O   UNL     1       6.126   3.708  14.163  0.00  0.00    +0.000 OA
BRANCH  27  29
ATOM     29  O   UNL     1       5.813   6.024  15.065  0.00  0.00    +0.000 OA
ATOM     30  H   UNL     1       4.934   5.758  14.746  0.00  0.00    +0.000 HD
ENDBRANCH  27  29
BRANCH  27  31
ATOM     31  O   UNL     1       7.556   5.374  13.599  0.00  0.00    +0.000 OA
ATOM     32  H   UNL     1       8.508   5.166  13.698  0.00  0.00    +0.000 HD
ENDBRANCH  27  31
ENDBRANCH  26  27
ENDBRANCH  22  26
ENDBRANCH   1  22
TORSDOF 10
ENDMDL
MODEL 2
REMARK VINA RESULT:      -7.3      1.010      1.973
REMARK  Name = 
REMARK  11 active torsions:
REMARK  status: ('A' for Active; 'I' for Inactive)
REMARK    1  A    between atoms: C_1  and  C_2
REMARK    2  A    between atoms: C_2  and  C_3
REMARK    3  A    between atoms: C_3  and  C_4
REMARK    4  A    between atoms: C_4  and  O_5
REMARK    5  A    between atoms: C_4  and  C_10
REMARK    6  A    between atoms: O_5  and  P_6
REMARK    7  A    between atoms: P_6  and  O_8
REMARK    8  A    between atoms: P_6  and  O_9
REMARK    9  A    between atoms: C_12  and  N_13
REMARK   10  A    between atoms: C_23  and  O_24
REMARK   11  A    between atoms: C_25  and  O_26
REMARK                            x       y       z     vdW  Elec       q    Type
REMARK                         _______ _______ _______ _____ _____    ______ ____
ROOT
ATOM      1  C   UNL     1       5.168   3.577  18.472  0.00  0.00    +0.000 C 
ATOM      2  O   UNL     1       4.583   4.300  19.576  0.00  0.00    +0.000 OA
ATOM      3  C   UNL     1       3.149   4.159  19.510  0.00  0.00    +0.000 C 
ATOM      4  C   UNL     1       2.801   3.537  18.155  0.00  0.00    +0.000 C 
ATOM      5  C   UNL     1       4.052   2.724  17.876  0.00  0.00    +0.000 C 
ENDROOT
BRANCH   3   6
ATOM      6  N   UNL     1       2.531   5.431  19.785  0.00  0.00    +0.000 N 
ATOM      7  C   UNL     1       1.741   5.686  20.893  0.00  0.00    +0.000 A 
ATOM      8  N   UNL     1       1.305   6.923  20.919  0.00  0.00    +0.000 NA
ATOM      9  C   UNL     1       1.819   7.496  19.783  0.00  0.00    +0.000 A 
ATOM     10  C   UNL     1       1.712   8.794  19.257  0.00  0.00    +0.000 A 
ATOM     11  N   UNL     1       0.998   9.808  19.885  0.00  0.00    +0.000 N 
ATOM     12  N   UNL     1       2.298   9.068  18.075  0.00  0.00    +0.000 NA
ATOM     13  C   UNL     1       2.990   8.074  17.467  0.00  0.00    +0.000 A 
ATOM     14  N   UNL     1       3.181   6.801  17.873  0.00  0.00    +0.000 NA
ATOM     15  C   UNL     1       2.559   6.585  19.058  0.00  0.00    +0.000 A 
ATOM     16  H   UNL     1       0.311   9.457  20.554  0.00  0.00    +0.000 HD
ATOM     17  H   UNL     1       0.692  10.520  19.238  0.00  0.00    +0.000 HD
ENDBRANCH   3   6
BRANCH   4  18
ATOM     18  O   UNL     1       1.646   2.698  18.229  0.00  0.00    +0.000 OA
ATOM     19  H   UNL     1       1.419   2.473  17.301  0.00  0.00    +0.000 HD
ENDBRANCH   4  18
BRANCH   5  20
ATOM     20  O   UNL     1       3.918   1.467  18.581  0.00  0.00    +0.000 OA
ATOM     21  H   UNL     1       3.059   1.443  19.039  0.00  0.00    +0.000 HD
ENDBRANCH   5  20
BRANCH   1  22
ATOM     22  C   UNL     1       5.826   4.552  17.467  0.00  0.00    +0.000 C 
BRANCH  22  23
ATOM     23  C   UNL     1       7.307   4.805  17.839  0.00  0.00    +0.000 C 
BRANCH  23  25
ATOM     24  C   UNL     1       7.690   7.331  17.780  0.00  0.00    +0.000 C 
ATOM     25  C   UNL     1       7.594   6.081  18.637  0.00  0.00    +0.000 C 
ENDBRANCH  23  25
ENDBRANCH  22  23
BRANCH  22  26
ATOM     26  O   UNL     1       5.683   4.048  16.135  0.00  0.00    +0.000 OA
BRANCH  26  27
ATOM     27  P   UNL     1       6.754   4.776  14.989  0.00  0.00    +0.000 P 
ATOM     28  O   UNL     1       6.252   3.873  13.868  0.00  0.00    +0.000 OA
BRANCH  27  29
ATOM     29  O   UNL     1       5.813   6.096  14.939  0.00  0.00    +0.000 OA
ATOM     30  H   UNL     1       4.888   5.834  14.789  0.00  0.00    +0.000 HD
ENDBRANCH  27  29
BRANCH  27  31
ATOM     31  O   UNL     1       7.826   5.504  13.842  0.00  0.00    +0.000 OA
ATOM     32  H   UNL     1       8.696   5.524  14.292  0.00  0.00    +0.000 HD
ENDBRANCH  27  31
ENDBRANCH  26  27
ENDBRANCH  22  26
ENDBRANCH   1  22
TORSDOF 10
ENDMDL
MODEL 3
REMARK VINA RESULT:      -7.2      1.805      2.332
REMARK  Name = 
REMARK  11 active torsions:
REMARK  status: ('A' for Active; 'I' for Inactive)
REMARK    1  A    between atoms: C_1  and  C_2
REMARK    2  A    between atoms: C_2  and  C_3
REMARK    3  A    between atoms: C_3  and  C_4
REMARK    4  A    between atoms: C_4  and  O_5
REMARK    5  A    between atoms: C_4  and  C_10
REMARK    6  A    between atoms: O_5  and  P_6
REMARK    7  A    between atoms: P_6  and  O_8
REMARK    8  A    between atoms: P_6  and  O_9
REMARK    9  A    between atoms: C_12  and  N_13
REMARK   10  A    between atoms: C_23  and  O_24
REMARK   11  A    between atoms: C_25  and  O_26
REMARK                            x       y       z     vdW  Elec       q    Type
REMARK                         _______ _______ _______ _____ _____    ______ ____
ROOT
ATOM      1  C   UNL     1       4.661   4.044  18.651  0.00  0.00    +0.000 C 
ATOM      2  O   UNL     1       4.126   5.216  19.301  0.00  0.00    +0.000 OA
ATOM      3  C   UNL     1       2.747   5.373  18.905  0.00  0.00    +0.000 C 
ATOM      4  C   UNL     1       2.477   4.405  17.750  0.00  0.00    +0.000 C 
ATOM      5  C   UNL     1       3.468   3.298  18.059  0.00  0.00    +0.000 C 
ENDROOT
BRANCH   3   6
ATOM      6  N   UNL     1       2.487   6.762  18.624  0.00  0.00    +0.000 N 
ATOM      7  C   UNL     1       2.825   7.390  17.437  0.00  0.00    +0.000 A 
ATOM      8  N   UNL     1       2.473   8.654  17.425  0.00  0.00    +0.000 NA
ATOM      9  C   UNL     1       1.893   8.864  18.651  0.00  0.00    +0.000 A 
ATOM     10  C   UNL     1       1.318  10.006  19.233  0.00  0.00    +0.000 A 
ATOM     11  N   UNL     1       1.232  11.227  18.574  0.00  0.00    +0.000 N 
ATOM     12  N   UNL     1       0.855   9.931  20.496  0.00  0.00    +0.000 NA
ATOM     13  C   UNL     1       0.945   8.738  21.132  0.00  0.00    +0.000 A 
ATOM     14  N   UNL     1       1.455   7.572  20.681  0.00  0.00    +0.000 NA
ATOM     15  C   UNL     1       1.913   7.715  19.414  0.00  0.00    +0.000 A 
ATOM     16  H   UNL     1       1.893  11.311  17.800  0.00  0.00    +0.000 HD
ATOM     17  H   UNL     1       1.168  12.006  19.215  0.00  0.00    +0.000 HD
ENDBRANCH   3   6
BRANCH   4  18
ATOM     18  O   UNL     1       1.135   3.916  17.761  0.00  0.00    +0.000 OA
ATOM     19  H   UNL     1       1.012   3.453  16.905  0.00  0.00    +0.000 HD
ENDBRANCH   4  18
BRANCH   5  20
ATOM     20  O   UNL     1       2.853   2.429  19.040  0.00  0.00    +0.000 OA
ATOM     21  H   UNL     1       2.779   1.529  18.675  0.00  0.00    +0.000 HD
ENDBRANCH   5  20
BRANCH   1  22
ATOM     22  C   UNL     1       5.738   4.437  17.613  0.00  0.00    +0.000 C 
BRANCH  22  23
ATOM     23  C   UNL     1       5.464   3.753  16.252  0.00  0.00    +0.000 C 
BRANCH  23  25
ATOM     24  C   UNL     1       6.690   4.540  14.152  0.00  0.00    +0.000 C 
ATOM     25  C   UNL     1       5.454   4.671  15.026  0.00  0.00    +0.000 C 
ENDBRANCH  23  25
ENDBRANCH  22  23
BRANCH  22  26
ATOM     26  O   UNL     1       5.804   5.863  17.496  0.00  0.00    +0.000 OA
BRANCH  26  27
ATOM     27  P   UNL     1       7.213   6.562  18.215  0.00  0.00    +0.000 P 
ATOM     28  O   UNL     1       7.814   5.190  18.497  0.00  0.00    +0.000 OA
BRANCH  27  29
ATOM     29  O   UNL     1       7.760   6.984  16.748  0.00  0.00    +0.000 OA
ATOM     30  H   UNL     1       8.619   7.431  16.834  0.00  0.00    +0.000 HD
ENDBRANCH  27  29
BRANCH  27  31
ATOM     31  O   UNL     1       8.623   7.262  18.935  0.00  0.00    +0.000 OA
ATOM     32  H   UNL     1       9.360   6.677  18.661  0.00  0.00    +0.000 HD
ENDBRANCH  27  31
ENDBRANCH  26  27
ENDBRANCH  22  26
ENDBRANCH   1  22
TORSDOF 10
ENDMDL
MODEL 4
REMARK VINA RESULT:      -7.1      0.761      1.105
REMARK  Name = 
REMARK  11 active torsions:
REMARK  status: ('A' for Active; 'I' for Inactive)
REMARK    1  A    between atoms: C_1  and  C_2
REMARK    2  A    between atoms: C_2  and  C_3
REMARK    3  A    between atoms: C_3  and  C_4
REMARK    4  A    between atoms: C_4  and  O_5
REMARK    5  A    between atoms: C_4  and  C_10
REMARK    6  A    between atoms: O_5  and  P_6
REMARK    7  A    between atoms: P_6  and  O_8
REMARK    8  A    between atoms: P_6  and  O_9
REMARK    9  A    between atoms: C_12  and  N_13
REMARK   10  A    between atoms: C_23  and  O_24
REMARK   11  A    between atoms: C_25  and  O_26
REMARK                            x       y       z     vdW  Elec       q    Type
REMARK                         _______ _______ _______ _____ _____    ______ ____
ROOT
ATOM      1  C   UNL     1       5.368   5.154  18.919  0.00  0.00    +0.000 C 
ATOM      2  O   UNL     1       4.609   6.227  19.515  0.00  0.00    +0.000 OA
ATOM      3  C   UNL     1       3.211   6.019  19.225  0.00  0.00    +0.000 C 
ATOM      4  C   UNL     1       3.110   4.907  18.177  0.00  0.00    +0.000 C 
ATOM      5  C   UNL     1       4.354   4.096  18.490  0.00  0.00    +0.000 C 
ENDROOT
BRANCH   3   6
ATOM      6  N   UNL     1       2.609   7.275  18.857  0.00  0.00    +0.000 N 
ATOM      7  C   UNL     1       2.787   7.890  17.629  0.00  0.00    +0.000 A 
ATOM      8  N   UNL     1       2.126   9.020  17.538  0.00  0.00    +0.000 NA
ATOM      9  C   UNL     1       1.500   9.154  18.752  0.00  0.00    +0.000 A 
ATOM     10  C   UNL     1       0.648  10.147  19.262  0.00  0.00    +0.000 A 
ATOM     11  N   UNL     1       0.261  11.261  18.527  0.00  0.00    +0.000 N 
ATOM     12  N   UNL     1       0.208  10.039  20.531  0.00  0.00    +0.000 NA
ATOM     13  C   UNL     1       0.593   8.952  21.243  0.00  0.00    +0.000 A 
ATOM     14  N   UNL     1       1.386   7.927  20.864  0.00  0.00    +0.000 NA
ATOM     15  C   UNL     1       1.805   8.099  19.587  0.00  0.00    +0.000 A 
ATOM     16  H   UNL     1       0.886  11.460  17.744  0.00  0.00    +0.000 HD
ATOM     17  H   UNL     1      -0.005  12.038  19.116  0.00  0.00    +0.000 HD
ENDBRANCH   3   6
BRANCH   4  18
ATOM     18  O   UNL     1       1.927   4.122  18.339  0.00  0.00    +0.000 OA
ATOM     19  H   UNL     1       1.194   4.764  18.460  0.00  0.00    +0.000 HD
ENDBRANCH   4  18
BRANCH   5  20
ATOM     20  O   UNL     1       4.027   3.208  19.585  0.00  0.00    +0.000 OA
ATOM     21  H   UNL     1       4.798   3.123  20.175  0.00  0.00    +0.000 HD
ENDBRANCH   5  20
BRANCH   1  22
ATOM     22  C   UNL     1       6.253   5.684  17.767  0.00  0.00    +0.000 C 
BRANCH  22  23
ATOM     23  C   UNL     1       7.385   6.587  18.317  0.00  0.00    +0.000 C 
BRANCH  23  25
ATOM     24  C   UNL     1       8.430   8.919  18.294  0.00  0.00    +0.000 C 
ATOM     25  C   UNL     1       7.697   7.848  17.505  0.00  0.00    +0.000 C 
ENDBRANCH  23  25
ENDBRANCH  22  23
BRANCH  22  26
ATOM     26  O   UNL     1       6.763   4.588  17.000  0.00  0.00    +0.000 OA
BRANCH  26  27
ATOM     27  P   UNL     1       6.205   4.556  15.363  0.00  0.00    +0.000 P 
ATOM     28  O   UNL     1       7.555   5.032  14.839  0.00  0.00    +0.000 OA
BRANCH  27  29
ATOM     29  O   UNL     1       6.285   2.936  15.362  0.00  0.00    +0.000 OA
ATOM     30  H   UNL     1       6.437   2.616  14.457  0.00  0.00    +0.000 HD
ENDBRANCH  27  29
BRANCH  27  31
ATOM     31  O   UNL     1       5.646   4.524  13.726  0.00  0.00    +0.000 OA
ATOM     32  H   UNL     1       6.237   5.143  13.249  0.00  0.00    +0.000 HD
ENDBRANCH  27  31
ENDBRANCH  26  27
ENDBRANCH  22  26
ENDBRANCH   1  22
TORSDOF 10
ENDMDL
MODEL 5
REMARK VINA RESULT:      -7.0      1.091      2.096
REMARK  Name = 
REMARK  11 active torsions:
REMARK  status: ('A' for Active; 'I' for Inactive)
REMARK    1  A    between atoms: C_1  and  C_2
REMARK    2  A    between atoms: C_2  and  C_3
REMARK    3  A    between atoms: C_3  and  C_4
REMARK    4  A    between atoms: C_4  and  O_5
REMARK    5  A    between atoms: C_4  and  C_10
REMARK    6  A    between atoms: O_5  and  P_6
REMARK    7  A    between atoms: P_6  and  O_8
REMARK    8  A    between atoms: P_6  and  O_9
REMARK    9  A    between atoms: C_12  and  N_13
REMARK   10  A    between atoms: C_23  and  O_24
REMARK   11  A    between atoms: C_25  and  O_26
REMARK                            x       y       z     vdW  Elec       q    Type
REMARK                         _______ _______ _______ _____ _____    ______ ____
ROOT
ATOM      1  C   UNL     1       5.114   3.932  18.054  0.00  0.00    +0.000 C 
ATOM      2  O   UNL     1       4.562   4.522  19.250  0.00  0.00    +0.000 OA
ATOM      3  C   UNL     1       3.129   4.364  19.222  0.00  0.00    +0.000 C 
ATOM      4  C   UNL     1       2.736   3.886  17.821  0.00  0.00    +0.000 C 
ATOM      5  C   UNL     1       3.986   3.130  17.410  0.00  0.00    +0.000 C 
ENDROOT
BRANCH   3   6
ATOM      6  N   UNL     1       2.506   5.588  19.656  0.00  0.00    +0.000 N 
ATOM      7  C   UNL     1       1.830   5.731  20.856  0.00  0.00    +0.000 A 
ATOM      8  N   UNL     1       1.362   6.946  21.022  0.00  0.00    +0.000 NA
ATOM      9  C   UNL     1       1.736   7.619  19.887  0.00  0.00    +0.000 A 
ATOM     10  C   UNL     1       1.537   8.948  19.476  0.00  0.00    +0.000 A 
ATOM     11  N   UNL     1       0.863   9.885  20.250  0.00  0.00    +0.000 N 
ATOM     12  N   UNL     1       1.988   9.330  18.265  0.00  0.00    +0.000 NA
ATOM     13  C   UNL     1       2.640   8.411  17.514  0.00  0.00    +0.000 A 
ATOM     14  N   UNL     1       2.911   7.119  17.800  0.00  0.00    +0.000 NA
ATOM     15  C   UNL     1       2.423   6.793  19.022  0.00  0.00    +0.000 A 
ATOM     16  H   UNL     1       0.261   9.460  20.957  0.00  0.00    +0.000 HD
ATOM     17  H   UNL     1       0.469  10.631  19.695  0.00  0.00    +0.000 HD
ENDBRANCH   3   6
BRANCH   4  18
ATOM     18  O   UNL     1       1.596   3.025  17.847  0.00  0.00    +0.000 OA
ATOM     19  H   UNL     1       0.837   3.577  17.560  0.00  0.00    +0.000 HD
ENDBRANCH   4  18
BRANCH   5  20
ATOM     20  O   UNL     1       3.896   1.802  17.979  0.00  0.00    +0.000 OA
ATOM     21  H   UNL     1       4.409   1.179  17.433  0.00  0.00    +0.000 HD
ENDBRANCH   5  20
BRANCH   1  22
ATOM     22  C   UNL     1       5.719   5.020  17.137  0.00  0.00    +0.000 C 
BRANCH  22  23
ATOM     23  C   UNL     1       6.089   6.282  17.954  0.00  0.00    +0.000 C 
BRANCH  23  25
ATOM     24  C   UNL     1       8.035   5.733  19.519  0.00  0.00    +0.000 C 
ATOM     25  C   UNL     1       7.577   6.468  18.271  0.00  0.00    +0.000 C 
ENDBRANCH  23  25
ENDBRANCH  22  23
BRANCH  22  26
ATOM     26  O   UNL     1       6.843   4.489  16.426  0.00  0.00    +0.000 OA
BRANCH  26  27
ATOM     27  P   UNL     1       6.576   4.298  14.728  0.00  0.00    +0.000 P 
ATOM     28  O   UNL     1       5.285   5.107  14.789  0.00  0.00    +0.000 OA
BRANCH  27  29
ATOM     29  O   UNL     1       7.748   5.375  14.417  0.00  0.00    +0.000 OA
ATOM     30  H   UNL     1       8.598   4.914  14.317  0.00  0.00    +0.000 HD
ENDBRANCH  27  29
BRANCH  27  31
ATOM     31  O   UNL     1       6.307   4.107  13.030  0.00  0.00    +0.000 OA
ATOM     32  H   UNL     1       6.943   3.415  12.753  0.00  0.00    +0.000 HD
ENDBRANCH  27  31
ENDBRANCH  26  27
ENDBRANCH  22  26
ENDBRANCH   1  22
TORSDOF 10
ENDMDL
MODEL 6
REMARK VINA RESULT:      -6.8      1.024      1.261
REMARK  Name = 
REMARK  11 active torsions:
REMARK  status: ('A' for Active; 'I' for Inactive)
REMARK    1  A    between atoms: C_1  and  C_2
REMARK    2  A    between atoms: C_2  and  C_3
REMARK    3  A    between atoms: C_3  and  C_4
REMARK    4  A    between atoms: C_4  and  O_5
REMARK    5  A    between atoms: C_4  and  C_10
REMARK    6  A    between atoms: O_5  and  P_6
REMARK    7  A    between atoms: P_6  and  O_8
REMARK    8  A    between atoms: P_6  and  O_9
REMARK    9  A    between atoms: C_12  and  N_13
REMARK   10  A    between atoms: C_23  and  O_24
REMARK   11  A    between atoms: C_25  and  O_26
REMARK                            x       y       z     vdW  Elec       q    Type
REMARK                         _______ _______ _______ _____ _____    ______ ____
ROOT
ATOM      1  C   UNL     1       4.585   5.072  18.335  0.00  0.00    +0.000 C 
ATOM      2  O   UNL     1       4.226   6.254  19.083  0.00  0.00    +0.000 OA
ATOM      3  C   UNL     1       2.825   6.177  19.420  0.00  0.00    +0.000 C 
ATOM      4  C   UNL     1       2.214   5.020  18.624  0.00  0.00    +0.000 C 
ATOM      5  C   UNL     1       3.413   4.103  18.472  0.00  0.00    +0.000 C 
ENDROOT
BRANCH   3   6
ATOM      6  N   UNL     1       2.214   7.464  19.211  0.00  0.00    +0.000 N 
ATOM      7  C   UNL     1       2.215   8.137  18.001  0.00  0.00    +0.000 A 
ATOM      8  N   UNL     1       1.584   9.286  18.069  0.00  0.00    +0.000 NA
ATOM      9  C   UNL     1       1.164   9.374  19.373  0.00  0.00    +0.000 A 
ATOM     10  C   UNL     1       0.437  10.360  20.059  0.00  0.00    +0.000 A 
ATOM     11  N   UNL     1      -0.025  11.520  19.447  0.00  0.00    +0.000 N 
ATOM     12  N   UNL     1       0.201  10.198  21.375  0.00  0.00    +0.000 NA
ATOM     13  C   UNL     1       0.658   9.067  21.965  0.00  0.00    +0.000 A 
ATOM     14  N   UNL     1       1.347   8.044  21.417  0.00  0.00    +0.000 NA
ATOM     15  C   UNL     1       1.563   8.270  20.098  0.00  0.00    +0.000 A 
ATOM     16  H   UNL     1       0.473  11.743  18.585  0.00  0.00    +0.000 HD
ATOM     17  H   UNL     1      -0.168  12.272  20.107  0.00  0.00    +0.000 HD
ENDBRANCH   3   6
BRANCH   4  18
ATOM     18  O   UNL     1       1.158   4.376  19.339  0.00  0.00    +0.000 OA
ATOM     19  H   UNL     1       0.908   4.992  20.062  0.00  0.00    +0.000 HD
ENDBRANCH   4  18
BRANCH   5  20
ATOM     20  O   UNL     1       3.517   3.322  19.687  0.00  0.00    +0.000 OA
ATOM     21  H   UNL     1       4.377   2.865  19.705  0.00  0.00    +0.000 HD
ENDBRANCH   5  20
BRANCH   1  22
ATOM     22  C   UNL     1       4.937   5.436  16.874  0.00  0.00    +0.000 C 
BRANCH  22  23
ATOM     23  C   UNL     1       5.768   6.741  16.819  0.00  0.00    +0.000 C 
BRANCH  23  25
ATOM     24  C   UNL     1       7.799   8.079  17.604  0.00  0.00    +0.000 C 
ATOM     25  C   UNL     1       6.975   6.812  17.759  0.00  0.00    +0.000 C 
ENDBRANCH  23  25
ENDBRANCH  22  23
BRANCH  22  26
ATOM     26  O   UNL     1       5.614   4.340  16.248  0.00  0.00    +0.000 OA
BRANCH  26  27
ATOM     27  P   UNL     1       6.561   4.791  14.873  0.00  0.00    +0.000 P 
ATOM     28  O   UNL     1       7.864   4.523  15.618  0.00  0.00    +0.000 OA
BRANCH  27  29
ATOM     29  O   UNL     1       6.181   3.392  14.146  0.00  0.00    +0.000 OA
ATOM     30  H   UNL     1       5.216   3.273  14.147  0.00  0.00    +0.000 HD
ENDBRANCH  27  29
BRANCH  27  31
ATOM     31  O   UNL     1       7.509   5.243  13.498  0.00  0.00    +0.000 OA
ATOM     32  H   UNL     1       7.885   4.401  13.166  0.00  0.00    +0.000 HD
ENDBRANCH  27  31
ENDBRANCH  26  27
ENDBRANCH  22  26
ENDBRANCH   1  22
TORSDOF 10
ENDMDL
MODEL 7
REMARK VINA RESULT:      -6.7      3.994      5.868
REMARK  Name = 
REMARK  11 active torsions:
REMARK  status: ('A' for Active; 'I' for Inactive)
REMARK    1  A    between atoms: C_1  and  C_2
REMARK    2  A    between atoms: C_2  and  C_3
REMARK    3  A    between atoms: C_3  and  C_4
REMARK    4  A    between atoms: C_4  and  O_5
REMARK    5  A    between atoms: C_4  and  C_10
REMARK    6  A    between atoms: O_5  and  P_6
REMARK    7  A    between atoms: P_6  and  O_8
REMARK    8  A    between atoms: P_6  and  O_9
REMARK    9  A    between atoms: C_12  and  N_13
REMARK   10  A    between atoms: C_23  and  O_24
REMARK   11  A    between atoms: C_25  and  O_26
REMARK                            x       y       z     vdW  Elec       q    Type
REMARK                         _______ _______ _______ _____ _____    ______ ____
ROOT
ATOM      1  C   UNL     1       2.266   3.190  17.821  0.00  0.00    +0.000 C 
ATOM      2  O   UNL     1       3.243   3.710  16.895  0.00  0.00    +0.000 OA
ATOM      3  C   UNL     1       4.548   3.619  17.502  0.00  0.00    +0.000 C 
ATOM      4  C   UNL     1       4.355   3.267  18.979  0.00  0.00    +0.000 C 
ATOM      5  C   UNL     1       3.052   2.490  18.927  0.00  0.00    +0.000 C 
ENDROOT
BRANCH   3   6
ATOM      6  N   UNL     1       5.280   4.832  17.244  0.00  0.00    +0.000 N 
ATOM      7  C   UNL     1       5.038   5.670  16.168  0.00  0.00    +0.000 A 
ATOM      8  N   UNL     1       5.833   6.714  16.162  0.00  0.00    +0.000 NA
ATOM      9  C   UNL     1       6.630   6.549  17.267  0.00  0.00    +0.000 A 
ATOM     10  C   UNL     1       7.668   7.332  17.800  0.00  0.00    +0.000 A 
ATOM     11  N   UNL     1       8.080   8.530  17.228  0.00  0.00    +0.000 N 
ATOM     12  N   UNL     1       8.318   6.894  18.896  0.00  0.00    +0.000 NA
ATOM     13  C   UNL     1       7.912   5.724  19.445  0.00  0.00    +0.000 A 
ATOM     14  N   UNL     1       6.926   4.894  19.044  0.00  0.00    +0.000 NA
ATOM     15  C   UNL     1       6.319   5.383  17.934  0.00  0.00    +0.000 A 
ATOM     16  H   UNL     1       7.809   8.619  16.247  0.00  0.00    +0.000 HD
ATOM     17  H   UNL     1       9.034   8.762  17.467  0.00  0.00    +0.000 HD
ENDBRANCH   3   6
BRANCH   4  18
ATOM     18  O   UNL     1       5.419   2.457  19.483  0.00  0.00    +0.000 OA
ATOM     19  H   UNL     1       5.286   2.414  20.455  0.00  0.00    +0.000 HD
ENDBRANCH   4  18
BRANCH   5  20
ATOM     20  O   UNL     1       3.375   1.128  18.559  0.00  0.00    +0.000 OA
ATOM     21  H   UNL     1       2.575   0.576  18.624  0.00  0.00    +0.000 HD
ENDBRANCH   5  20
BRANCH   1  22
ATOM     22  C   UNL     1       1.335   4.318  18.324  0.00  0.00    +0.000 C 
BRANCH  22  23
ATOM     23  C   UNL     1       1.102   4.196  19.850  0.00  0.00    +0.000 C 
BRANCH  23  25
ATOM     24  C   UNL     1       1.302   2.514  21.764  0.00  0.00    +0.000 C 
ATOM     25  C   UNL     1       0.764   2.796  20.372  0.00  0.00    +0.000 C 
ENDBRANCH  23  25
ENDBRANCH  22  23
BRANCH  22  26
ATOM     26  O   UNL     1       1.874   5.593  17.961  0.00  0.00    +0.000 OA
BRANCH  26  27
ATOM     27  P   UNL     1       2.017   6.698  19.284  0.00  0.00    +0.000 P 
ATOM     28  O   UNL     1       3.500   6.385  19.452  0.00  0.00    +0.000 OA
BRANCH  27  29
ATOM     29  O   UNL     1       1.951   7.949  18.254  0.00  0.00    +0.000 OA
ATOM     30  H   UNL     1       2.372   8.728  18.657  0.00  0.00    +0.000 HD
ENDBRANCH  27  29
BRANCH  27  31
ATOM     31  O   UNL     1       2.161   7.803  20.609  0.00  0.00    +0.000 OA
ATOM     32  H   UNL     1       2.329   8.673  20.191  0.00  0.00    +0.000 HD
ENDBRANCH  27  31
ENDBRANCH  26  27
ENDBRANCH  22  26
ENDBRANCH   1  22
TORSDOF 10
ENDMDL
MODEL 8
REMARK VINA RESULT:      -6.7      2.294      3.168
REMARK  Name = 
REMARK  11 active torsions:
REMARK  status: ('A' for Active; 'I' for Inactive)
REMARK    1  A    between atoms: C_1  and  C_2
REMARK    2  A    between atoms: C_2  and  C_3
REMARK    3  A    between atoms: C_3  and  C_4
REMARK    4  A    between atoms: C_4  and  O_5
REMARK    5  A    between atoms: C_4  and  C_10
REMARK    6  A    between atoms: O_5  and  P_6
REMARK    7  A    between atoms: P_6  and  O_8
REMARK    8  A    between atoms: P_6  and  O_9
REMARK    9  A    between atoms: C_12  and  N_13
REMARK   10  A    between atoms: C_23  and  O_24
REMARK   11  A    between atoms: C_25  and  O_26
REMARK                            x       y       z     vdW  Elec       q    Type
REMARK                         _______ _______ _______ _____ _____    ______ ____
ROOT
ATOM      1  C   UNL     1       4.596   3.293  18.499  0.00  0.00    +0.000 C 
ATOM      2  O   UNL     1       4.057   4.029  19.618  0.00  0.00    +0.000 OA
ATOM      3  C   UNL     1       2.626   4.121  19.461  0.00  0.00    +0.000 C 
ATOM      4  C   UNL     1       2.277   3.648  18.048  0.00  0.00    +0.000 C 
ATOM      5  C   UNL     1       3.404   2.666  17.781  0.00  0.00    +0.000 C 
ENDROOT
BRANCH   3   6
ATOM      6  N   UNL     1       2.195   5.455  19.793  0.00  0.00    +0.000 N 
ATOM      7  C   UNL     1       1.555   5.793  20.973  0.00  0.00    +0.000 A 
ATOM      8  N   UNL     1       1.274   7.073  21.038  0.00  0.00    +0.000 NA
ATOM      9  C   UNL     1       1.737   7.590  19.855  0.00  0.00    +0.000 A 
ATOM     10  C   UNL     1       1.735   8.896  19.338  0.00  0.00    +0.000 A 
ATOM     11  N   UNL     1       1.213   9.982  20.031  0.00  0.00    +0.000 N 
ATOM     12  N   UNL     1       2.230   9.109  18.103  0.00  0.00    +0.000 NA
ATOM     13  C   UNL     1       2.734   8.045  17.432  0.00  0.00    +0.000 A 
ATOM     14  N   UNL     1       2.811   6.755  17.822  0.00  0.00    +0.000 NA
ATOM     15  C   UNL     1       2.288   6.604  19.064  0.00  0.00    +0.000 A 
ATOM     16  H   UNL     1       0.559   9.710  20.766  0.00  0.00    +0.000 HD
ATOM     17  H   UNL     1       0.931  10.732  19.416  0.00  0.00    +0.000 HD
ENDBRANCH   3   6
BRANCH   4  18
ATOM     18  O   UNL     1       1.004   3.000  17.997  0.00  0.00    +0.000 OA
ATOM     19  H   UNL     1       0.443   3.460  18.658  0.00  0.00    +0.000 HD
ENDBRANCH   4  18
BRANCH   5  20
ATOM     20  O   UNL     1       3.031   1.405  18.385  0.00  0.00    +0.000 OA
ATOM     21  H   UNL     1       3.706   0.734  18.178  0.00  0.00    +0.000 HD
ENDBRANCH   5  20
BRANCH   1  22
ATOM     22  C   UNL     1       5.461   4.212  17.606  0.00  0.00    +0.000 C 
BRANCH  22  23
ATOM     23  C   UNL     1       4.781   4.439  16.233  0.00  0.00    +0.000 C 
BRANCH  23  25
ATOM     24  C   UNL     1       6.356   4.143  14.242  0.00  0.00    +0.000 C 
ATOM     25  C   UNL     1       5.638   5.118  15.160  0.00  0.00    +0.000 C 
ENDBRANCH  23  25
ENDBRANCH  22  23
BRANCH  22  26
ATOM     26  O   UNL     1       5.726   5.444  18.286  0.00  0.00    +0.000 OA
BRANCH  26  27
ATOM     27  P   UNL     1       7.213   5.452  19.170  0.00  0.00    +0.000 P 
ATOM     28  O   UNL     1       7.801   4.354  18.291  0.00  0.00    +0.000 OA
BRANCH  27  29
ATOM     29  O   UNL     1       7.634   6.848  18.459  0.00  0.00    +0.000 OA
ATOM     30  H   UNL     1       6.884   7.466  18.480  0.00  0.00    +0.000 HD
ENDBRANCH  27  29
BRANCH  27  31
ATOM     31  O   UNL     1       8.700   5.460  20.054  0.00  0.00    +0.000 OA
ATOM     32  H   UNL     1       8.779   4.554  20.418  0.00  0.00    +0.000 HD
ENDBRANCH  27  31
ENDBRANCH  26  27
ENDBRANCH  22  26
ENDBRANCH   1  22
TORSDOF 10
ENDMDL
MODEL 9
REMARK VINA RESULT:      -6.6      3.240      5.965
REMARK  Name = 
REMARK  11 active torsions:
REMARK  status: ('A' for Active; 'I' for Inactive)
REMARK    1  A    between atoms: C_1  and  C_2
REMARK    2  A    between atoms: C_2  and  C_3
REMARK    3  A    between atoms: C_3  and  C_4
REMARK    4  A    between atoms: C_4  and  O_5
REMARK    5  A    between atoms: C_4  and  C_10
REMARK    6  A    between atoms: O_5  and  P_6
REMARK    7  A    between atoms: P_6  and  O_8
REMARK    8  A    between atoms: P_6  and  O_9
REMARK    9  A    between atoms: C_12  and  N_13
REMARK   10  A    between atoms: C_23  and  O_24
REMARK   11  A    between atoms: C_25  and  O_26
REMARK                            x       y       z     vdW  Elec       q    Type
REMARK                         _______ _______ _______ _____ _____    ______ ____
ROOT
ATOM      1  C   UNL     1       3.004   5.636  20.250  0.00  0.00    +0.000 C 
ATOM      2  O   UNL     1       4.245   5.976  19.595  0.00  0.00    +0.000 OA
ATOM      3  C   UNL     1       3.976   6.976  18.591  0.00  0.00    +0.000 C 
ATOM      4  C   UNL     1       2.458   7.081  18.428  0.00  0.00    +0.000 C 
ATOM      5  C   UNL     1       1.986   6.687  19.815  0.00  0.00    +0.000 C 
ENDROOT
BRANCH   3   6
ATOM      6  N   UNL     1       4.708   6.657  17.393  0.00  0.00    +0.000 N 
ATOM      7  C   UNL     1       4.395   7.150  16.137  0.00  0.00    +0.000 A 
ATOM      8  N   UNL     1       5.218   6.717  15.212  0.00  0.00    +0.000 NA
ATOM      9  C   UNL     1       6.097   5.904  15.883  0.00  0.00    +0.000 A 
ATOM     10  C   UNL     1       7.204   5.158  15.447  0.00  0.00    +0.000 A 
ATOM     11  N   UNL     1       7.627   5.138  14.123  0.00  0.00    +0.000 N 
ATOM     12  N   UNL     1       7.871   4.399  16.339  0.00  0.00    +0.000 NA
ATOM     13  C   UNL     1       7.450   4.421  17.626  0.00  0.00    +0.000 A 
ATOM     14  N   UNL     1       6.422   5.104  18.172  0.00  0.00    +0.000 NA
ATOM     15  C   UNL     1       5.785   5.836  17.225  0.00  0.00    +0.000 A 
ATOM     16  H   UNL     1       6.900   5.428  13.467  0.00  0.00    +0.000 HD
ATOM     17  H   UNL     1       8.147   4.302  13.898  0.00  0.00    +0.000 HD
ENDBRANCH   3   6
BRANCH   4  18
ATOM     18  O   UNL     1       2.043   8.408  18.099  0.00  0.00    +0.000 OA
ATOM     19  H   UNL     1       2.397   8.984  18.811  0.00  0.00    +0.000 HD
ENDBRANCH   4  18
BRANCH   5  20
ATOM     20  O   UNL     1       2.061   7.867  20.650  0.00  0.00    +0.000 OA
ATOM     21  H   UNL     1       2.604   8.544  20.206  0.00  0.00    +0.000 HD
ENDBRANCH   5  20
BRANCH   1  22
ATOM     22  C   UNL     1       2.592   4.182  19.921  0.00  0.00    +0.000 C 
BRANCH  22  23
ATOM     23  C   UNL     1       1.080   3.970  20.175  0.00  0.00    +0.000 C 
BRANCH  23  25
ATOM     24  C   UNL     1       1.854   2.335  21.980  0.00  0.00    +0.000 C 
ATOM     25  C   UNL     1       0.707   2.811  21.104  0.00  0.00    +0.000 C 
ENDBRANCH  23  25
ENDBRANCH  22  23
BRANCH  22  26
ATOM     26  O   UNL     1       2.963   3.863  18.575  0.00  0.00    +0.000 OA
BRANCH  26  27
ATOM     27  P   UNL     1       3.645   2.285  18.389  0.00  0.00    +0.000 P 
ATOM     28  O   UNL     1       4.192   2.628  17.008  0.00  0.00    +0.000 OA
BRANCH  27  29
ATOM     29  O   UNL     1       4.827   2.666  19.432  0.00  0.00    +0.000 OA
ATOM     30  H   UNL     1       5.690   2.594  18.990  0.00  0.00    +0.000 HD
ENDBRANCH  27  29
BRANCH  27  31
ATOM     31  O   UNL     1       4.326   0.705  18.202  0.00  0.00    +0.000 OA
ATOM     32  H   UNL     1       3.854   0.319  17.435  0.00  0.00    +0.000 HD
ENDBRANCH  27  31
ENDBRANCH  26  27
ENDBRANCH  22  26
ENDBRANCH   1  22
TORSDOF 10
ENDMDL
