MODEL 1
REMARK VINA RESULT:      -8.0      0.000      0.000
REMARK  Name = 
REMARK  7 active torsions:
REMARK  status: ('A' for Active; 'I' for Inactive)
REMARK    1  A    between atoms: C_1  and  O_2
REMARK    2  A    between atoms: O_2  and  C_3
REMARK    3  A    between atoms: C_6  and  N_7
REMARK    4  A    between atoms: C_8  and  C_10
REMARK    5  A    between atoms: C_10  and  N_11
REMARK    6  A    between atoms: N_18  and  C_19
REMARK    7  A    between atoms: C_22  and  C_23
REMARK                            x       y       z     vdW  Elec       q    Type
REMARK                         _______ _______ _______ _____ _____    ______ ____
ROOT
ATOM      1  N   UNL     1       1.006   9.678  19.134  0.00  0.00    +0.000 N 
ATOM      2  C   UNL     1       1.696   9.566  17.929  0.00  0.00    +0.000 A 
ATOM      3  N   UNL     1       2.469   8.581  17.579  0.00  0.00    +0.000 NA
ATOM      4  C   UNL     1       2.588   7.622  18.536  0.00  0.00    +0.000 A 
ATOM      5  C   UNL     1       1.995   7.626  19.776  0.00  0.00    +0.000 A 
ATOM      6  N   UNL     1       2.307   6.501  20.466  0.00  0.00    +0.000 NA
ATOM      7  N   UNL     1       3.084   5.760  19.682  0.00  0.00    +0.000 NA
ATOM      8  N   UNL     1       3.269   6.409  18.489  0.00  0.00    +0.000 N 
ATOM      9  C   UNL     1       1.135   8.724  20.152  0.00  0.00    +0.000 A 
ATOM     10  O   UNL     1       0.551   8.801  21.229  0.00  0.00    +0.000 OA
ENDROOT
BRANCH   8  11
ATOM     11  C   UNL     1       4.018   5.809  17.438  0.00  0.00    +0.000 A 
ATOM     12  C   UNL     1       3.985   4.415  17.273  0.00  0.00    +0.000 A 
ATOM     13  C   UNL     1       4.683   3.808  16.221  0.00  0.00    +0.000 A 
ATOM     14  C   UNL     1       5.430   4.578  15.325  0.00  0.00    +0.000 A 
ATOM     15  C   UNL     1       6.177   3.945  14.188  0.00  0.00    +0.000 C 
ATOM     16  C   UNL     1       5.478   5.964  15.503  0.00  0.00    +0.000 A 
ATOM     17  C   UNL     1       4.777   6.577  16.548  0.00  0.00    +0.000 A 
ENDBRANCH   8  11
BRANCH   1  18
ATOM     18  C   UNL     1       0.153  10.837  19.376  0.00  0.00    +0.000 C 
BRANCH  18  20
ATOM     19  N   UNL     1       1.335  12.861  18.661  0.00  0.00    +0.000 N 
ATOM     20  C   UNL     1       1.002  12.059  19.747  0.00  0.00    +0.000 C 
ATOM     21  O   UNL     1       1.392  12.208  20.903  0.00  0.00    +0.000 OA
ATOM     22  H   UNL     1       0.911  12.645  17.768  0.00  0.00    +0.000 HD
BRANCH  19  26
ATOM     23  C   UNL     1       3.710  16.375  18.796  0.00  0.00    +0.000 A 
ATOM     24  C   UNL     1       4.259  15.185  18.329  0.00  0.00    +0.000 A 
ATOM     25  C   UNL     1       3.490  14.017  18.262  0.00  0.00    +0.000 A 
ATOM     26  C   UNL     1       2.160  14.012  18.685  0.00  0.00    +0.000 A 
ATOM     27  C   UNL     1       1.613  15.210  19.161  0.00  0.00    +0.000 A 
ATOM     28  C   UNL     1       2.383  16.388  19.217  0.00  0.00    +0.000 A 
BRANCH  23  30
ATOM     29  C   UNL     1       5.895  17.145  19.288  0.00  0.00    +0.000 C 
ATOM     30  O   UNL     1       4.579  17.428  18.831  0.00  0.00    +0.000 OA
ENDBRANCH  23  30
ENDBRANCH  19  26
ENDBRANCH  18  20
ENDBRANCH   1  18
TORSDOF 5
ENDMDL
MODEL 2
REMARK VINA RESULT:      -7.9      0.340      1.299
REMARK  Name = 
REMARK  7 active torsions:
REMARK  status: ('A' for Active; 'I' for Inactive)
REMARK    1  A    between atoms: C_1  and  O_2
REMARK    2  A    between atoms: O_2  and  C_3
REMARK    3  A    between atoms: C_6  and  N_7
REMARK    4  A    between atoms: C_8  and  C_10
REMARK    5  A    between atoms: C_10  and  N_11
REMARK    6  A    between atoms: N_18  and  C_19
REMARK    7  A    between atoms: C_22  and  C_23
REMARK                            x       y       z     vdW  Elec       q    Type
REMARK                         _______ _______ _______ _____ _____    ______ ____
ROOT
ATOM      1  N   UNL     1       0.972   9.718  19.305  0.00  0.00    +0.000 N 
ATOM      2  C   UNL     1       1.670   9.600  18.105  0.00  0.00    +0.000 A 
ATOM      3  N   UNL     1       2.410   8.593  17.746  0.00  0.00    +0.000 NA
ATOM      4  C   UNL     1       2.484   7.615  18.688  0.00  0.00    +0.000 A 
ATOM      5  C   UNL     1       1.878   7.621  19.922  0.00  0.00    +0.000 A 
ATOM      6  N   UNL     1       2.142   6.474  20.597  0.00  0.00    +0.000 NA
ATOM      7  N   UNL     1       2.900   5.718  19.808  0.00  0.00    +0.000 NA
ATOM      8  N   UNL     1       3.121   6.379  18.628  0.00  0.00    +0.000 N 
ATOM      9  C   UNL     1       1.055   8.743  20.308  0.00  0.00    +0.000 A 
ATOM     10  O   UNL     1       0.462   8.824  21.380  0.00  0.00    +0.000 OA
ENDROOT
BRANCH   8  11
ATOM     11  C   UNL     1       3.859   5.770  17.575  0.00  0.00    +0.000 A 
ATOM     12  C   UNL     1       4.658   6.567  16.738  0.00  0.00    +0.000 A 
ATOM     13  C   UNL     1       5.424   5.983  15.722  0.00  0.00    +0.000 A 
ATOM     14  C   UNL     1       5.398   4.601  15.516  0.00  0.00    +0.000 A 
ATOM     15  C   UNL     1       6.218   3.958  14.436  0.00  0.00    +0.000 C 
ATOM     16  C   UNL     1       4.586   3.811  16.336  0.00  0.00    +0.000 A 
ATOM     17  C   UNL     1       3.824   4.388  17.358  0.00  0.00    +0.000 A 
ENDBRANCH   8  11
BRANCH   1  18
ATOM     18  C   UNL     1       0.158  10.903  19.557  0.00  0.00    +0.000 C 
BRANCH  18  20
ATOM     19  N   UNL     1       1.342  12.950  18.913  0.00  0.00    +0.000 N 
ATOM     20  C   UNL     1       1.047  12.086  19.961  0.00  0.00    +0.000 C 
ATOM     21  O   UNL     1       1.495  12.155  21.104  0.00  0.00    +0.000 OA
ATOM     22  H   UNL     1       0.871  12.797  18.029  0.00  0.00    +0.000 HD
BRANCH  19  26
ATOM     23  C   UNL     1       3.960  16.289  18.987  0.00  0.00    +0.000 A 
ATOM     24  C   UNL     1       2.740  16.349  19.653  0.00  0.00    +0.000 A 
ATOM     25  C   UNL     1       1.867  15.255  19.654  0.00  0.00    +0.000 A 
ATOM     26  C   UNL     1       2.189  14.084  18.967  0.00  0.00    +0.000 A 
ATOM     27  C   UNL     1       3.414  14.029  18.291  0.00  0.00    +0.000 A 
ATOM     28  C   UNL     1       4.298  15.126  18.299  0.00  0.00    +0.000 A 
BRANCH  23  30
ATOM     29  C   UNL     1       5.358  17.697  20.278  0.00  0.00    +0.000 C 
ATOM     30  O   UNL     1       4.699  17.435  19.047  0.00  0.00    +0.000 OA
ENDBRANCH  23  30
ENDBRANCH  19  26
ENDBRANCH  18  20
ENDBRANCH   1  18
TORSDOF 5
ENDMDL
MODEL 3
REMARK VINA RESULT:      -7.7      3.487      5.462
REMARK  Name = 
REMARK  7 active torsions:
REMARK  status: ('A' for Active; 'I' for Inactive)
REMARK    1  A    between atoms: C_1  and  O_2
REMARK    2  A    between atoms: O_2  and  C_3
REMARK    3  A    between atoms: C_6  and  N_7
REMARK    4  A    between atoms: C_8  and  C_10
REMARK    5  A    between atoms: C_10  and  N_11
REMARK    6  A    between atoms: N_18  and  C_19
REMARK    7  A    between atoms: C_22  and  C_23
REMARK                            x       y       z     vdW  Elec       q    Type
REMARK                         _______ _______ _______ _____ _____    ______ ____
ROOT
ATOM      1  N   UNL     1       1.102   9.783  19.284  0.00  0.00    +0.000 N 
ATOM      2  C   UNL     1       1.865   9.691  18.123  0.00  0.00    +0.000 A 
ATOM      3  N   UNL     1       2.577   8.667  17.753  0.00  0.00    +0.000 NA
ATOM      4  C   UNL     1       2.544   7.639  18.642  0.00  0.00    +0.000 A 
ATOM      5  C   UNL     1       1.865   7.612  19.837  0.00  0.00    +0.000 A 
ATOM      6  N   UNL     1       2.031   6.419  20.462  0.00  0.00    +0.000 NA
ATOM      7  N   UNL     1       2.798   5.667  19.678  0.00  0.00    +0.000 NA
ATOM      8  N   UNL     1       3.123   6.376  18.551  0.00  0.00    +0.000 N 
ATOM      9  C   UNL     1       1.076   8.754  20.235  0.00  0.00    +0.000 A 
ATOM     10  O   UNL     1       0.423   8.809  21.274  0.00  0.00    +0.000 OA
ENDROOT
BRANCH   8  11
ATOM     11  C   UNL     1       3.894   5.785  17.511  0.00  0.00    +0.000 A 
ATOM     12  C   UNL     1       3.804   4.402  17.284  0.00  0.00    +0.000 A 
ATOM     13  C   UNL     1       4.522   3.806  16.240  0.00  0.00    +0.000 A 
ATOM     14  C   UNL     1       5.347   4.575  15.414  0.00  0.00    +0.000 A 
ATOM     15  C   UNL     1       6.118   3.954  14.286  0.00  0.00    +0.000 C 
ATOM     16  C   UNL     1       5.451   5.949  15.654  0.00  0.00    +0.000 A 
ATOM     17  C   UNL     1       4.730   6.551  16.692  0.00  0.00    +0.000 A 
ENDBRANCH   8  11
BRANCH   1  18
ATOM     18  C   UNL     1       0.334  10.993  19.554  0.00  0.00    +0.000 C 
BRANCH  18  20
ATOM     19  N   UNL     1      -1.972  11.813  19.410  0.00  0.00    +0.000 N 
ATOM     20  C   UNL     1      -1.051  10.906  18.899  0.00  0.00    +0.000 C 
ATOM     21  O   UNL     1      -1.282  10.030  18.068  0.00  0.00    +0.000 OA
ATOM     22  H   UNL     1      -1.635  12.508  20.065  0.00  0.00    +0.000 HD
BRANCH  19  26
ATOM     23  C   UNL     1      -6.039  12.062  18.229  0.00  0.00    +0.000 A 
ATOM     24  C   UNL     1      -5.646  12.559  19.467  0.00  0.00    +0.000 A 
ATOM     25  C   UNL     1      -4.307  12.501  19.872  0.00  0.00    +0.000 A 
ATOM     26  C   UNL     1      -3.338  11.921  19.052  0.00  0.00    +0.000 A 
ATOM     27  C   UNL     1      -3.739  11.415  17.810  0.00  0.00    +0.000 A 
ATOM     28  C   UNL     1      -5.084  11.483  17.397  0.00  0.00    +0.000 A 
BRANCH  23  30
ATOM     29  C   UNL     1      -7.882  13.469  17.747  0.00  0.00    +0.000 C 
ATOM     30  O   UNL     1      -7.378  12.160  17.975  0.00  0.00    +0.000 OA
ENDBRANCH  23  30
ENDBRANCH  19  26
ENDBRANCH  18  20
ENDBRANCH   1  18
TORSDOF 5
ENDMDL
MODEL 4
REMARK VINA RESULT:      -7.6      3.597      5.384
REMARK  Name = 
REMARK  7 active torsions:
REMARK  status: ('A' for Active; 'I' for Inactive)
REMARK    1  A    between atoms: C_1  and  O_2
REMARK    2  A    between atoms: O_2  and  C_3
REMARK    3  A    between atoms: C_6  and  N_7
REMARK    4  A    between atoms: C_8  and  C_10
REMARK    5  A    between atoms: C_10  and  N_11
REMARK    6  A    between atoms: N_18  and  C_19
REMARK    7  A    between atoms: C_22  and  C_23
REMARK                            x       y       z     vdW  Elec       q    Type
REMARK                         _______ _______ _______ _____ _____    ______ ____
ROOT
ATOM      1  N   UNL     1       1.210   9.519  19.191  0.00  0.00    +0.000 N 
ATOM      2  C   UNL     1       1.867   9.444  17.966  0.00  0.00    +0.000 A 
ATOM      3  N   UNL     1       2.604   8.455  17.551  0.00  0.00    +0.000 NA
ATOM      4  C   UNL     1       2.717   7.450  18.460  0.00  0.00    +0.000 A 
ATOM      5  C   UNL     1       2.154   7.413  19.714  0.00  0.00    +0.000 A 
ATOM      6  N   UNL     1       2.450   6.249  20.344  0.00  0.00    +0.000 NA
ATOM      7  N   UNL     1       3.187   5.524  19.507  0.00  0.00    +0.000 NA
ATOM      8  N   UNL     1       3.362   6.222  18.341  0.00  0.00    +0.000 N 
ATOM      9  C   UNL     1       1.336   8.516  20.161  0.00  0.00    +0.000 A 
ATOM     10  O   UNL     1       0.779   8.559  21.254  0.00  0.00    +0.000 OA
ENDROOT
BRANCH   8  11
ATOM     11  C   UNL     1       4.068   5.652  17.245  0.00  0.00    +0.000 A 
ATOM     12  C   UNL     1       4.756   6.491  16.353  0.00  0.00    +0.000 A 
ATOM     13  C   UNL     1       5.491   5.948  15.291  0.00  0.00    +0.000 A 
ATOM     14  C   UNL     1       5.544   4.565  15.097  0.00  0.00    +0.000 A 
ATOM     15  C   UNL     1       6.332   3.966  13.970  0.00  0.00    +0.000 C 
ATOM     16  C   UNL     1       4.843   3.732  15.974  0.00  0.00    +0.000 A 
ATOM     17  C   UNL     1       4.112   4.268  17.041  0.00  0.00    +0.000 A 
ENDBRANCH   8  11
BRANCH   1  18
ATOM     18  C   UNL     1       0.396  10.689  19.507  0.00  0.00    +0.000 C 
BRANCH  18  20
ATOM     19  N   UNL     1      -1.747  11.688  18.864  0.00  0.00    +0.000 N 
ATOM     20  C   UNL     1      -1.035  10.500  18.989  0.00  0.00    +0.000 C 
ATOM     21  O   UNL     1      -1.478   9.368  18.806  0.00  0.00    +0.000 OA
ATOM     22  H   UNL     1      -1.246  12.556  19.009  0.00  0.00    +0.000 HD
BRANCH  19  26
ATOM     23  C   UNL     1      -5.835  12.146  17.824  0.00  0.00    +0.000 A 
ATOM     24  C   UNL     1      -4.924  11.697  16.872  0.00  0.00    +0.000 A 
ATOM     25  C   UNL     1      -3.574  11.525  17.197  0.00  0.00    +0.000 A 
ATOM     26  C   UNL     1      -3.103  11.822  18.477  0.00  0.00    +0.000 A 
ATOM     27  C   UNL     1      -4.022  12.280  19.430  0.00  0.00    +0.000 A 
ATOM     28  C   UNL     1      -5.383  12.442  19.107  0.00  0.00    +0.000 A 
BRANCH  23  30
ATOM     29  C   UNL     1      -7.513  13.613  17.023  0.00  0.00    +0.000 C 
ATOM     30  O   UNL     1      -7.113  12.292  17.363  0.00  0.00    +0.000 OA
ENDBRANCH  23  30
ENDBRANCH  19  26
ENDBRANCH  18  20
ENDBRANCH   1  18
TORSDOF 5
ENDMDL
MODEL 5
REMARK VINA RESULT:      -7.6      1.255      1.672
REMARK  Name = 
REMARK  7 active torsions:
REMARK  status: ('A' for Active; 'I' for Inactive)
REMARK    1  A    between atoms: C_1  and  O_2
REMARK    2  A    between atoms: O_2  and  C_3
REMARK    3  A    between atoms: C_6  and  N_7
REMARK    4  A    between atoms: C_8  and  C_10
REMARK    5  A    between atoms: C_10  and  N_11
REMARK    6  A    between atoms: N_18  and  C_19
REMARK    7  A    between atoms: C_22  and  C_23
REMARK                            x       y       z     vdW  Elec       q    Type
REMARK                         _______ _______ _______ _____ _____    ______ ____
ROOT
ATOM      1  N   UNL     1       0.744   9.507  19.828  0.00  0.00    +0.000 N 
ATOM      2  C   UNL     1       1.455   9.542  18.631  0.00  0.00    +0.000 A 
ATOM      3  N   UNL     1       2.250   8.614  18.186  0.00  0.00    +0.000 NA
ATOM      4  C   UNL     1       2.368   7.555  19.030  0.00  0.00    +0.000 A 
ATOM      5  C   UNL     1       1.755   7.410  20.252  0.00  0.00    +0.000 A 
ATOM      6  N   UNL     1       2.073   6.218  20.817  0.00  0.00    +0.000 NA
ATOM      7  N   UNL     1       2.875   5.582  19.967  0.00  0.00    +0.000 NA
ATOM      8  N   UNL     1       3.069   6.364  18.859  0.00  0.00    +0.000 N 
ATOM      9  C   UNL     1       0.872   8.446  20.734  0.00  0.00    +0.000 A 
ATOM     10  O   UNL     1       0.268   8.392  21.802  0.00  0.00    +0.000 OA
ENDROOT
BRANCH   8  11
ATOM     11  C   UNL     1       3.845   5.898  17.761  0.00  0.00    +0.000 A 
ATOM     12  C   UNL     1       3.874   4.525  17.467  0.00  0.00    +0.000 A 
ATOM     13  C   UNL     1       4.598   4.049  16.367  0.00  0.00    +0.000 A 
ATOM     14  C   UNL     1       5.312   4.931  15.550  0.00  0.00    +0.000 A 
ATOM     15  C   UNL     1       6.087   4.440  14.363  0.00  0.00    +0.000 C 
ATOM     16  C   UNL     1       5.299   6.295  15.856  0.00  0.00    +0.000 A 
ATOM     17  C   UNL     1       4.571   6.777  16.950  0.00  0.00    +0.000 A 
ENDBRANCH   8  11
BRANCH   1  18
ATOM     18  C   UNL     1      -0.132  10.619  20.184  0.00  0.00    +0.000 C 
BRANCH  18  20
ATOM     19  N   UNL     1       1.104  12.692  19.757  0.00  0.00    +0.000 N 
ATOM     20  C   UNL     1       0.133  11.823  19.271  0.00  0.00    +0.000 C 
ATOM     21  O   UNL     1      -0.548  11.989  18.262  0.00  0.00    +0.000 OA
ATOM     22  H   UNL     1       1.618  12.411  20.583  0.00  0.00    +0.000 HD
BRANCH  19  26
ATOM     23  C   UNL     1       2.419  16.292  17.936  0.00  0.00    +0.000 A 
ATOM     24  C   UNL     1       1.233  16.276  18.663  0.00  0.00    +0.000 A 
ATOM     25  C   UNL     1       0.787  15.104  19.284  0.00  0.00    +0.000 A 
ATOM     26  C   UNL     1       1.510  13.916  19.170  0.00  0.00    +0.000 A 
ATOM     27  C   UNL     1       2.699  13.934  18.431  0.00  0.00    +0.000 A 
ATOM     28  C   UNL     1       3.154  15.116  17.815  0.00  0.00    +0.000 A 
BRANCH  23  30
ATOM     29  C   UNL     1       1.680  18.118  16.622  0.00  0.00    +0.000 C 
ATOM     30  O   UNL     1       2.720  17.495  17.364  0.00  0.00    +0.000 OA
ENDBRANCH  23  30
ENDBRANCH  19  26
ENDBRANCH  18  20
ENDBRANCH   1  18
TORSDOF 5
ENDMDL
MODEL 6
REMARK VINA RESULT:      -7.5      3.382      5.328
REMARK  Name = 
REMARK  7 active torsions:
REMARK  status: ('A' for Active; 'I' for Inactive)
REMARK    1  A    between atoms: C_1  and  O_2
REMARK    2  A    between atoms: O_2  and  C_3
REMARK    3  A    between atoms: C_6  and  N_7
REMARK    4  A    between atoms: C_8  and  C_10
REMARK    5  A    between atoms: C_10  and  N_11
REMARK    6  A    between atoms: N_18  and  C_19
REMARK    7  A    between atoms: C_22  and  C_23
REMARK                            x       y       z     vdW  Elec       q    Type
REMARK                         _______ _______ _______ _____ _____    ______ ____
ROOT
ATOM      1  N   UNL     1       1.060   9.561  19.742  0.00  0.00    +0.000 N 
ATOM      2  C   UNL     1       1.806   9.525  18.566  0.00  0.00    +0.000 A 
ATOM      3  N   UNL     1       2.518   8.523  18.141  0.00  0.00    +0.000 NA
ATOM      4  C   UNL     1       2.506   7.457  18.985  0.00  0.00    +0.000 A 
ATOM      5  C   UNL     1       1.846   7.373  20.188  0.00  0.00    +0.000 A 
ATOM      6  N   UNL     1       2.029   6.156  20.758  0.00  0.00    +0.000 NA
ATOM      7  N   UNL     1       2.789   5.444  19.930  0.00  0.00    +0.000 NA
ATOM      8  N   UNL     1       3.091   6.204  18.830  0.00  0.00    +0.000 N 
ATOM      9  C   UNL     1       1.056   8.491  20.648  0.00  0.00    +0.000 A 
ATOM     10  O   UNL     1       0.420   8.497  21.698  0.00  0.00    +0.000 OA
ENDROOT
BRANCH   8  11
ATOM     11  C   UNL     1       3.849   5.664  17.753  0.00  0.00    +0.000 A 
ATOM     12  C   UNL     1       4.630   6.520  16.959  0.00  0.00    +0.000 A 
ATOM     13  C   UNL     1       5.415   6.005  15.920  0.00  0.00    +0.000 A 
ATOM     14  C   UNL     1       5.425   4.633  15.650  0.00  0.00    +0.000 A 
ATOM     15  C   UNL     1       6.266   4.063  14.545  0.00  0.00    +0.000 C 
ATOM     16  C   UNL     1       4.631   3.785  16.428  0.00  0.00    +0.000 A 
ATOM     17  C   UNL     1       3.850   4.294  17.472  0.00  0.00    +0.000 A 
ENDBRANCH   8  11
BRANCH   1  18
ATOM     18  C   UNL     1       0.289  10.753  20.076  0.00  0.00    +0.000 C 
BRANCH  18  20
ATOM     19  N   UNL     1      -1.339  10.160  18.342  0.00  0.00    +0.000 N 
ATOM     20  C   UNL     1      -0.572  11.186  18.883  0.00  0.00    +0.000 C 
ATOM     21  O   UNL     1      -0.477  12.329  18.440  0.00  0.00    +0.000 OA
ATOM     22  H   UNL     1      -1.354   9.274  18.833  0.00  0.00    +0.000 HD
BRANCH  19  26
ATOM     23  C   UNL     1      -3.909  10.503  14.984  0.00  0.00    +0.000 A 
ATOM     24  C   UNL     1      -2.789   9.681  14.918  0.00  0.00    +0.000 A 
ATOM     25  C   UNL     1      -1.935   9.541  16.018  0.00  0.00    +0.000 A 
ATOM     26  C   UNL     1      -2.174  10.242  17.201  0.00  0.00    +0.000 A 
ATOM     27  C   UNL     1      -3.298  11.074  17.261  0.00  0.00    +0.000 A 
ATOM     28  C   UNL     1      -4.164  11.206  16.159  0.00  0.00    +0.000 A 
BRANCH  23  30
ATOM     29  C   UNL     1      -4.165   9.784  12.742  0.00  0.00    +0.000 C 
ATOM     30  O   UNL     1      -4.639  10.565  13.831  0.00  0.00    +0.000 OA
ENDBRANCH  23  30
ENDBRANCH  19  26
ENDBRANCH  18  20
ENDBRANCH   1  18
TORSDOF 5
ENDMDL
MODEL 7
REMARK VINA RESULT:      -7.4      1.257      1.756
REMARK  Name = 
REMARK  7 active torsions:
REMARK  status: ('A' for Active; 'I' for Inactive)
REMARK    1  A    between atoms: C_1  and  O_2
REMARK    2  A    between atoms: O_2  and  C_3
REMARK    3  A    between atoms: C_6  and  N_7
REMARK    4  A    between atoms: C_8  and  C_10
REMARK    5  A    between atoms: C_10  and  N_11
REMARK    6  A    between atoms: N_18  and  C_19
REMARK    7  A    between atoms: C_22  and  C_23
REMARK                            x       y       z     vdW  Elec       q    Type
REMARK                         _______ _______ _______ _____ _____    ______ ____
ROOT
ATOM      1  N   UNL     1       0.701   9.278  19.805  0.00  0.00    +0.000 N 
ATOM      2  C   UNL     1       1.316   9.299  18.555  0.00  0.00    +0.000 A 
ATOM      3  N   UNL     1       2.149   8.412  18.097  0.00  0.00    +0.000 NA
ATOM      4  C   UNL     1       2.417   7.416  18.983  0.00  0.00    +0.000 A 
ATOM      5  C   UNL     1       1.911   7.294  20.256  0.00  0.00    +0.000 A 
ATOM      6  N   UNL     1       2.368   6.166  20.854  0.00  0.00    +0.000 NA
ATOM      7  N   UNL     1       3.155   5.547  19.978  0.00  0.00    +0.000 NA
ATOM      8  N   UNL     1       3.200   6.277  18.819  0.00  0.00    +0.000 N 
ATOM      9  C   UNL     1       0.983   8.284  20.752  0.00  0.00    +0.000 A 
ATOM     10  O   UNL     1       0.467   8.244  21.865  0.00  0.00    +0.000 OA
ENDROOT
BRANCH   8  11
ATOM     11  C   UNL     1       3.929   5.811  17.688  0.00  0.00    +0.000 A 
ATOM     12  C   UNL     1       4.686   6.720  16.930  0.00  0.00    +0.000 A 
ATOM     13  C   UNL     1       5.442   6.276  15.839  0.00  0.00    +0.000 A 
ATOM     14  C   UNL     1       5.448   4.925  15.479  0.00  0.00    +0.000 A 
ATOM     15  C   UNL     1       6.258   4.431  14.317  0.00  0.00    +0.000 C 
ATOM     16  C   UNL     1       4.677   4.026  16.222  0.00  0.00    +0.000 A 
ATOM     17  C   UNL     1       3.925   4.462  17.319  0.00  0.00    +0.000 A 
ENDBRANCH   8  11
BRANCH   1  18
ATOM     18  C   UNL     1      -0.235  10.336  20.171  0.00  0.00    +0.000 C 
BRANCH  18  20
ATOM     19  N   UNL     1       0.021  12.579  19.218  0.00  0.00    +0.000 N 
ATOM     20  C   UNL     1       0.474  11.695  20.191  0.00  0.00    +0.000 C 
ATOM     21  O   UNL     1       1.410  11.889  20.964  0.00  0.00    +0.000 OA
ATOM     22  H   UNL     1      -0.787  12.305  18.672  0.00  0.00    +0.000 HD
BRANCH  19  26
ATOM     23  C   UNL     1       1.431  16.510  18.465  0.00  0.00    +0.000 A 
ATOM     24  C   UNL     1       2.284  15.423  18.300  0.00  0.00    +0.000 A 
ATOM     25  C   UNL     1       1.837  14.117  18.528  0.00  0.00    +0.000 A 
ATOM     26  C   UNL     1       0.530  13.874  18.951  0.00  0.00    +0.000 A 
ATOM     27  C   UNL     1      -0.325  14.970  19.123  0.00  0.00    +0.000 A 
ATOM     28  C   UNL     1       0.121  16.283  18.883  0.00  0.00    +0.000 A 
BRANCH  23  30
ATOM     29  C   UNL     1       1.370  18.551  17.266  0.00  0.00    +0.000 C 
ATOM     30  O   UNL     1       2.006  17.726  18.233  0.00  0.00    +0.000 OA
ENDBRANCH  23  30
ENDBRANCH  19  26
ENDBRANCH  18  20
ENDBRANCH   1  18
TORSDOF 5
ENDMDL
MODEL 8
REMARK VINA RESULT:      -7.4      1.249      1.368
REMARK  Name = 
REMARK  7 active torsions:
REMARK  status: ('A' for Active; 'I' for Inactive)
REMARK    1  A    between atoms: C_1  and  O_2
REMARK    2  A    between atoms: O_2  and  C_3
REMARK    3  A    between atoms: C_6  and  N_7
REMARK    4  A    between atoms: C_8  and  C_10
REMARK    5  A    between atoms: C_10  and  N_11
REMARK    6  A    between atoms: N_18  and  C_19
REMARK    7  A    between atoms: C_22  and  C_23
REMARK                            x       y       z     vdW  Elec       q    Type
REMARK                         _______ _______ _______ _____ _____    ______ ____
ROOT
ATOM      1  N   UNL     1       1.168   8.989  19.632  0.00  0.00    +0.000 N 
ATOM      2  C   UNL     1       1.776   9.054  18.380  0.00  0.00    +0.000 A 
ATOM      3  N   UNL     1       2.579   8.166  17.872  0.00  0.00    +0.000 NA
ATOM      4  C   UNL     1       2.821   7.119  18.705  0.00  0.00    +0.000 A 
ATOM      5  C   UNL     1       2.319   6.949  19.973  0.00  0.00    +0.000 A 
ATOM      6  N   UNL     1       2.745   5.778  20.510  0.00  0.00    +0.000 NA
ATOM      7  N   UNL     1       3.506   5.180  19.598  0.00  0.00    +0.000 NA
ATOM      8  N   UNL     1       3.567   5.966  18.477  0.00  0.00    +0.000 N 
ATOM      9  C   UNL     1       1.425   7.940  20.525  0.00  0.00    +0.000 A 
ATOM     10  O   UNL     1       0.915   7.860  21.639  0.00  0.00    +0.000 OA
ENDROOT
BRANCH   8  11
ATOM     11  C   UNL     1       4.274   5.535  17.319  0.00  0.00    +0.000 A 
ATOM     12  C   UNL     1       4.417   4.161  17.067  0.00  0.00    +0.000 A 
ATOM     13  C   UNL     1       5.073   3.715  15.913  0.00  0.00    +0.000 A 
ATOM     14  C   UNL     1       5.604   4.630  14.999  0.00  0.00    +0.000 A 
ATOM     15  C   UNL     1       6.304   4.170  13.753  0.00  0.00    +0.000 C 
ATOM     16  C   UNL     1       5.479   5.997  15.261  0.00  0.00    +0.000 A 
ATOM     17  C   UNL     1       4.818   6.448  16.410  0.00  0.00    +0.000 A 
ENDBRANCH   8  11
BRANCH   1  18
ATOM     18  C   UNL     1       0.268  10.055  20.058  0.00  0.00    +0.000 C 
BRANCH  18  20
ATOM     19  N   UNL     1       1.445  12.177  19.715  0.00  0.00    +0.000 N 
ATOM     20  C   UNL     1       0.484  11.311  19.205  0.00  0.00    +0.000 C 
ATOM     21  O   UNL     1      -0.223  11.514  18.220  0.00  0.00    +0.000 OA
ATOM     22  H   UNL     1       1.984  11.865  20.514  0.00  0.00    +0.000 HD
BRANCH  19  26
ATOM     23  C   UNL     1       2.443  16.015  18.207  0.00  0.00    +0.000 A 
ATOM     24  C   UNL     1       3.218  14.912  17.862  0.00  0.00    +0.000 A 
ATOM     25  C   UNL     1       2.898  13.635  18.336  0.00  0.00    +0.000 A 
ATOM     26  C   UNL     1       1.809  13.439  19.185  0.00  0.00    +0.000 A 
ATOM     27  C   UNL     1       1.036  14.553  19.536  0.00  0.00    +0.000 A 
ATOM     28  C   UNL     1       1.350  15.837  19.051  0.00  0.00    +0.000 A 
BRANCH  23  30
ATOM     29  C   UNL     1       2.024  17.845  16.763  0.00  0.00    +0.000 C 
ATOM     30  O   UNL     1       2.883  17.203  17.695  0.00  0.00    +0.000 OA
ENDBRANCH  23  30
ENDBRANCH  19  26
ENDBRANCH  18  20
ENDBRANCH   1  18
TORSDOF 5
ENDMDL
MODEL 9
REMARK VINA RESULT:      -7.4      4.427      6.579
REMARK  Name = 
REMARK  7 active torsions:
REMARK  status: ('A' for Active; 'I' for Inactive)
REMARK    1  A    between atoms: C_1  and  O_2
REMARK    2  A    between atoms: O_2  and  C_3
REMARK    3  A    between atoms: C_6  and  N_7
REMARK    4  A    between atoms: C_8  and  C_10
REMARK    5  A    between atoms: C_10  and  N_11
REMARK    6  A    between atoms: N_18  and  C_19
REMARK    7  A    between atoms: C_22  and  C_23
REMARK                            x       y       z     vdW  Elec       q    Type
REMARK                         _______ _______ _______ _____ _____    ______ ____
ROOT
ATOM      1  N   UNL     1       0.615  11.035  20.693  0.00  0.00    +0.000 N 
ATOM      2  C   UNL     1       0.774   9.845  21.399  0.00  0.00    +0.000 A 
ATOM      3  N   UNL     1       1.253   8.732  20.926  0.00  0.00    +0.000 NA
ATOM      4  C   UNL     1       1.585   8.805  19.609  0.00  0.00    +0.000 A 
ATOM      5  C   UNL     1       1.447   9.900  18.790  0.00  0.00    +0.000 A 
ATOM      6  N   UNL     1       1.901   9.632  17.540  0.00  0.00    +0.000 NA
ATOM      7  N   UNL     1       2.347   8.378  17.544  0.00  0.00    +0.000 NA
ATOM      8  N   UNL     1       2.179   7.845  18.795  0.00  0.00    +0.000 N 
ATOM      9  C   UNL     1       0.916  11.131  19.328  0.00  0.00    +0.000 A 
ATOM     10  O   UNL     1       0.776  12.162  18.676  0.00  0.00    +0.000 OA
ENDROOT
BRANCH   8  11
ATOM     11  C   UNL     1       2.627   6.527  19.095  0.00  0.00    +0.000 A 
ATOM     12  C   UNL     1       3.794   6.038  18.487  0.00  0.00    +0.000 A 
ATOM     13  C   UNL     1       4.275   4.760  18.798  0.00  0.00    +0.000 A 
ATOM     14  C   UNL     1       3.595   3.947  19.711  0.00  0.00    +0.000 A 
ATOM     15  C   UNL     1       4.100   2.579  20.062  0.00  0.00    +0.000 C 
ATOM     16  C   UNL     1       2.422   4.428  20.300  0.00  0.00    +0.000 A 
ATOM     17  C   UNL     1       1.941   5.708  19.998  0.00  0.00    +0.000 A 
ENDBRANCH   8  11
BRANCH   1  18
ATOM     18  C   UNL     1       0.083  12.214  21.368  0.00  0.00    +0.000 C 
BRANCH  18  20
ATOM     19  N   UNL     1      -1.980  12.665  22.613  0.00  0.00    +0.000 N 
ATOM     20  C   UNL     1      -1.448  12.146  21.438  0.00  0.00    +0.000 C 
ATOM     21  O   UNL     1      -2.079  11.590  20.542  0.00  0.00    +0.000 OA
ATOM     22  H   UNL     1      -1.347  13.132  23.251  0.00  0.00    +0.000 HD
BRANCH  19  26
ATOM     23  C   UNL     1      -6.035  12.674  23.861  0.00  0.00    +0.000 A 
ATOM     24  C   UNL     1      -5.707  13.066  22.567  0.00  0.00    +0.000 A 
ATOM     25  C   UNL     1      -4.378  13.057  22.129  0.00  0.00    +0.000 A 
ATOM     26  C   UNL     1      -3.346  12.677  22.988  0.00  0.00    +0.000 A 
ATOM     27  C   UNL     1      -3.679  12.290  24.292  0.00  0.00    +0.000 A 
ATOM     28  C   UNL     1      -5.017  12.287  24.730  0.00  0.00    +0.000 A 
BRANCH  23  30
ATOM     29  C   UNL     1      -7.917  14.063  24.230  0.00  0.00    +0.000 C 
ATOM     30  O   UNL     1      -7.365  12.755  24.161  0.00  0.00    +0.000 OA
ENDBRANCH  23  30
ENDBRANCH  19  26
ENDBRANCH  18  20
ENDBRANCH   1  18
TORSDOF 5
ENDMDL
