MODEL 1
REMARK VINA RESULT:      -9.0      0.000      0.000
REMARK  Name = 
REMARK  3 active torsions:
REMARK  status: ('A' for Active; 'I' for Inactive)
REMARK    1  A    between atoms: C_2  and  C_3
REMARK    2  A    between atoms: N_21  and  C_22
REMARK    3  A    between atoms: C_22  and  C_23
REMARK                            x       y       z     vdW  Elec       q    Type
REMARK                         _______ _______ _______ _____ _____    ______ ____
ROOT
ATOM      1  C   UNL     1       7.329   6.839  17.509  0.00  0.00    +0.000 A 
ATOM      2  C   UNL     1       7.421   8.195  17.271  0.00  0.00    +0.000 A 
ATOM      3  N   UNL     1       8.247   8.666  18.265  0.00  0.00    +0.000 N 
ATOM      4  C   UNL     1       8.739   9.958  18.493  0.00  0.00    +0.000 A 
ATOM      5  N   UNL     1       8.505  10.976  17.718  0.00  0.00    +0.000 NA
ATOM      6  N   UNL     1       8.964  12.141  18.253  0.00  0.00    +0.000 N 
ATOM      7  C   UNL     1       9.075  13.354  17.630  0.00  0.00    +0.000 A 
ATOM      8  C   UNL     1       9.471  14.281  18.573  0.00  0.00    +0.000 A 
ATOM      9  C   UNL     1       9.595  13.611  19.815  0.00  0.00    +0.000 A 
ATOM     10  C   UNL     1       9.356  12.278  19.553  0.00  0.00    +0.000 A 
ATOM     11  C   UNL     1       9.406  11.122  20.376  0.00  0.00    +0.000 A 
ATOM     12  O   UNL     1       9.335  11.102  21.595  0.00  0.00    +0.000 OA
ATOM     13  N   UNL     1       9.528   9.979  19.621  0.00  0.00    +0.000 N 
ATOM     14  N   UNL     1       8.585   7.650  19.100  0.00  0.00    +0.000 NA
ATOM     15  N   UNL     1       7.979   6.556  18.683  0.00  0.00    +0.000 NA
ATOM     16  H   UNL     1      10.488   9.979  19.286  0.00  0.00    +0.000 HD
ENDROOT
BRANCH   1  18
ATOM     17  O   UNL     1       7.226   5.373  15.693  0.00  0.00    +0.000 OA
ATOM     18  C   UNL     1       6.672   5.825  16.692  0.00  0.00    +0.000 C 
ATOM     19  N   UNL     1       5.420   5.376  17.121  0.00  0.00    +0.000 N 
ATOM     20  C   UNL     1       4.679   4.403  16.315  0.00  0.00    +0.000 C 
ATOM     21  C   UNL     1       4.361   3.118  17.118  0.00  0.00    +0.000 C 
ATOM     22  N   UNL     1       3.771   3.342  18.464  0.00  0.00    +0.000 NA
ATOM     23  C   UNL     1       4.623   4.297  19.197  0.00  0.00    +0.000 C 
ATOM     24  C   UNL     1       4.853   5.622  18.456  0.00  0.00    +0.000 C 
BRANCH  22  25
ATOM     25  C   UNL     1       2.354   3.793  18.371  0.00  0.00    +0.000 C 
BRANCH  25  26
ATOM     26  C   UNL     1       1.266   3.126  19.257  0.00  0.00    +0.000 C 
ATOM     27  F   UNL     1       0.357   2.414  18.558  0.00  0.00    +0.000 F 
ATOM     28  F   UNL     1       1.844   2.277  20.143  0.00  0.00    +0.000 F 
ATOM     29  F   UNL     1       0.587   4.053  19.971  0.00  0.00    +0.000 F 
ENDBRANCH  25  26
ENDBRANCH  22  25
ENDBRANCH   1  18
TORSDOF 3
ENDMDL
MODEL 2
REMARK VINA RESULT:      -8.2      1.646      2.238
REMARK  Name = 
REMARK  3 active torsions:
REMARK  status: ('A' for Active; 'I' for Inactive)
REMARK    1  A    between atoms: C_2  and  C_3
REMARK    2  A    between atoms: N_21  and  C_22
REMARK    3  A    between atoms: C_22  and  C_23
REMARK                            x       y       z     vdW  Elec       q    Type
REMARK                         _______ _______ _______ _____ _____    ______ ____
ROOT
ATOM      1  C   UNL     1       7.720   6.598  17.931  0.00  0.00    +0.000 A 
ATOM      2  C   UNL     1       8.258   7.429  18.893  0.00  0.00    +0.000 A 
ATOM      3  N   UNL     1       8.323   8.662  18.287  0.00  0.00    +0.000 N 
ATOM      4  C   UNL     1       8.733   9.900  18.801  0.00  0.00    +0.000 A 
ATOM      5  N   UNL     1       9.103  10.091  20.033  0.00  0.00    +0.000 NA
ATOM      6  N   UNL     1       9.603  11.343  20.226  0.00  0.00    +0.000 N 
ATOM      7  C   UNL     1       9.886  11.950  21.419  0.00  0.00    +0.000 A 
ATOM      8  C   UNL     1      10.484  13.164  21.148  0.00  0.00    +0.000 A 
ATOM      9  C   UNL     1      10.578  13.296  19.741  0.00  0.00    +0.000 A 
ATOM     10  C   UNL     1       9.945  12.190  19.211  0.00  0.00    +0.000 A 
ATOM     11  C   UNL     1       9.660  11.805  17.876  0.00  0.00    +0.000 A 
ATOM     12  O   UNL     1      10.227  12.209  16.873  0.00  0.00    +0.000 OA
ATOM     13  N   UNL     1       8.649  10.874  17.832  0.00  0.00    +0.000 N 
ATOM     14  N   UNL     1       7.904   8.564  16.999  0.00  0.00    +0.000 NA
ATOM     15  N   UNL     1       7.599   7.303  16.761  0.00  0.00    +0.000 NA
ATOM     16  H   UNL     1       7.797  11.391  18.035  0.00  0.00    +0.000 HD
ENDROOT
BRANCH   1  18
ATOM     17  O   UNL     1       8.171   4.321  18.199  0.00  0.00    +0.000 OA
ATOM     18  C   UNL     1       7.323   5.201  18.070  0.00  0.00    +0.000 C 
ATOM     19  N   UNL     1       5.953   4.929  18.090  0.00  0.00    +0.000 N 
ATOM     20  C   UNL     1       5.486   3.542  18.167  0.00  0.00    +0.000 C 
ATOM     21  C   UNL     1       4.587   3.310  19.406  0.00  0.00    +0.000 C 
ATOM     22  N   UNL     1       3.504   4.309  19.599  0.00  0.00    +0.000 NA
ATOM     23  C   UNL     1       4.096   5.658  19.549  0.00  0.00    +0.000 C 
ATOM     24  C   UNL     1       4.899   5.939  18.271  0.00  0.00    +0.000 C 
BRANCH  22  25
ATOM     25  C   UNL     1       2.408   4.127  18.606  0.00  0.00    +0.000 C 
BRANCH  25  26
ATOM     26  C   UNL     1       1.694   2.753  18.480  0.00  0.00    +0.000 C 
ATOM     27  F   UNL     1       1.747   2.008  19.604  0.00  0.00    +0.000 F 
ATOM     28  F   UNL     1       0.384   2.935  18.182  0.00  0.00    +0.000 F 
ATOM     29  F   UNL     1       2.235   2.015  17.483  0.00  0.00    +0.000 F 
ENDBRANCH  25  26
ENDBRANCH  22  25
ENDBRANCH   1  18
TORSDOF 3
ENDMDL
MODEL 3
REMARK VINA RESULT:      -7.7      6.271      8.679
REMARK  Name = 
REMARK  3 active torsions:
REMARK  status: ('A' for Active; 'I' for Inactive)
REMARK    1  A    between atoms: C_2  and  C_3
REMARK    2  A    between atoms: N_21  and  C_22
REMARK    3  A    between atoms: C_22  and  C_23
REMARK                            x       y       z     vdW  Elec       q    Type
REMARK                         _______ _______ _______ _____ _____    ______ ____
ROOT
ATOM      1  C   UNL     1       1.312   8.555  20.526  0.00  0.00    +0.000 A 
ATOM      2  C   UNL     1       2.177   8.415  19.461  0.00  0.00    +0.000 A 
ATOM      3  N   UNL     1       2.456   7.069  19.417  0.00  0.00    +0.000 N 
ATOM      4  C   UNL     1       3.233   6.337  18.509  0.00  0.00    +0.000 A 
ATOM      5  N   UNL     1       3.819   6.853  17.469  0.00  0.00    +0.000 NA
ATOM      6  N   UNL     1       4.639   5.958  16.849  0.00  0.00    +0.000 N 
ATOM      7  C   UNL     1       5.239   6.090  15.628  0.00  0.00    +0.000 A 
ATOM      8  C   UNL     1       6.073   5.005  15.445  0.00  0.00    +0.000 A 
ATOM      9  C   UNL     1       5.985   4.191  16.600  0.00  0.00    +0.000 A 
ATOM     10  C   UNL     1       5.025   4.771  17.403  0.00  0.00    +0.000 A 
ATOM     11  C   UNL     1       4.456   4.379  18.643  0.00  0.00    +0.000 A 
ATOM     12  O   UNL     1       4.949   3.606  19.449  0.00  0.00    +0.000 OA
ATOM     13  N   UNL     1       3.251   5.005  18.856  0.00  0.00    +0.000 N 
ATOM     14  N   UNL     1       1.838   6.438  20.448  0.00  0.00    +0.000 NA
ATOM     15  N   UNL     1       1.196   7.345  21.160  0.00  0.00    +0.000 NA
ATOM     16  H   UNL     1       2.595   4.548  18.228  0.00  0.00    +0.000 HD
ENDROOT
BRANCH   1  18
ATOM     17  O   UNL     1       0.991  10.391  21.937  0.00  0.00    +0.000 OA
ATOM     18  C   UNL     1       0.605   9.757  20.958  0.00  0.00    +0.000 C 
ATOM     19  N   UNL     1      -0.488  10.161  20.187  0.00  0.00    +0.000 N 
ATOM     20  C   UNL     1      -1.278  11.325  20.598  0.00  0.00    +0.000 C 
ATOM     21  C   UNL     1      -1.308  12.414  19.498  0.00  0.00    +0.000 C 
ATOM     22  N   UNL     1      -1.638  11.928  18.133  0.00  0.00    +0.000 NA
ATOM     23  C   UNL     1      -0.753  10.793  17.812  0.00  0.00    +0.000 C 
ATOM     24  C   UNL     1      -0.801   9.655  18.842  0.00  0.00    +0.000 C 
BRANCH  22  25
ATOM     25  C   UNL     1      -3.082  11.581  18.012  0.00  0.00    +0.000 C 
BRANCH  25  26
ATOM     26  C   UNL     1      -3.620  10.940  16.702  0.00  0.00    +0.000 C 
ATOM     27  F   UNL     1      -2.953  11.327  15.595  0.00  0.00    +0.000 F 
ATOM     28  F   UNL     1      -3.529   9.589  16.774  0.00  0.00    +0.000 F 
ATOM     29  F   UNL     1      -4.925  11.246  16.514  0.00  0.00    +0.000 F 
ENDBRANCH  25  26
ENDBRANCH  22  25
ENDBRANCH   1  18
TORSDOF 3
ENDMDL
MODEL 4
REMARK VINA RESULT:      -7.6      1.535      2.013
REMARK  Name = 
REMARK  3 active torsions:
REMARK  status: ('A' for Active; 'I' for Inactive)
REMARK    1  A    between atoms: C_2  and  C_3
REMARK    2  A    between atoms: N_21  and  C_22
REMARK    3  A    between atoms: C_22  and  C_23
REMARK                            x       y       z     vdW  Elec       q    Type
REMARK                         _______ _______ _______ _____ _____    ______ ____
ROOT
ATOM      1  C   UNL     1       7.362   6.763  17.704  0.00  0.00    +0.000 A 
ATOM      2  C   UNL     1       8.235   7.495  18.481  0.00  0.00    +0.000 A 
ATOM      3  N   UNL     1       8.014   8.802  18.113  0.00  0.00    +0.000 N 
ATOM      4  C   UNL     1       8.575   9.987  18.608  0.00  0.00    +0.000 A 
ATOM      5  N   UNL     1       9.424  10.036  19.592  0.00  0.00    +0.000 NA
ATOM      6  N   UNL     1       9.932  11.288  19.765  0.00  0.00    +0.000 N 
ATOM      7  C   UNL     1      10.677  11.744  20.817  0.00  0.00    +0.000 A 
ATOM      8  C   UNL     1      11.080  13.032  20.527  0.00  0.00    +0.000 A 
ATOM      9  C   UNL     1      10.571  13.367  19.248  0.00  0.00    +0.000 A 
ATOM     10  C   UNL     1       9.799  12.295  18.853  0.00  0.00    +0.000 A 
ATOM     11  C   UNL     1       8.987  12.076  17.709  0.00  0.00    +0.000 A 
ATOM     12  O   UNL     1       9.072  12.665  16.643  0.00  0.00    +0.000 OA
ATOM     13  N   UNL     1       8.072  11.075  17.933  0.00  0.00    +0.000 N 
ATOM     14  N   UNL     1       7.095   8.848  17.115  0.00  0.00    +0.000 NA
ATOM     15  N   UNL     1       6.746   7.611  16.820  0.00  0.00    +0.000 NA
ATOM     16  H   UNL     1       7.373  11.482  18.550  0.00  0.00    +0.000 HD
ENDROOT
BRANCH   1  18
ATOM     17  O   UNL     1       8.008   4.517  17.690  0.00  0.00    +0.000 OA
ATOM     18  C   UNL     1       7.090   5.331  17.763  0.00  0.00    +0.000 C 
ATOM     19  N   UNL     1       5.759   4.944  17.945  0.00  0.00    +0.000 N 
ATOM     20  C   UNL     1       5.409   3.521  17.954  0.00  0.00    +0.000 C 
ATOM     21  C   UNL     1       4.716   3.111  19.276  0.00  0.00    +0.000 C 
ATOM     22  N   UNL     1       3.604   3.996  19.710  0.00  0.00    +0.000 NA
ATOM     23  C   UNL     1       4.085   5.389  19.708  0.00  0.00    +0.000 C 
ATOM     24  C   UNL     1       4.673   5.842  18.363  0.00  0.00    +0.000 C 
BRANCH  22  25
ATOM     25  C   UNL     1       2.393   3.806  18.864  0.00  0.00    +0.000 C 
BRANCH  25  26
ATOM     26  C   UNL     1       1.140   3.096  19.447  0.00  0.00    +0.000 C 
ATOM     27  F   UNL     1       0.388   2.470  18.517  0.00  0.00    +0.000 F 
ATOM     28  F   UNL     1       1.515   2.161  20.355  0.00  0.00    +0.000 F 
ATOM     29  F   UNL     1       0.337   3.978  20.086  0.00  0.00    +0.000 F 
ENDBRANCH  25  26
ENDBRANCH  22  25
ENDBRANCH   1  18
TORSDOF 3
ENDMDL
MODEL 5
REMARK VINA RESULT:      -7.6      6.105      8.801
REMARK  Name = 
REMARK  3 active torsions:
REMARK  status: ('A' for Active; 'I' for Inactive)
REMARK    1  A    between atoms: C_2  and  C_3
REMARK    2  A    between atoms: N_21  and  C_22
REMARK    3  A    between atoms: C_22  and  C_23
REMARK                            x       y       z     vdW  Elec       q    Type
REMARK                         _______ _______ _______ _____ _____    ______ ____
ROOT
ATOM      1  C   UNL     1       1.516   8.001  20.806  0.00  0.00    +0.000 A 
ATOM      2  C   UNL     1       2.405   7.950  19.752  0.00  0.00    +0.000 A 
ATOM      3  N   UNL     1       2.462   6.618  19.413  0.00  0.00    +0.000 N 
ATOM      4  C   UNL     1       3.159   5.979  18.378  0.00  0.00    +0.000 A 
ATOM      5  N   UNL     1       3.879   6.601  17.491  0.00  0.00    +0.000 NA
ATOM      6  N   UNL     1       4.575   5.736  16.702  0.00  0.00    +0.000 N 
ATOM      7  C   UNL     1       5.256   6.026  15.552  0.00  0.00    +0.000 A 
ATOM      8  C   UNL     1       5.911   4.881  15.145  0.00  0.00    +0.000 A 
ATOM      9  C   UNL     1       5.627   3.862  16.087  0.00  0.00    +0.000 A 
ATOM     10  C   UNL     1       4.731   4.409  16.982  0.00  0.00    +0.000 A 
ATOM     11  C   UNL     1       4.037   3.860  18.091  0.00  0.00    +0.000 A 
ATOM     12  O   UNL     1       4.351   2.857  18.713  0.00  0.00    +0.000 OA
ATOM     13  N   UNL     1       2.940   4.621  18.418  0.00  0.00    +0.000 N 
ATOM     14  N   UNL     1       1.693   5.894  20.265  0.00  0.00    +0.000 NA
ATOM     15  N   UNL     1       1.169   6.720  21.150  0.00  0.00    +0.000 NA
ATOM     16  H   UNL     1       2.254   4.432  17.691  0.00  0.00    +0.000 HD
ENDROOT
BRANCH   1  18
ATOM     17  O   UNL     1       1.501   9.582  22.527  0.00  0.00    +0.000 OA
ATOM     18  C   UNL     1       0.992   9.183  21.483  0.00  0.00    +0.000 C 
ATOM     19  N   UNL     1      -0.074   9.845  20.869  0.00  0.00    +0.000 N 
ATOM     20  C   UNL     1      -0.687  11.004  21.525  0.00  0.00    +0.000 C 
ATOM     21  C   UNL     1      -0.626  12.266  20.631  0.00  0.00    +0.000 C 
ATOM     22  N   UNL     1      -1.080  12.073  19.229  0.00  0.00    +0.000 NA
ATOM     23  C   UNL     1      -0.365  10.916  18.660  0.00  0.00    +0.000 C 
ATOM     24  C   UNL     1      -0.513   9.627  19.482  0.00  0.00    +0.000 C 
BRANCH  22  25
ATOM     25  C   UNL     1      -2.561  11.928  19.149  0.00  0.00    +0.000 C 
BRANCH  25  26
ATOM     26  C   UNL     1      -3.224  11.431  17.835  0.00  0.00    +0.000 C 
ATOM     27  F   UNL     1      -4.411  12.016  17.571  0.00  0.00    +0.000 F 
ATOM     28  F   UNL     1      -2.410  11.680  16.780  0.00  0.00    +0.000 F 
ATOM     29  F   UNL     1      -3.434  10.095  17.874  0.00  0.00    +0.000 F 
ENDBRANCH  25  26
ENDBRANCH  22  25
ENDBRANCH   1  18
TORSDOF 3
ENDMDL
MODEL 6
REMARK VINA RESULT:      -7.4      6.920      9.346
REMARK  Name = 
REMARK  3 active torsions:
REMARK  status: ('A' for Active; 'I' for Inactive)
REMARK    1  A    between atoms: C_2  and  C_3
REMARK    2  A    between atoms: N_21  and  C_22
REMARK    3  A    between atoms: C_22  and  C_23
REMARK                            x       y       z     vdW  Elec       q    Type
REMARK                         _______ _______ _______ _____ _____    ______ ____
ROOT
ATOM      1  C   UNL     1       1.197   9.215  18.810  0.00  0.00    +0.000 A 
ATOM      2  C   UNL     1       2.059   8.758  17.835  0.00  0.00    +0.000 A 
ATOM      3  N   UNL     1       2.704   7.691  18.416  0.00  0.00    +0.000 N 
ATOM      4  C   UNL     1       3.649   6.806  17.880  0.00  0.00    +0.000 A 
ATOM      5  N   UNL     1       4.060   6.838  16.646  0.00  0.00    +0.000 NA
ATOM      6  N   UNL     1       5.092   5.976  16.430  0.00  0.00    +0.000 N 
ATOM      7  C   UNL     1       5.624   5.601  15.227  0.00  0.00    +0.000 A 
ATOM      8  C   UNL     1       6.727   4.810  15.477  0.00  0.00    +0.000 A 
ATOM      9  C   UNL     1       6.878   4.710  16.882  0.00  0.00    +0.000 A 
ATOM     10  C   UNL     1       5.800   5.372  17.430  0.00  0.00    +0.000 A 
ATOM     11  C   UNL     1       5.372   5.549  18.771  0.00  0.00    +0.000 A 
ATOM     12  O   UNL     1       6.067   5.441  19.769  0.00  0.00    +0.000 OA
ATOM     13  N   UNL     1       4.041   5.889  18.828  0.00  0.00    +0.000 N 
ATOM     14  N   UNL     1       2.293   7.553  19.703  0.00  0.00    +0.000 NA
ATOM     15  N   UNL     1       1.429   8.514  19.965  0.00  0.00    +0.000 NA
ATOM     16  H   UNL     1       3.534   5.034  18.610  0.00  0.00    +0.000 HD
ENDROOT
BRANCH   1  18
ATOM     17  O   UNL     1      -1.011   9.975  18.707  0.00  0.00    +0.000 OA
ATOM     18  C   UNL     1       0.184  10.260  18.697  0.00  0.00    +0.000 C 
ATOM     19  N   UNL     1       0.639  11.579  18.619  0.00  0.00    +0.000 N 
ATOM     20  C   UNL     1      -0.322  12.672  18.445  0.00  0.00    +0.000 C 
ATOM     21  C   UNL     1      -0.225  13.707  19.592  0.00  0.00    +0.000 C 
ATOM     22  N   UNL     1       1.149  14.174  19.910  0.00  0.00    +0.000 NA
ATOM     23  C   UNL     1       2.011  12.995  20.111  0.00  0.00    +0.000 C 
ATOM     24  C   UNL     1       2.010  12.015  18.928  0.00  0.00    +0.000 C 
BRANCH  22  25
ATOM     25  C   UNL     1       1.671  15.093  18.860  0.00  0.00    +0.000 C 
BRANCH  25  26
ATOM     26  C   UNL     1       1.059  16.512  18.695  0.00  0.00    +0.000 C 
ATOM     27  F   UNL     1      -0.114  16.523  18.029  0.00  0.00    +0.000 F 
ATOM     28  F   UNL     1       0.834  17.066  19.912  0.00  0.00    +0.000 F 
ATOM     29  F   UNL     1       1.907  17.331  18.031  0.00  0.00    +0.000 F 
ENDBRANCH  25  26
ENDBRANCH  22  25
ENDBRANCH   1  18
TORSDOF 3
ENDMDL
MODEL 7
REMARK VINA RESULT:      -7.4      6.610      8.805
REMARK  Name = 
REMARK  3 active torsions:
REMARK  status: ('A' for Active; 'I' for Inactive)
REMARK    1  A    between atoms: C_2  and  C_3
REMARK    2  A    between atoms: N_21  and  C_22
REMARK    3  A    between atoms: C_22  and  C_23
REMARK                            x       y       z     vdW  Elec       q    Type
REMARK                         _______ _______ _______ _____ _____    ______ ____
ROOT
ATOM      1  C   UNL     1       1.422   9.170  19.616  0.00  0.00    +0.000 A 
ATOM      2  C   UNL     1       2.267   8.840  18.577  0.00  0.00    +0.000 A 
ATOM      3  N   UNL     1       2.621   7.533  18.821  0.00  0.00    +0.000 N 
ATOM      4  C   UNL     1       3.416   6.658  18.069  0.00  0.00    +0.000 A 
ATOM      5  N   UNL     1       3.947   6.959  16.920  0.00  0.00    +0.000 NA
ATOM      6  N   UNL     1       4.800   5.991  16.484  0.00  0.00    +0.000 N 
ATOM      7  C   UNL     1       5.362   5.878  15.242  0.00  0.00    +0.000 A 
ATOM      8  C   UNL     1       6.251   4.822  15.272  0.00  0.00    +0.000 A 
ATOM      9  C   UNL     1       6.238   4.282  16.582  0.00  0.00    +0.000 A 
ATOM     10  C   UNL     1       5.267   4.978  17.271  0.00  0.00    +0.000 A 
ATOM     11  C   UNL     1       4.751   4.843  18.586  0.00  0.00    +0.000 A 
ATOM     12  O   UNL     1       5.307   4.294  19.525  0.00  0.00    +0.000 OA
ATOM     13  N   UNL     1       3.518   5.439  18.701  0.00  0.00    +0.000 N 
ATOM     14  N   UNL     1       2.065   7.118  19.988  0.00  0.00    +0.000 NA
ATOM     15  N   UNL     1       1.391   8.127  20.505  0.00  0.00    +0.000 NA
ATOM     16  H   UNL     1       2.873   4.822  18.212  0.00  0.00    +0.000 HD
ENDROOT
BRANCH   1  18
ATOM     17  O   UNL     1       1.182  11.392  20.300  0.00  0.00    +0.000 OA
ATOM     18  C   UNL     1       0.659  10.401  19.797  0.00  0.00    +0.000 C 
ATOM     19  N   UNL     1      -0.661  10.402  19.339  0.00  0.00    +0.000 N 
ATOM     20  C   UNL     1      -1.502  11.585  19.543  0.00  0.00    +0.000 C 
ATOM     21  C   UNL     1      -2.036  12.146  18.203  0.00  0.00    +0.000 C 
ATOM     22  N   UNL     1      -2.642  11.140  17.292  0.00  0.00    +0.000 NA
ATOM     23  C   UNL     1      -1.692  10.026  17.124  0.00  0.00    +0.000 C 
ATOM     24  C   UNL     1      -1.242   9.388  18.447  0.00  0.00    +0.000 C 
BRANCH  22  25
ATOM     25  C   UNL     1      -3.974  10.690  17.784  0.00  0.00    +0.000 C 
BRANCH  25  26
ATOM     26  C   UNL     1      -5.188  11.659  17.742  0.00  0.00    +0.000 C 
ATOM     27  F   UNL     1      -5.197  12.470  16.664  0.00  0.00    +0.000 F 
ATOM     28  F   UNL     1      -6.346  10.955  17.724  0.00  0.00    +0.000 F 
ATOM     29  F   UNL     1      -5.215  12.450  18.840  0.00  0.00    +0.000 F 
ENDBRANCH  25  26
ENDBRANCH  22  25
ENDBRANCH   1  18
TORSDOF 3
ENDMDL
MODEL 8
REMARK VINA RESULT:      -7.4      6.886      8.874
REMARK  Name = 
REMARK  3 active torsions:
REMARK  status: ('A' for Active; 'I' for Inactive)
REMARK    1  A    between atoms: C_2  and  C_3
REMARK    2  A    between atoms: N_21  and  C_22
REMARK    3  A    between atoms: C_22  and  C_23
REMARK                            x       y       z     vdW  Elec       q    Type
REMARK                         _______ _______ _______ _____ _____    ______ ____
ROOT
ATOM      1  C   UNL     1       1.347   8.931  18.799  0.00  0.00    +0.000 A 
ATOM      2  C   UNL     1       2.243   8.501  17.842  0.00  0.00    +0.000 A 
ATOM      3  N   UNL     1       2.895   7.442  18.430  0.00  0.00    +0.000 N 
ATOM      4  C   UNL     1       3.872   6.582  17.910  0.00  0.00    +0.000 A 
ATOM      5  N   UNL     1       4.313   6.633  16.688  0.00  0.00    +0.000 NA
ATOM      6  N   UNL     1       5.369   5.796  16.491  0.00  0.00    +0.000 N 
ATOM      7  C   UNL     1       5.938   5.443  15.298  0.00  0.00    +0.000 A 
ATOM      8  C   UNL     1       7.050   4.672  15.569  0.00  0.00    +0.000 A 
ATOM      9  C   UNL     1       7.169   4.562  16.977  0.00  0.00    +0.000 A 
ATOM     10  C   UNL     1       6.063   5.197  17.503  0.00  0.00    +0.000 A 
ATOM     11  C   UNL     1       5.598   5.352  18.834  0.00  0.00    +0.000 A 
ATOM     12  O   UNL     1       6.269   5.250  19.849  0.00  0.00    +0.000 OA
ATOM     13  N   UNL     1       4.259   5.664  18.860  0.00  0.00    +0.000 N 
ATOM     14  N   UNL     1       2.456   7.283  19.705  0.00  0.00    +0.000 NA
ATOM     15  N   UNL     1       1.565   8.224  19.953  0.00  0.00    +0.000 NA
ATOM     16  H   UNL     1       3.776   4.801  18.622  0.00  0.00    +0.000 HD
ENDROOT
BRANCH   1  18
ATOM     17  O   UNL     1      -0.407   9.991  17.677  0.00  0.00    +0.000 OA
ATOM     18  C   UNL     1       0.317   9.956  18.670  0.00  0.00    +0.000 C 
ATOM     19  N   UNL     1       0.174  10.851  19.733  0.00  0.00    +0.000 N 
ATOM     20  C   UNL     1      -0.802  11.941  19.642  0.00  0.00    +0.000 C 
ATOM     21  C   UNL     1      -1.834  11.883  20.794  0.00  0.00    +0.000 C 
ATOM     22  N   UNL     1      -1.257  11.718  22.154  0.00  0.00    +0.000 NA
ATOM     23  C   UNL     1      -0.333  10.570  22.135  0.00  0.00    +0.000 C 
ATOM     24  C   UNL     1       0.766  10.672  21.067  0.00  0.00    +0.000 C 
BRANCH  22  25
ATOM     25  C   UNL     1      -0.605  12.972  22.626  0.00  0.00    +0.000 C 
BRANCH  25  26
ATOM     26  C   UNL     1      -1.445  14.061  23.348  0.00  0.00    +0.000 C 
ATOM     27  F   UNL     1      -0.788  14.675  24.355  0.00  0.00    +0.000 F 
ATOM     28  F   UNL     1      -1.816  15.023  22.467  0.00  0.00    +0.000 F 
ATOM     29  F   UNL     1      -2.577  13.534  23.869  0.00  0.00    +0.000 F 
ENDBRANCH  25  26
ENDBRANCH  22  25
ENDBRANCH   1  18
TORSDOF 3
ENDMDL
MODEL 9
REMARK VINA RESULT:      -7.4      6.864      9.951
REMARK  Name = 
REMARK  3 active torsions:
REMARK  status: ('A' for Active; 'I' for Inactive)
REMARK    1  A    between atoms: C_2  and  C_3
REMARK    2  A    between atoms: N_21  and  C_22
REMARK    3  A    between atoms: C_22  and  C_23
REMARK                            x       y       z     vdW  Elec       q    Type
REMARK                         _______ _______ _______ _____ _____    ______ ____
ROOT
ATOM      1  C   UNL     1       1.814   9.969  18.643  0.00  0.00    +0.000 A 
ATOM      2  C   UNL     1       1.750   8.934  19.552  0.00  0.00    +0.000 A 
ATOM      3  N   UNL     1       2.007   7.805  18.809  0.00  0.00    +0.000 N 
ATOM      4  C   UNL     1       2.126   6.468  19.209  0.00  0.00    +0.000 A 
ATOM      5  N   UNL     1       2.047   6.066  20.444  0.00  0.00    +0.000 NA
ATOM      6  N   UNL     1       2.036   4.708  20.539  0.00  0.00    +0.000 N 
ATOM      7  C   UNL     1       2.170   3.953  21.672  0.00  0.00    +0.000 A 
ATOM      8  C   UNL     1       1.980   2.630  21.327  0.00  0.00    +0.000 A 
ATOM      9  C   UNL     1       1.710   2.579  19.937  0.00  0.00    +0.000 A 
ATOM     10  C   UNL     1       1.839   3.873  19.476  0.00  0.00    +0.000 A 
ATOM     11  C   UNL     1       1.758   4.433  18.175  0.00  0.00    +0.000 A 
ATOM     12  O   UNL     1       1.206   3.932  17.208  0.00  0.00    +0.000 OA
ATOM     13  N   UNL     1       2.375   5.661  18.123  0.00  0.00    +0.000 N 
ATOM     14  N   UNL     1       2.155   8.141  17.501  0.00  0.00    +0.000 NA
ATOM     15  N   UNL     1       1.974   9.442  17.388  0.00  0.00    +0.000 NA
ATOM     16  H   UNL     1       3.373   5.462  18.150  0.00  0.00    +0.000 HD
ENDROOT
BRANCH   1  18
ATOM     17  O   UNL     1       2.375  12.199  18.226  0.00  0.00    +0.000 OA
ATOM     18  C   UNL     1       1.734  11.403  18.907  0.00  0.00    +0.000 C 
ATOM     19  N   UNL     1       0.875  11.814  19.929  0.00  0.00    +0.000 N 
ATOM     20  C   UNL     1       0.792  13.233  20.285  0.00  0.00    +0.000 C 
ATOM     21  C   UNL     1      -0.651  13.775  20.145  0.00  0.00    +0.000 C 
ATOM     22  N   UNL     1      -1.705  12.943  20.782  0.00  0.00    +0.000 NA
ATOM     23  C   UNL     1      -1.552  11.553  20.316  0.00  0.00    +0.000 C 
ATOM     24  C   UNL     1      -0.153  10.967  20.553  0.00  0.00    +0.000 C 
BRANCH  22  25
ATOM     25  C   UNL     1      -1.666  13.057  22.268  0.00  0.00    +0.000 C 
BRANCH  25  26
ATOM     26  C   UNL     1      -2.787  12.408  23.127  0.00  0.00    +0.000 C 
ATOM     27  F   UNL     1      -3.118  13.127  24.220  0.00  0.00    +0.000 F 
ATOM     28  F   UNL     1      -3.914  12.261  22.388  0.00  0.00    +0.000 F 
ATOM     29  F   UNL     1      -2.420  11.177  23.551  0.00  0.00    +0.000 F 
ENDBRANCH  25  26
ENDBRANCH  22  25
ENDBRANCH   1  18
TORSDOF 3
ENDMDL
