MODEL 1
REMARK VINA RESULT:      -7.9      0.000      0.000
REMARK  Name = 
REMARK  9 active torsions:
REMARK  status: ('A' for Active; 'I' for Inactive)
REMARK    1  A    between atoms: C_1  and  C_2
REMARK    2  A    between atoms: C_2  and  O_3
REMARK    3  A    between atoms: O_3  and  C_4
REMARK    4  A    between atoms: C_9  and  N_10
REMARK    5  A    between atoms: C_12  and  C_13
REMARK    6  A    between atoms: N_15  and  C_16
REMARK    7  A    between atoms: C_17  and  C_18
REMARK    8  A    between atoms: N_19  and  C_20
REMARK    9  A    between atoms: N_21  and  C_22
REMARK                            x       y       z     vdW  Elec       q    Type
REMARK                         _______ _______ _______ _____ _____    ______ ____
ROOT
ATOM      1  C   UNL     1      -0.136  10.576  18.940  0.00  0.00    +0.000 C 
ATOM      2  O   UNL     1      -0.991   9.750  18.673  0.00  0.00    +0.000 OA
ATOM      3  N   UNL     1       1.141  10.240  19.376  0.00  0.00    +0.000 N 
ATOM      4  H   UNL     1       1.602  10.863  20.029  0.00  0.00    +0.000 HD
ENDROOT
BRANCH   3   5
ATOM      5  C   UNL     1       1.564   8.933  19.456  0.00  0.00    +0.000 A 
ATOM      6  C   UNL     1       1.568   8.072  20.484  0.00  0.00    +0.000 A 
ATOM      7  C   UNL     1       1.118   8.339  21.883  0.00  0.00    +0.000 C 
ATOM      8  N   UNL     1       1.949   6.802  20.068  0.00  0.00    +0.000 N 
ATOM      9  C   UNL     1       2.185   5.613  20.857  0.00  0.00    +0.000 C 
ATOM     10  N   UNL     1       2.160   6.831  18.669  0.00  0.00    +0.000 N 
ATOM     11  C   UNL     1       2.153   8.183  18.295  0.00  0.00    +0.000 A 
ATOM     12  O   UNL     1       2.557   8.722  17.276  0.00  0.00    +0.000 OA
BRANCH  10  13
ATOM     13  C   UNL     1       2.929   5.828  18.051  0.00  0.00    +0.000 A 
ATOM     14  C   UNL     1       4.298   5.978  17.815  0.00  0.00    +0.000 A 
ATOM     15  C   UNL     1       5.023   4.926  17.248  0.00  0.00    +0.000 A 
ATOM     16  C   UNL     1       4.382   3.737  16.895  0.00  0.00    +0.000 A 
ATOM     17  C   UNL     1       3.013   3.592  17.114  0.00  0.00    +0.000 A 
ATOM     18  C   UNL     1       2.290   4.632  17.697  0.00  0.00    +0.000 A 
ENDBRANCH  10  13
ENDBRANCH   3   5
BRANCH   1  21
ATOM     19  N   UNL     1      -2.795  12.174  19.279  0.00  0.00    +0.000 N 
ATOM     20  C   UNL     1      -1.828  12.340  18.239  0.00  0.00    +0.000 C 
ATOM     21  C   UNL     1      -0.485  12.090  18.876  0.00  0.00    +0.000 C 
ATOM     22  C   UNL     1      -0.689  12.739  20.201  0.00  0.00    +0.000 C 
ATOM     23  C   UNL     1      -2.133  12.429  20.510  0.00  0.00    +0.000 C 
ATOM     24  O   UNL     1      -2.555  12.423  21.657  0.00  0.00    +0.000 OA
BRANCH  19  30
ATOM     25  C   UNL     1      -4.894  11.323  18.090  0.00  0.00    +0.000 A 
ATOM     26  C   UNL     1      -6.309  11.432  17.957  0.00  0.00    +0.000 A 
ATOM     27  C   UNL     1      -7.064  12.242  18.793  0.00  0.00    +0.000 A 
ATOM     28  C   UNL     1      -6.439  12.946  19.801  0.00  0.00    +0.000 A 
ATOM     29  C   UNL     1      -5.055  12.850  19.953  0.00  0.00    +0.000 A 
ATOM     30  C   UNL     1      -4.223  12.083  19.110  0.00  0.00    +0.000 A 
BRANCH  25  31
ATOM     31  O   UNL     1      -4.403  10.457  17.159  0.00  0.00    +0.000 OA
BRANCH  31  33
ATOM     32  C   UNL     1      -3.368  10.078  14.933  0.00  0.00    +0.000 C 
ATOM     33  C   UNL     1      -4.011  10.993  15.909  0.00  0.00    +0.000 C 
ENDBRANCH  31  33
ENDBRANCH  25  31
ENDBRANCH  19  30
ENDBRANCH   1  21
TORSDOF 6
ENDMDL
MODEL 2
REMARK VINA RESULT:      -7.9      1.644      2.688
REMARK  Name = 
REMARK  9 active torsions:
REMARK  status: ('A' for Active; 'I' for Inactive)
REMARK    1  A    between atoms: C_1  and  C_2
REMARK    2  A    between atoms: C_2  and  O_3
REMARK    3  A    between atoms: O_3  and  C_4
REMARK    4  A    between atoms: C_9  and  N_10
REMARK    5  A    between atoms: C_12  and  C_13
REMARK    6  A    between atoms: N_15  and  C_16
REMARK    7  A    between atoms: C_17  and  C_18
REMARK    8  A    between atoms: N_19  and  C_20
REMARK    9  A    between atoms: N_21  and  C_22
REMARK                            x       y       z     vdW  Elec       q    Type
REMARK                         _______ _______ _______ _____ _____    ______ ____
ROOT
ATOM      1  C   UNL     1      -0.216  10.627  18.936  0.00  0.00    +0.000 C 
ATOM      2  O   UNL     1      -1.105   9.797  18.856  0.00  0.00    +0.000 OA
ATOM      3  N   UNL     1       1.106  10.306  19.223  0.00  0.00    +0.000 N 
ATOM      4  H   UNL     1       1.655  10.971  19.754  0.00  0.00    +0.000 HD
ENDROOT
BRANCH   3   5
ATOM      5  C   UNL     1       1.527   9.002  19.352  0.00  0.00    +0.000 A 
ATOM      6  C   UNL     1       1.539   8.184  20.414  0.00  0.00    +0.000 A 
ATOM      7  C   UNL     1       1.101   8.508  21.805  0.00  0.00    +0.000 C 
ATOM      8  N   UNL     1       1.914   6.897  20.047  0.00  0.00    +0.000 N 
ATOM      9  C   UNL     1       2.155   5.740  20.881  0.00  0.00    +0.000 C 
ATOM     10  N   UNL     1       2.114   6.869  18.646  0.00  0.00    +0.000 N 
ATOM     11  C   UNL     1       2.106   8.205  18.217  0.00  0.00    +0.000 A 
ATOM     12  O   UNL     1       2.502   8.701  17.174  0.00  0.00    +0.000 OA
BRANCH  10  13
ATOM     13  C   UNL     1       2.877   5.840  18.063  0.00  0.00    +0.000 A 
ATOM     14  C   UNL     1       4.249   5.966  17.839  0.00  0.00    +0.000 A 
ATOM     15  C   UNL     1       4.967   4.891  17.308  0.00  0.00    +0.000 A 
ATOM     16  C   UNL     1       4.314   3.701  16.979  0.00  0.00    +0.000 A 
ATOM     17  C   UNL     1       2.941   3.580  17.185  0.00  0.00    +0.000 A 
ATOM     18  C   UNL     1       2.225   4.644  17.732  0.00  0.00    +0.000 A 
ENDBRANCH  10  13
ENDBRANCH   3   5
BRANCH   1  21
ATOM     19  N   UNL     1      -1.756  12.648  20.750  0.00  0.00    +0.000 N 
ATOM     20  C   UNL     1      -1.928  12.464  19.342  0.00  0.00    +0.000 C 
ATOM     21  C   UNL     1      -0.562  12.137  18.796  0.00  0.00    +0.000 C 
ATOM     22  C   UNL     1       0.283  13.049  19.615  0.00  0.00    +0.000 C 
ATOM     23  C   UNL     1      -0.403  13.028  20.960  0.00  0.00    +0.000 C 
ATOM     24  O   UNL     1       0.196  13.303  21.988  0.00  0.00    +0.000 OA
BRANCH  19  30
ATOM     25  C   UNL     1      -4.014  13.510  21.586  0.00  0.00    +0.000 A 
ATOM     26  C   UNL     1      -4.904  13.627  22.693  0.00  0.00    +0.000 A 
ATOM     27  C   UNL     1      -4.645  13.011  23.909  0.00  0.00    +0.000 A 
ATOM     28  C   UNL     1      -3.509  12.242  24.052  0.00  0.00    +0.000 A 
ATOM     29  C   UNL     1      -2.627  12.110  22.979  0.00  0.00    +0.000 A 
ATOM     30  C   UNL     1      -2.805  12.745  21.732  0.00  0.00    +0.000 A 
BRANCH  25  31
ATOM     31  O   UNL     1      -4.509  14.195  20.515  0.00  0.00    +0.000 OA
BRANCH  31  33
ATOM     32  C   UNL     1      -5.613  12.206  19.516  0.00  0.00    +0.000 C 
ATOM     33  C   UNL     1      -5.637  13.651  19.855  0.00  0.00    +0.000 C 
ENDBRANCH  31  33
ENDBRANCH  25  31
ENDBRANCH  19  30
ENDBRANCH   1  21
TORSDOF 6
ENDMDL
MODEL 3
REMARK VINA RESULT:      -7.8      2.581      3.582
REMARK  Name = 
REMARK  9 active torsions:
REMARK  status: ('A' for Active; 'I' for Inactive)
REMARK    1  A    between atoms: C_1  and  C_2
REMARK    2  A    between atoms: C_2  and  O_3
REMARK    3  A    between atoms: O_3  and  C_4
REMARK    4  A    between atoms: C_9  and  N_10
REMARK    5  A    between atoms: C_12  and  C_13
REMARK    6  A    between atoms: N_15  and  C_16
REMARK    7  A    between atoms: C_17  and  C_18
REMARK    8  A    between atoms: N_19  and  C_20
REMARK    9  A    between atoms: N_21  and  C_22
REMARK                            x       y       z     vdW  Elec       q    Type
REMARK                         _______ _______ _______ _____ _____    ______ ____
ROOT
ATOM      1  C   UNL     1      -0.003  10.809  19.028  0.00  0.00    +0.000 C 
ATOM      2  O   UNL     1      -0.965  10.071  19.143  0.00  0.00    +0.000 OA
ATOM      3  N   UNL     1       1.312  10.374  19.145  0.00  0.00    +0.000 N 
ATOM      4  H   UNL     1       1.994  11.013  19.536  0.00  0.00    +0.000 HD
ENDROOT
BRANCH   3   5
ATOM      5  C   UNL     1       1.628   9.046  19.314  0.00  0.00    +0.000 A 
ATOM      6  C   UNL     1       1.559   8.256  20.395  0.00  0.00    +0.000 A 
ATOM      7  C   UNL     1       1.126   8.650  21.770  0.00  0.00    +0.000 C 
ATOM      8  N   UNL     1       1.838   6.935  20.067  0.00  0.00    +0.000 N 
ATOM      9  C   UNL     1       1.974   5.785  20.933  0.00  0.00    +0.000 C 
ATOM     10  N   UNL     1       2.057   6.855  18.671  0.00  0.00    +0.000 N 
ATOM     11  C   UNL     1       2.160   8.176  18.209  0.00  0.00    +0.000 A 
ATOM     12  O   UNL     1       2.611   8.613  17.161  0.00  0.00    +0.000 OA
BRANCH  10  13
ATOM     13  C   UNL     1       2.746   5.755  18.127  0.00  0.00    +0.000 A 
ATOM     14  C   UNL     1       4.135   5.741  17.987  0.00  0.00    +0.000 A 
ATOM     15  C   UNL     1       4.772   4.600  17.492  0.00  0.00    +0.000 A 
ATOM     16  C   UNL     1       4.022   3.483  17.115  0.00  0.00    +0.000 A 
ATOM     17  C   UNL     1       2.634   3.501  17.237  0.00  0.00    +0.000 A 
ATOM     18  C   UNL     1       1.998   4.632  17.748  0.00  0.00    +0.000 A 
ENDBRANCH  10  13
ENDBRANCH   3   5
BRANCH   1  21
ATOM     19  N   UNL     1      -1.096  13.081  20.869  0.00  0.00    +0.000 N 
ATOM     20  C   UNL     1      -1.472  12.828  19.513  0.00  0.00    +0.000 C 
ATOM     21  C   UNL     1      -0.227  12.334  18.821  0.00  0.00    +0.000 C 
ATOM     22  C   UNL     1       0.799  13.207  19.455  0.00  0.00    +0.000 C 
ATOM     23  C   UNL     1       0.302  13.337  20.874  0.00  0.00    +0.000 C 
ATOM     24  O   UNL     1       1.056  13.615  21.793  0.00  0.00    +0.000 OA
BRANCH  19  30
ATOM     25  C   UNL     1      -2.267  14.639  22.525  0.00  0.00    +0.000 A 
ATOM     26  C   UNL     1      -3.068  14.737  23.699  0.00  0.00    +0.000 A 
ATOM     27  C   UNL     1      -3.603  13.615  24.317  0.00  0.00    +0.000 A 
ATOM     28  C   UNL     1      -3.378  12.369  23.772  0.00  0.00    +0.000 A 
ATOM     29  C   UNL     1      -2.600  12.250  22.619  0.00  0.00    +0.000 A 
ATOM     30  C   UNL     1      -1.990  13.343  21.967  0.00  0.00    +0.000 A 
BRANCH  25  31
ATOM     31  O   UNL     1      -1.884  15.882  22.116  0.00  0.00    +0.000 OA
BRANCH  31  33
ATOM     32  C   UNL     1      -1.383  16.588  19.787  0.00  0.00    +0.000 C 
ATOM     33  C   UNL     1      -2.370  16.340  20.868  0.00  0.00    +0.000 C 
ENDBRANCH  31  33
ENDBRANCH  25  31
ENDBRANCH  19  30
ENDBRANCH   1  21
TORSDOF 6
ENDMDL
MODEL 4
REMARK VINA RESULT:      -7.8      2.327      3.335
REMARK  Name = 
REMARK  9 active torsions:
REMARK  status: ('A' for Active; 'I' for Inactive)
REMARK    1  A    between atoms: C_1  and  C_2
REMARK    2  A    between atoms: C_2  and  O_3
REMARK    3  A    between atoms: O_3  and  C_4
REMARK    4  A    between atoms: C_9  and  N_10
REMARK    5  A    between atoms: C_12  and  C_13
REMARK    6  A    between atoms: N_15  and  C_16
REMARK    7  A    between atoms: C_17  and  C_18
REMARK    8  A    between atoms: N_19  and  C_20
REMARK    9  A    between atoms: N_21  and  C_22
REMARK                            x       y       z     vdW  Elec       q    Type
REMARK                         _______ _______ _______ _____ _____    ______ ____
ROOT
ATOM      1  C   UNL     1      -0.026  10.692  18.876  0.00  0.00    +0.000 C 
ATOM      2  O   UNL     1      -0.961   9.914  18.802  0.00  0.00    +0.000 OA
ATOM      3  N   UNL     1       1.273  10.299  19.182  0.00  0.00    +0.000 N 
ATOM      4  H   UNL     1       1.855  10.941  19.706  0.00  0.00    +0.000 HD
ENDROOT
BRANCH   3   5
ATOM      5  C   UNL     1       1.616   8.976  19.339  0.00  0.00    +0.000 A 
ATOM      6  C   UNL     1       1.564   8.176  20.414  0.00  0.00    +0.000 A 
ATOM      7  C   UNL     1       1.125   8.549  21.793  0.00  0.00    +0.000 C 
ATOM      8  N   UNL     1       1.869   6.864  20.074  0.00  0.00    +0.000 N 
ATOM      9  C   UNL     1       2.030   5.709  20.930  0.00  0.00    +0.000 C 
ATOM     10  N   UNL     1       2.088   6.800  18.677  0.00  0.00    +0.000 N 
ATOM     11  C   UNL     1       2.164   8.127  18.226  0.00  0.00    +0.000 A 
ATOM     12  O   UNL     1       2.604   8.582  17.182  0.00  0.00    +0.000 OA
BRANCH  10  13
ATOM     13  C   UNL     1       2.798   5.719  18.123  0.00  0.00    +0.000 A 
ATOM     14  C   UNL     1       2.166   4.541  17.720  0.00  0.00    +0.000 A 
ATOM     15  C   UNL     1       2.913   3.520  17.126  0.00  0.00    +0.000 A 
ATOM     16  C   UNL     1       4.292   3.666  16.953  0.00  0.00    +0.000 A 
ATOM     17  C   UNL     1       4.927   4.834  17.370  0.00  0.00    +0.000 A 
ATOM     18  C   UNL     1       4.181   5.861  17.947  0.00  0.00    +0.000 A 
ENDBRANCH  10  13
ENDBRANCH   3   5
BRANCH   1  21
ATOM     19  N   UNL     1      -1.410  12.844  20.664  0.00  0.00    +0.000 N 
ATOM     20  C   UNL     1      -1.615  12.639  19.264  0.00  0.00    +0.000 C 
ATOM     21  C   UNL     1      -0.280  12.216  18.705  0.00  0.00    +0.000 C 
ATOM     22  C   UNL     1       0.632  13.094  19.491  0.00  0.00    +0.000 C 
ATOM     23  C   UNL     1      -0.033  13.145  20.845  0.00  0.00    +0.000 C 
ATOM     24  O   UNL     1       0.599  13.406  21.857  0.00  0.00    +0.000 OA
BRANCH  19  30
ATOM     25  C   UNL     1      -3.372  14.119  21.697  0.00  0.00    +0.000 A 
ATOM     26  C   UNL     1      -4.245  14.249  22.816  0.00  0.00    +0.000 A 
ATOM     27  C   UNL     1      -4.229  13.344  23.868  0.00  0.00    +0.000 A 
ATOM     28  C   UNL     1      -3.363  12.271  23.827  0.00  0.00    +0.000 A 
ATOM     29  C   UNL     1      -2.503  12.121  22.738  0.00  0.00    +0.000 A 
ATOM     30  C   UNL     1      -2.435  13.028  21.659  0.00  0.00    +0.000 A 
BRANCH  25  31
ATOM     31  O   UNL     1      -3.602  15.124  20.806  0.00  0.00    +0.000 OA
BRANCH  31  33
ATOM     32  C   UNL     1      -1.583  16.450  20.222  0.00  0.00    +0.000 C 
ATOM     33  C   UNL     1      -2.862  16.321  20.964  0.00  0.00    +0.000 C 
ENDBRANCH  31  33
ENDBRANCH  25  31
ENDBRANCH  19  30
ENDBRANCH   1  21
TORSDOF 6
ENDMDL
MODEL 5
REMARK VINA RESULT:      -7.6      1.416      2.436
REMARK  Name = 
REMARK  9 active torsions:
REMARK  status: ('A' for Active; 'I' for Inactive)
REMARK    1  A    between atoms: C_1  and  C_2
REMARK    2  A    between atoms: C_2  and  O_3
REMARK    3  A    between atoms: O_3  and  C_4
REMARK    4  A    between atoms: C_9  and  N_10
REMARK    5  A    between atoms: C_12  and  C_13
REMARK    6  A    between atoms: N_15  and  C_16
REMARK    7  A    between atoms: C_17  and  C_18
REMARK    8  A    between atoms: N_19  and  C_20
REMARK    9  A    between atoms: N_21  and  C_22
REMARK                            x       y       z     vdW  Elec       q    Type
REMARK                         _______ _______ _______ _____ _____    ______ ____
ROOT
ATOM      1  C   UNL     1       0.510  10.410  18.747  0.00  0.00    +0.000 C 
ATOM      2  O   UNL     1      -0.186   9.794  17.960  0.00  0.00    +0.000 OA
ATOM      3  N   UNL     1       1.522   9.819  19.496  0.00  0.00    +0.000 N 
ATOM      4  H   UNL     1       1.706  10.185  20.422  0.00  0.00    +0.000 HD
ENDROOT
BRANCH   3   5
ATOM      5  C   UNL     1       1.871   8.498  19.336  0.00  0.00    +0.000 A 
ATOM      6  C   UNL     1       2.584   7.886  18.379  0.00  0.00    +0.000 A 
ATOM      7  C   UNL     1       3.186   8.516  17.165  0.00  0.00    +0.000 C 
ATOM      8  N   UNL     1       2.817   6.556  18.705  0.00  0.00    +0.000 N 
ATOM      9  C   UNL     1       3.447   5.517  17.919  0.00  0.00    +0.000 C 
ATOM     10  N   UNL     1       2.258   6.300  19.979  0.00  0.00    +0.000 N 
ATOM     11  C   UNL     1       1.468   7.415  20.297  0.00  0.00    +0.000 A 
ATOM     12  O   UNL     1       0.591   7.547  21.136  0.00  0.00    +0.000 OA
BRANCH  10  13
ATOM     13  C   UNL     1       1.983   4.978  20.376  0.00  0.00    +0.000 A 
ATOM     14  C   UNL     1       2.574   4.400  21.502  0.00  0.00    +0.000 A 
ATOM     15  C   UNL     1       2.222   3.101  21.880  0.00  0.00    +0.000 A 
ATOM     16  C   UNL     1       1.300   2.372  21.126  0.00  0.00    +0.000 A 
ATOM     17  C   UNL     1       0.722   2.941  19.992  0.00  0.00    +0.000 A 
ATOM     18  C   UNL     1       1.057   4.243  19.622  0.00  0.00    +0.000 A 
ENDBRANCH  10  13
ENDBRANCH   3   5
BRANCH   1  21
ATOM     19  N   UNL     1      -2.085  12.014  19.403  0.00  0.00    +0.000 N 
ATOM     20  C   UNL     1      -1.095  12.356  18.430  0.00  0.00    +0.000 C 
ATOM     21  C   UNL     1       0.226  11.916  19.008  0.00  0.00    +0.000 C 
ATOM     22  C   UNL     1       0.028  12.274  20.440  0.00  0.00    +0.000 C 
ATOM     23  C   UNL     1      -1.433  11.969  20.665  0.00  0.00    +0.000 C 
ATOM     24  O   UNL     1      -1.873  11.736  21.780  0.00  0.00    +0.000 OA
BRANCH  19  30
ATOM     25  C   UNL     1      -4.215  11.342  18.155  0.00  0.00    +0.000 A 
ATOM     26  C   UNL     1      -5.616  11.550  18.003  0.00  0.00    +0.000 A 
ATOM     27  C   UNL     1      -6.330  12.384  18.851  0.00  0.00    +0.000 A 
ATOM     28  C   UNL     1      -5.678  13.015  19.889  0.00  0.00    +0.000 A 
ATOM     29  C   UNL     1      -4.306  12.821  20.061  0.00  0.00    +0.000 A 
ATOM     30  C   UNL     1      -3.512  12.024  19.209  0.00  0.00    +0.000 A 
BRANCH  25  31
ATOM     31  O   UNL     1      -3.766  10.472  17.207  0.00  0.00    +0.000 OA
BRANCH  31  33
ATOM     32  C   UNL     1      -3.004  10.067  14.877  0.00  0.00    +0.000 C 
ATOM     33  C   UNL     1      -3.637  10.956  15.883  0.00  0.00    +0.000 C 
ENDBRANCH  31  33
ENDBRANCH  25  31
ENDBRANCH  19  30
ENDBRANCH   1  21
TORSDOF 6
ENDMDL
MODEL 6
REMARK VINA RESULT:      -7.5      1.093      2.478
REMARK  Name = 
REMARK  9 active torsions:
REMARK  status: ('A' for Active; 'I' for Inactive)
REMARK    1  A    between atoms: C_1  and  C_2
REMARK    2  A    between atoms: C_2  and  O_3
REMARK    3  A    between atoms: O_3  and  C_4
REMARK    4  A    between atoms: C_9  and  N_10
REMARK    5  A    between atoms: C_12  and  C_13
REMARK    6  A    between atoms: N_15  and  C_16
REMARK    7  A    between atoms: C_17  and  C_18
REMARK    8  A    between atoms: N_19  and  C_20
REMARK    9  A    between atoms: N_21  and  C_22
REMARK                            x       y       z     vdW  Elec       q    Type
REMARK                         _______ _______ _______ _____ _____    ______ ____
ROOT
ATOM      1  C   UNL     1      -0.007  10.557  18.584  0.00  0.00    +0.000 C 
ATOM      2  O   UNL     1      -0.729   9.739  18.041  0.00  0.00    +0.000 OA
ATOM      3  N   UNL     1       1.125  10.211  19.314  0.00  0.00    +0.000 N 
ATOM      4  H   UNL     1       1.375  10.787  20.110  0.00  0.00    +0.000 HD
ENDROOT
BRANCH   3   5
ATOM      5  C   UNL     1       1.565   8.910  19.405  0.00  0.00    +0.000 A 
ATOM      6  C   UNL     1       1.553   8.049  20.432  0.00  0.00    +0.000 A 
ATOM      7  C   UNL     1       1.060   8.308  21.819  0.00  0.00    +0.000 C 
ATOM      8  N   UNL     1       1.963   6.784  20.026  0.00  0.00    +0.000 N 
ATOM      9  C   UNL     1       2.195   5.598  20.820  0.00  0.00    +0.000 C 
ATOM     10  N   UNL     1       2.213   6.818  18.633  0.00  0.00    +0.000 N 
ATOM     11  C   UNL     1       2.197   8.171  18.260  0.00  0.00    +0.000 A 
ATOM     12  O   UNL     1       2.621   8.716  17.254  0.00  0.00    +0.000 OA
BRANCH  10  13
ATOM     13  C   UNL     1       3.014   5.827  18.037  0.00  0.00    +0.000 A 
ATOM     14  C   UNL     1       2.501   4.587  17.652  0.00  0.00    +0.000 A 
ATOM     15  C   UNL     1       3.330   3.660  17.013  0.00  0.00    +0.000 A 
ATOM     16  C   UNL     1       4.674   3.961  16.779  0.00  0.00    +0.000 A 
ATOM     17  C   UNL     1       5.193   5.191  17.179  0.00  0.00    +0.000 A 
ATOM     18  C   UNL     1       4.363   6.125  17.800  0.00  0.00    +0.000 A 
ENDBRANCH  10  13
ENDBRANCH   3   5
BRANCH   1  21
ATOM     19  N   UNL     1      -2.668  12.105  19.096  0.00  0.00    +0.000 N 
ATOM     20  C   UNL     1      -1.774  12.288  17.995  0.00  0.00    +0.000 C 
ATOM     21  C   UNL     1      -0.388  12.064  18.544  0.00  0.00    +0.000 C 
ATOM     22  C   UNL     1      -0.517  12.711  19.879  0.00  0.00    +0.000 C 
ATOM     23  C   UNL     1      -1.932  12.374  20.281  0.00  0.00    +0.000 C 
ATOM     24  O   UNL     1      -2.278  12.361  21.453  0.00  0.00    +0.000 OA
BRANCH  19  30
ATOM     25  C   UNL     1      -5.044  12.831  19.704  0.00  0.00    +0.000 A 
ATOM     26  C   UNL     1      -6.433  12.516  19.647  0.00  0.00    +0.000 A 
ATOM     27  C   UNL     1      -6.907  11.422  18.937  0.00  0.00    +0.000 A 
ATOM     28  C   UNL     1      -6.019  10.626  18.243  0.00  0.00    +0.000 A 
ATOM     29  C   UNL     1      -4.656  10.920  18.281  0.00  0.00    +0.000 A 
ATOM     30  C   UNL     1      -4.101  11.987  19.020  0.00  0.00    +0.000 A 
BRANCH  25  31
ATOM     31  O   UNL     1      -4.851  13.955  20.451  0.00  0.00    +0.000 OA
BRANCH  31  33
ATOM     32  C   UNL     1      -5.232  13.601  22.880  0.00  0.00    +0.000 C 
ATOM     33  C   UNL     1      -5.688  14.145  21.576  0.00  0.00    +0.000 C 
ENDBRANCH  31  33
ENDBRANCH  25  31
ENDBRANCH  19  30
ENDBRANCH   1  21
TORSDOF 6
ENDMDL
MODEL 7
REMARK VINA RESULT:      -7.4      3.434      5.217
REMARK  Name = 
REMARK  9 active torsions:
REMARK  status: ('A' for Active; 'I' for Inactive)
REMARK    1  A    between atoms: C_1  and  C_2
REMARK    2  A    between atoms: C_2  and  O_3
REMARK    3  A    between atoms: O_3  and  C_4
REMARK    4  A    between atoms: C_9  and  N_10
REMARK    5  A    between atoms: C_12  and  C_13
REMARK    6  A    between atoms: N_15  and  C_16
REMARK    7  A    between atoms: C_17  and  C_18
REMARK    8  A    between atoms: N_19  and  C_20
REMARK    9  A    between atoms: N_21  and  C_22
REMARK                            x       y       z     vdW  Elec       q    Type
REMARK                         _______ _______ _______ _____ _____    ______ ____
ROOT
ATOM      1  C   UNL     1       1.597   7.660  20.389  0.00  0.00    +0.000 C 
ATOM      2  O   UNL     1       1.698   8.097  19.256  0.00  0.00    +0.000 OA
ATOM      3  N   UNL     1       1.945   6.360  20.739  0.00  0.00    +0.000 N 
ATOM      4  H   UNL     1       1.414   5.905  21.473  0.00  0.00    +0.000 HD
ENDROOT
BRANCH   3   5
ATOM      5  C   UNL     1       2.516   5.490  19.839  0.00  0.00    +0.000 A 
ATOM      6  C   UNL     1       2.252   4.203  19.573  0.00  0.00    +0.000 A 
ATOM      7  C   UNL     1       1.237   3.335  20.242  0.00  0.00    +0.000 C 
ATOM      8  N   UNL     1       2.980   3.763  18.473  0.00  0.00    +0.000 N 
ATOM      9  C   UNL     1       3.077   2.433  17.912  0.00  0.00    +0.000 C 
ATOM     10  N   UNL     1       3.730   4.851  17.965  0.00  0.00    +0.000 N 
ATOM     11  C   UNL     1       3.643   5.873  18.922  0.00  0.00    +0.000 A 
ATOM     12  O   UNL     1       4.326   6.875  19.069  0.00  0.00    +0.000 OA
BRANCH  10  13
ATOM     13  C   UNL     1       4.842   4.614  17.137  0.00  0.00    +0.000 A 
ATOM     14  C   UNL     1       4.717   4.418  15.760  0.00  0.00    +0.000 A 
ATOM     15  C   UNL     1       5.861   4.241  14.977  0.00  0.00    +0.000 A 
ATOM     16  C   UNL     1       7.127   4.237  15.569  0.00  0.00    +0.000 A 
ATOM     17  C   UNL     1       7.252   4.415  16.945  0.00  0.00    +0.000 A 
ATOM     18  C   UNL     1       6.113   4.610  17.727  0.00  0.00    +0.000 A 
ENDBRANCH  10  13
ENDBRANCH   3   5
BRANCH   1  21
ATOM     19  N   UNL     1       0.900  10.697  20.559  0.00  0.00    +0.000 N 
ATOM     20  C   UNL     1       1.592   9.925  21.543  0.00  0.00    +0.000 C 
ATOM     21  C   UNL     1       0.977   8.550  21.502  0.00  0.00    +0.000 C 
ATOM     22  C   UNL     1      -0.456   8.901  21.295  0.00  0.00    +0.000 C 
ATOM     23  C   UNL     1      -0.381  10.105  20.388  0.00  0.00    +0.000 C 
ATOM     24  O   UNL     1      -1.316  10.424  19.671  0.00  0.00    +0.000 OA
BRANCH  19  30
ATOM     25  C   UNL     1       1.091  13.240  20.765  0.00  0.00    +0.000 A 
ATOM     26  C   UNL     1       1.394  14.465  20.102  0.00  0.00    +0.000 A 
ATOM     27  C   UNL     1       1.885  14.494  18.804  0.00  0.00    +0.000 A 
ATOM     28  C   UNL     1       2.112  13.308  18.138  0.00  0.00    +0.000 A 
ATOM     29  C   UNL     1       1.826  12.096  18.770  0.00  0.00    +0.000 A 
ATOM     30  C   UNL     1       1.283  11.996  20.068  0.00  0.00    +0.000 A 
BRANCH  25  31
ATOM     31  O   UNL     1       0.641  13.491  22.027  0.00  0.00    +0.000 OA
BRANCH  31  33
ATOM     32  C   UNL     1      -1.352  12.412  23.046  0.00  0.00    +0.000 C 
ATOM     33  C   UNL     1      -0.759  13.504  22.232  0.00  0.00    +0.000 C 
ENDBRANCH  31  33
ENDBRANCH  25  31
ENDBRANCH  19  30
ENDBRANCH   1  21
TORSDOF 6
ENDMDL
MODEL 8
REMARK VINA RESULT:      -7.4      1.058      1.531
REMARK  Name = 
REMARK  9 active torsions:
REMARK  status: ('A' for Active; 'I' for Inactive)
REMARK    1  A    between atoms: C_1  and  C_2
REMARK    2  A    between atoms: C_2  and  O_3
REMARK    3  A    between atoms: O_3  and  C_4
REMARK    4  A    between atoms: C_9  and  N_10
REMARK    5  A    between atoms: C_12  and  C_13
REMARK    6  A    between atoms: N_15  and  C_16
REMARK    7  A    between atoms: C_17  and  C_18
REMARK    8  A    between atoms: N_19  and  C_20
REMARK    9  A    between atoms: N_21  and  C_22
REMARK                            x       y       z     vdW  Elec       q    Type
REMARK                         _______ _______ _______ _____ _____    ______ ____
ROOT
ATOM      1  C   UNL     1       0.239  10.694  18.576  0.00  0.00    +0.000 C 
ATOM      2  O   UNL     1      -0.523   9.932  18.006  0.00  0.00    +0.000 OA
ATOM      3  N   UNL     1       1.318  10.264  19.340  0.00  0.00    +0.000 N 
ATOM      4  H   UNL     1       1.584  10.818  20.146  0.00  0.00    +0.000 HD
ENDROOT
BRANCH   3   5
ATOM      5  C   UNL     1       1.661   8.935  19.437  0.00  0.00    +0.000 A 
ATOM      6  C   UNL     1       1.573   8.078  20.464  0.00  0.00    +0.000 A 
ATOM      7  C   UNL     1       1.083   8.375  21.844  0.00  0.00    +0.000 C 
ATOM      8  N   UNL     1       1.895   6.786  20.064  0.00  0.00    +0.000 N 
ATOM      9  C   UNL     1       2.029   5.587  20.861  0.00  0.00    +0.000 C 
ATOM     10  N   UNL     1       2.163   6.800  18.674  0.00  0.00    +0.000 N 
ATOM     11  C   UNL     1       2.251   8.149  18.300  0.00  0.00    +0.000 A 
ATOM     12  O   UNL     1       2.726   8.661  17.298  0.00  0.00    +0.000 OA
BRANCH  10  13
ATOM     13  C   UNL     1       2.897   5.752  18.088  0.00  0.00    +0.000 A 
ATOM     14  C   UNL     1       4.279   5.822  17.904  0.00  0.00    +0.000 A 
ATOM     15  C   UNL     1       4.964   4.728  17.366  0.00  0.00    +0.000 A 
ATOM     16  C   UNL     1       4.269   3.576  16.992  0.00  0.00    +0.000 A 
ATOM     17  C   UNL     1       2.887   3.511  17.159  0.00  0.00    +0.000 A 
ATOM     18  C   UNL     1       2.203   4.593  17.712  0.00  0.00    +0.000 A 
ENDBRANCH  10  13
ENDBRANCH   3   5
BRANCH   1  21
ATOM     19  N   UNL     1      -1.847  12.539  19.986  0.00  0.00    +0.000 N 
ATOM     20  C   UNL     1      -1.503  12.547  18.598  0.00  0.00    +0.000 C 
ATOM     21  C   UNL     1      -0.032  12.224  18.533  0.00  0.00    +0.000 C 
ATOM     22  C   UNL     1       0.464  12.979  19.717  0.00  0.00    +0.000 C 
ATOM     23  C   UNL     1      -0.659  12.820  20.713  0.00  0.00    +0.000 C 
ATOM     24  O   UNL     1      -0.468  12.930  21.914  0.00  0.00    +0.000 OA
BRANCH  19  30
ATOM     25  C   UNL     1      -4.395  12.455  19.775  0.00  0.00    +0.000 A 
ATOM     26  C   UNL     1      -5.647  12.630  20.433  0.00  0.00    +0.000 A 
ATOM     27  C   UNL     1      -5.729  12.888  21.794  0.00  0.00    +0.000 A 
ATOM     28  C   UNL     1      -4.573  12.955  22.543  0.00  0.00    +0.000 A 
ATOM     29  C   UNL     1      -3.336  12.782  21.920  0.00  0.00    +0.000 A 
ATOM     30  C   UNL     1      -3.178  12.562  20.535  0.00  0.00    +0.000 A 
BRANCH  25  31
ATOM     31  O   UNL     1      -4.596  12.200  18.451  0.00  0.00    +0.000 OA
BRANCH  31  33
ATOM     32  C   UNL     1      -3.869   9.953  17.679  0.00  0.00    +0.000 C 
ATOM     33  C   UNL     1      -4.955  10.880  18.086  0.00  0.00    +0.000 C 
ENDBRANCH  31  33
ENDBRANCH  25  31
ENDBRANCH  19  30
ENDBRANCH   1  21
TORSDOF 6
ENDMDL
MODEL 9
REMARK VINA RESULT:      -7.3      1.230      1.354
REMARK  Name = 
REMARK  9 active torsions:
REMARK  status: ('A' for Active; 'I' for Inactive)
REMARK    1  A    between atoms: C_1  and  C_2
REMARK    2  A    between atoms: C_2  and  O_3
REMARK    3  A    between atoms: O_3  and  C_4
REMARK    4  A    between atoms: C_9  and  N_10
REMARK    5  A    between atoms: C_12  and  C_13
REMARK    6  A    between atoms: N_15  and  C_16
REMARK    7  A    between atoms: C_17  and  C_18
REMARK    8  A    between atoms: N_19  and  C_20
REMARK    9  A    between atoms: N_21  and  C_22
REMARK                            x       y       z     vdW  Elec       q    Type
REMARK                         _______ _______ _______ _____ _____    ______ ____
ROOT
ATOM      1  C   UNL     1       0.839  11.859  20.267  0.00  0.00    +0.000 C 
ATOM      2  O   UNL     1       1.789  11.780  21.025  0.00  0.00    +0.000 OA
ATOM      3  N   UNL     1       0.425  10.812  19.450  0.00  0.00    +0.000 N 
ATOM      4  H   UNL     1       0.024  11.040  18.548  0.00  0.00    +0.000 HD
ENDROOT
BRANCH   3   5
ATOM      5  C   UNL     1       1.012   9.569  19.504  0.00  0.00    +0.000 A 
ATOM      6  C   UNL     1       1.083   8.673  20.499  0.00  0.00    +0.000 A 
ATOM      7  C   UNL     1       0.539   8.820  21.883  0.00  0.00    +0.000 C 
ATOM      8  N   UNL     1       1.646   7.481  20.057  0.00  0.00    +0.000 N 
ATOM      9  C   UNL     1       2.000   6.301  20.814  0.00  0.00    +0.000 C 
ATOM     10  N   UNL     1       1.914   7.597  18.673  0.00  0.00    +0.000 N 
ATOM     11  C   UNL     1       1.746   8.952  18.347  0.00  0.00    +0.000 A 
ATOM     12  O   UNL     1       2.121   9.581  17.370  0.00  0.00    +0.000 OA
BRANCH  10  13
ATOM     13  C   UNL     1       2.835   6.729  18.058  0.00  0.00    +0.000 A 
ATOM     14  C   UNL     1       4.092   7.160  17.627  0.00  0.00    +0.000 A 
ATOM     15  C   UNL     1       4.988   6.242  17.073  0.00  0.00    +0.000 A 
ATOM     16  C   UNL     1       4.625   4.901  16.929  0.00  0.00    +0.000 A 
ATOM     17  C   UNL     1       3.365   4.472  17.343  0.00  0.00    +0.000 A 
ATOM     18  C   UNL     1       2.475   5.382  17.912  0.00  0.00    +0.000 A 
ENDBRANCH  10  13
ENDBRANCH   3   5
BRANCH   1  21
ATOM     19  N   UNL     1      -2.164  12.591  19.835  0.00  0.00    +0.000 N 
ATOM     20  C   UNL     1      -1.046  13.129  19.125  0.00  0.00    +0.000 C 
ATOM     21  C   UNL     1       0.081  13.209  20.123  0.00  0.00    +0.000 C 
ATOM     22  C   UNL     1      -0.665  13.638  21.339  0.00  0.00    +0.000 C 
ATOM     23  C   UNL     1      -1.975  12.901  21.209  0.00  0.00    +0.000 C 
ATOM     24  O   UNL     1      -2.673  12.661  22.183  0.00  0.00    +0.000 OA
BRANCH  19  30
ATOM     25  C   UNL     1      -3.520  11.487  17.968  0.00  0.00    +0.000 A 
ATOM     26  C   UNL     1      -4.818  11.188  17.462  0.00  0.00    +0.000 A 
ATOM     27  C   UNL     1      -5.969  11.473  18.182  0.00  0.00    +0.000 A 
ATOM     28  C   UNL     1      -5.863  12.039  19.435  0.00  0.00    +0.000 A 
ATOM     29  C   UNL     1      -4.601  12.336  19.953  0.00  0.00    +0.000 A 
ATOM     30  C   UNL     1      -3.394  12.115  19.256  0.00  0.00    +0.000 A 
BRANCH  25  31
ATOM     31  O   UNL     1      -2.568  11.095  17.074  0.00  0.00    +0.000 OA
BRANCH  31  33
ATOM     32  C   UNL     1      -2.796   9.785  14.975  0.00  0.00    +0.000 C 
ATOM     33  C   UNL     1      -2.927  11.072  15.705  0.00  0.00    +0.000 C 
ENDBRANCH  31  33
ENDBRANCH  25  31
ENDBRANCH  19  30
ENDBRANCH   1  21
TORSDOF 6
ENDMDL
