MODEL 1
REMARK VINA RESULT:      -9.1      0.000      0.000
REMARK  Name = 
REMARK  5 active torsions:
REMARK  status: ('A' for Active; 'I' for Inactive)
REMARK    1  A    between atoms: C_1  and  C_2
REMARK    2  A    between atoms: C_8  and  C_9
REMARK    3  A    between atoms: C_14  and  N_15
REMARK    4  A    between atoms: C_16  and  C_18
REMARK    5  A    between atoms: C_20  and  C_21
REMARK                            x       y       z     vdW  Elec       q    Type
REMARK                         _______ _______ _______ _____ _____    ______ ____
ROOT
ATOM      1  C   UNL     1       3.225   6.367  18.646  0.00  0.00    +0.000 A 
ATOM      2  C   UNL     1       2.874   5.884  19.917  0.00  0.00    +0.000 A 
ATOM      3  C   UNL     1       1.962   6.550  20.746  0.00  0.00    +0.000 A 
ATOM      4  C   UNL     1       1.431   7.786  20.366  0.00  0.00    +0.000 A 
ATOM      5  C   UNL     1       0.545   8.498  21.188  0.00  0.00    +0.000 A 
ATOM      6  C   UNL     1       0.104   9.755  20.785  0.00  0.00    +0.000 A 
ATOM      7  N   UNL     1       0.485  10.304  19.623  0.00  0.00    +0.000 NA
ATOM      8  C   UNL     1       1.319   9.598  18.827  0.00  0.00    +0.000 A 
ATOM      9  C   UNL     1       1.818   8.335  19.137  0.00  0.00    +0.000 A 
ATOM     10  C   UNL     1       2.681   7.616  18.284  0.00  0.00    +0.000 A 
ENDROOT
BRANCH   1  18
ATOM     11  C   UNL     1       2.542   3.649  17.292  0.00  0.00    +0.000 C 
ATOM     12  C   UNL     1       3.846   4.385  17.107  0.00  0.00    +0.000 A 
ATOM     13  C   UNL     1       4.792   3.769  16.256  0.00  0.00    +0.000 A 
ATOM     14  C   UNL     1       6.007   4.378  15.967  0.00  0.00    +0.000 A 
ATOM     15  C   UNL     1       6.298   5.598  16.545  0.00  0.00    +0.000 A 
ATOM     16  F   UNL     1       7.457   6.204  16.260  0.00  0.00    +0.000 F 
ATOM     17  C   UNL     1       5.400   6.209  17.417  0.00  0.00    +0.000 A 
ATOM     18  C   UNL     1       4.147   5.632  17.728  0.00  0.00    +0.000 A 
ENDBRANCH   1  18
BRANCH   6  19
ATOM     19  N   UNL     1      -0.764  10.438  21.645  0.00  0.00    +0.000 N 
ATOM     20  C   UNL     1      -0.562  11.713  22.121  0.00  0.00    +0.000 C 
ATOM     21  O   UNL     1       0.381  12.461  21.919  0.00  0.00    +0.000 OA
ATOM     22  H   UNL     1      -1.598   9.952  21.932  0.00  0.00    +0.000 HD
BRANCH  20  23
ATOM     23  C   UNL     1      -1.708  12.189  22.953  0.00  0.00    +0.000 C 
ATOM     24  C   UNL     1      -1.788  13.601  23.471  0.00  0.00    +0.000 C 
ATOM     25  C   UNL     1      -2.662  13.186  22.313  0.00  0.00    +0.000 C 
BRANCH  25  26
ATOM     26  C   UNL     1      -4.146  12.979  22.477  0.00  0.00    +0.000 A 
ATOM     27  C   UNL     1      -4.771  13.144  23.723  0.00  0.00    +0.000 A 
ATOM     28  C   UNL     1      -6.153  12.986  23.868  0.00  0.00    +0.000 A 
ATOM     29  C   UNL     1      -6.937  12.662  22.763  0.00  0.00    +0.000 A 
ATOM     30  C   UNL     1      -6.341  12.503  21.516  0.00  0.00    +0.000 A 
ATOM     31  C   UNL     1      -4.961  12.668  21.376  0.00  0.00    +0.000 A 
ENDBRANCH  25  26
ENDBRANCH  20  23
ENDBRANCH   6  19
TORSDOF 4
ENDMDL
MODEL 2
REMARK VINA RESULT:      -9.1      1.361      1.853
REMARK  Name = 
REMARK  5 active torsions:
REMARK  status: ('A' for Active; 'I' for Inactive)
REMARK    1  A    between atoms: C_1  and  C_2
REMARK    2  A    between atoms: C_8  and  C_9
REMARK    3  A    between atoms: C_14  and  N_15
REMARK    4  A    between atoms: C_16  and  C_18
REMARK    5  A    between atoms: C_20  and  C_21
REMARK                            x       y       z     vdW  Elec       q    Type
REMARK                         _______ _______ _______ _____ _____    ______ ____
ROOT
ATOM      1  C   UNL     1       4.139   6.247  17.914  0.00  0.00    +0.000 A 
ATOM      2  C   UNL     1       3.762   5.729  19.163  0.00  0.00    +0.000 A 
ATOM      3  C   UNL     1       2.769   6.324  19.952  0.00  0.00    +0.000 A 
ATOM      4  C   UNL     1       2.174   7.526  19.555  0.00  0.00    +0.000 A 
ATOM      5  C   UNL     1       1.204   8.168  20.338  0.00  0.00    +0.000 A 
ATOM      6  C   UNL     1       0.698   9.397  19.924  0.00  0.00    +0.000 A 
ATOM      7  N   UNL     1       1.096   9.982  18.784  0.00  0.00    +0.000 NA
ATOM      8  C   UNL     1       2.013   9.341  18.025  0.00  0.00    +0.000 A 
ATOM      9  C   UNL     1       2.581   8.111  18.350  0.00  0.00    +0.000 A 
ATOM     10  C   UNL     1       3.530   7.460  17.534  0.00  0.00    +0.000 A 
ENDROOT
BRANCH   1  18
ATOM     11  C   UNL     1       7.090   5.712  18.745  0.00  0.00    +0.000 C 
ATOM     12  C   UNL     1       6.505   5.339  17.405  0.00  0.00    +0.000 A 
ATOM     13  C   UNL     1       7.386   4.708  16.497  0.00  0.00    +0.000 A 
ATOM     14  C   UNL     1       6.947   4.270  15.253  0.00  0.00    +0.000 A 
ATOM     15  C   UNL     1       5.629   4.482  14.896  0.00  0.00    +0.000 A 
ATOM     16  F   UNL     1       5.190   4.048  13.708  0.00  0.00    +0.000 F 
ATOM     17  C   UNL     1       4.751   5.135  15.756  0.00  0.00    +0.000 A 
ATOM     18  C   UNL     1       5.151   5.584  17.036  0.00  0.00    +0.000 A 
ENDBRANCH   1  18
BRANCH   6  19
ATOM     19  N   UNL     1      -0.253  10.011  20.745  0.00  0.00    +0.000 N 
ATOM     20  C   UNL     1      -0.019  11.111  21.538  0.00  0.00    +0.000 C 
ATOM     21  O   UNL     1       1.021  11.728  21.697  0.00  0.00    +0.000 OA
ATOM     22  H   UNL     1      -1.178   9.612  20.750  0.00  0.00    +0.000 HD
BRANCH  20  23
ATOM     23  C   UNL     1      -1.258  11.575  22.233  0.00  0.00    +0.000 C 
ATOM     24  C   UNL     1      -1.300  12.859  23.018  0.00  0.00    +0.000 C 
ATOM     25  C   UNL     1      -1.956  12.799  21.660  0.00  0.00    +0.000 C 
BRANCH  25  26
ATOM     26  C   UNL     1      -3.456  12.773  21.507  0.00  0.00    +0.000 A 
ATOM     27  C   UNL     1      -4.304  12.900  22.618  0.00  0.00    +0.000 A 
ATOM     28  C   UNL     1      -5.694  12.911  22.472  0.00  0.00    +0.000 A 
ATOM     29  C   UNL     1      -6.263  12.800  21.205  0.00  0.00    +0.000 A 
ATOM     30  C   UNL     1      -5.442  12.683  20.088  0.00  0.00    +0.000 A 
ATOM     31  C   UNL     1      -4.054  12.678  20.240  0.00  0.00    +0.000 A 
ENDBRANCH  25  26
ENDBRANCH  20  23
ENDBRANCH   6  19
TORSDOF 4
ENDMDL
MODEL 3
REMARK VINA RESULT:      -9.0      1.668      2.870
REMARK  Name = 
REMARK  5 active torsions:
REMARK  status: ('A' for Active; 'I' for Inactive)
REMARK    1  A    between atoms: C_1  and  C_2
REMARK    2  A    between atoms: C_8  and  C_9
REMARK    3  A    between atoms: C_14  and  N_15
REMARK    4  A    between atoms: C_16  and  C_18
REMARK    5  A    between atoms: C_20  and  C_21
REMARK                            x       y       z     vdW  Elec       q    Type
REMARK                         _______ _______ _______ _____ _____    ______ ____
ROOT
ATOM      1  C   UNL     1       2.816   7.248  18.283  0.00  0.00    +0.000 A 
ATOM      2  C   UNL     1       2.298   8.264  17.464  0.00  0.00    +0.000 A 
ATOM      3  C   UNL     1       1.493   9.294  17.968  0.00  0.00    +0.000 A 
ATOM      4  C   UNL     1       1.097   9.294  19.308  0.00  0.00    +0.000 A 
ATOM      5  C   UNL     1       0.261  10.288  19.836  0.00  0.00    +0.000 A 
ATOM      6  C   UNL     1      -0.154  10.196  21.162  0.00  0.00    +0.000 A 
ATOM      7  N   UNL     1       0.236   9.192  21.961  0.00  0.00    +0.000 NA
ATOM      8  C   UNL     1       1.062   8.253  21.448  0.00  0.00    +0.000 A 
ATOM      9  C   UNL     1       1.533   8.253  20.137  0.00  0.00    +0.000 A 
ATOM     10  C   UNL     1       2.402   7.264  19.630  0.00  0.00    +0.000 A 
ENDROOT
BRANCH   1  18
ATOM     11  C   UNL     1       1.956   4.296  17.800  0.00  0.00    +0.000 C 
ATOM     12  C   UNL     1       3.345   4.827  17.548  0.00  0.00    +0.000 A 
ATOM     13  C   UNL     1       4.289   3.892  17.063  0.00  0.00    +0.000 A 
ATOM     14  C   UNL     1       5.585   4.276  16.743  0.00  0.00    +0.000 A 
ATOM     15  C   UNL     1       5.959   5.593  16.930  0.00  0.00    +0.000 A 
ATOM     16  F   UNL     1       7.199   5.979  16.608  0.00  0.00    +0.000 F 
ATOM     17  C   UNL     1       5.061   6.526  17.443  0.00  0.00    +0.000 A 
ATOM     18  C   UNL     1       3.728   6.182  17.769  0.00  0.00    +0.000 A 
ENDBRANCH   1  18
BRANCH   6  19
ATOM     19  N   UNL     1      -1.003  11.199  21.641  0.00  0.00    +0.000 N 
ATOM     20  C   UNL     1      -0.606  12.469  21.993  0.00  0.00    +0.000 C 
ATOM     21  O   UNL     1       0.517  12.945  21.983  0.00  0.00    +0.000 OA
ATOM     22  H   UNL     1      -1.979  10.966  21.731  0.00  0.00    +0.000 HD
BRANCH  20  23
ATOM     23  C   UNL     1      -1.762  13.328  22.390  0.00  0.00    +0.000 C 
ATOM     24  C   UNL     1      -2.991  12.760  23.047  0.00  0.00    +0.000 C 
ATOM     25  C   UNL     1      -1.996  13.530  23.879  0.00  0.00    +0.000 C 
BRANCH  25  26
ATOM     26  C   UNL     1      -2.294  14.918  24.386  0.00  0.00    +0.000 A 
ATOM     27  C   UNL     1      -3.613  15.386  24.493  0.00  0.00    +0.000 A 
ATOM     28  C   UNL     1      -3.892  16.661  24.995  0.00  0.00    +0.000 A 
ATOM     29  C   UNL     1      -2.851  17.491  25.405  0.00  0.00    +0.000 A 
ATOM     30  C   UNL     1      -1.536  17.046  25.317  0.00  0.00    +0.000 A 
ATOM     31  C   UNL     1      -1.265  15.769  24.820  0.00  0.00    +0.000 A 
ENDBRANCH  25  26
ENDBRANCH  20  23
ENDBRANCH   6  19
TORSDOF 4
ENDMDL
MODEL 4
REMARK VINA RESULT:      -8.9      3.623     11.104
REMARK  Name = 
REMARK  5 active torsions:
REMARK  status: ('A' for Active; 'I' for Inactive)
REMARK    1  A    between atoms: C_1  and  C_2
REMARK    2  A    between atoms: C_8  and  C_9
REMARK    3  A    between atoms: C_14  and  N_15
REMARK    4  A    between atoms: C_16  and  C_18
REMARK    5  A    between atoms: C_20  and  C_21
REMARK                            x       y       z     vdW  Elec       q    Type
REMARK                         _______ _______ _______ _____ _____    ______ ____
ROOT
ATOM      1  C   UNL     1      -1.349  11.474  22.408  0.00  0.00    +0.000 A 
ATOM      2  C   UNL     1      -1.048  10.491  23.365  0.00  0.00    +0.000 A 
ATOM      3  C   UNL     1      -0.164   9.437  23.103  0.00  0.00    +0.000 A 
ATOM      4  C   UNL     1       0.389   9.275  21.829  0.00  0.00    +0.000 A 
ATOM      5  C   UNL     1       1.249   8.209  21.523  0.00  0.00    +0.000 A 
ATOM      6  C   UNL     1       1.713   8.062  20.219  0.00  0.00    +0.000 A 
ATOM      7  N   UNL     1       1.378   8.920  19.244  0.00  0.00    +0.000 NA
ATOM      8  C   UNL     1       0.570   9.957  19.557  0.00  0.00    +0.000 A 
ATOM      9  C   UNL     1       0.052  10.193  20.828  0.00  0.00    +0.000 A 
ATOM     10  C   UNL     1      -0.784  11.289  21.129  0.00  0.00    +0.000 A 
ENDROOT
BRANCH   1  18
ATOM     11  C   UNL     1      -0.371  14.423  22.587  0.00  0.00    +0.000 C 
ATOM     12  C   UNL     1      -1.803  13.990  22.785  0.00  0.00    +0.000 A 
ATOM     13  C   UNL     1      -2.729  15.020  23.068  0.00  0.00    +0.000 A 
ATOM     14  C   UNL     1      -4.084  14.750  23.216  0.00  0.00    +0.000 A 
ATOM     15  C   UNL     1      -4.522  13.444  23.108  0.00  0.00    +0.000 A 
ATOM     16  F   UNL     1      -5.828  13.174  23.230  0.00  0.00    +0.000 F 
ATOM     17  C   UNL     1      -3.626  12.406  22.868  0.00  0.00    +0.000 A 
ATOM     18  C   UNL     1      -2.241  12.637  22.696  0.00  0.00    +0.000 A 
ENDBRANCH   1  18
BRANCH   6  19
ATOM     19  N   UNL     1       2.552   6.974  19.954  0.00  0.00    +0.000 N 
ATOM     20  C   UNL     1       2.220   5.654  20.153  0.00  0.00    +0.000 C 
ATOM     21  O   UNL     1       1.186   5.188  20.602  0.00  0.00    +0.000 OA
ATOM     22  H   UNL     1       3.467   7.183  19.589  0.00  0.00    +0.000 HD
BRANCH  20  23
ATOM     23  C   UNL     1       3.302   4.729  19.698  0.00  0.00    +0.000 C 
ATOM     24  C   UNL     1       3.007   3.340  19.197  0.00  0.00    +0.000 C 
ATOM     25  C   UNL     1       3.371   4.422  18.211  0.00  0.00    +0.000 C 
BRANCH  25  26
ATOM     26  C   UNL     1       4.713   4.449  17.525  0.00  0.00    +0.000 A 
ATOM     27  C   UNL     1       4.818   4.399  16.126  0.00  0.00    +0.000 A 
ATOM     28  C   UNL     1       6.061   4.458  15.489  0.00  0.00    +0.000 A 
ATOM     29  C   UNL     1       7.226   4.574  16.244  0.00  0.00    +0.000 A 
ATOM     30  C   UNL     1       7.147   4.634  17.631  0.00  0.00    +0.000 A 
ATOM     31  C   UNL     1       5.901   4.580  18.262  0.00  0.00    +0.000 A 
ENDBRANCH  25  26
ENDBRANCH  20  23
ENDBRANCH   6  19
TORSDOF 4
ENDMDL
MODEL 5
REMARK VINA RESULT:      -8.9      0.905      1.487
REMARK  Name = 
REMARK  5 active torsions:
REMARK  status: ('A' for Active; 'I' for Inactive)
REMARK    1  A    between atoms: C_1  and  C_2
REMARK    2  A    between atoms: C_8  and  C_9
REMARK    3  A    between atoms: C_14  and  N_15
REMARK    4  A    between atoms: C_16  and  C_18
REMARK    5  A    between atoms: C_20  and  C_21
REMARK                            x       y       z     vdW  Elec       q    Type
REMARK                         _______ _______ _______ _____ _____    ______ ____
ROOT
ATOM      1  C   UNL     1       2.814   7.290  18.332  0.00  0.00    +0.000 A 
ATOM      2  C   UNL     1       2.235   8.324  17.579  0.00  0.00    +0.000 A 
ATOM      3  C   UNL     1       1.408   9.297  18.155  0.00  0.00    +0.000 A 
ATOM      4  C   UNL     1       1.053   9.217  19.505  0.00  0.00    +0.000 A 
ATOM      5  C   UNL     1       0.197  10.153  20.104  0.00  0.00    +0.000 A 
ATOM      6  C   UNL     1      -0.175   9.982  21.434  0.00  0.00    +0.000 A 
ATOM      7  N   UNL     1       0.275   8.956  22.172  0.00  0.00    +0.000 NA
ATOM      8  C   UNL     1       1.119   8.075  21.591  0.00  0.00    +0.000 A 
ATOM      9  C   UNL     1       1.550   8.155  20.269  0.00  0.00    +0.000 A 
ATOM     10  C   UNL     1       2.439   7.225  19.690  0.00  0.00    +0.000 A 
ENDROOT
BRANCH   1  18
ATOM     11  C   UNL     1       2.041   4.339  17.713  0.00  0.00    +0.000 C 
ATOM     12  C   UNL     1       3.406   4.930  17.458  0.00  0.00    +0.000 A 
ATOM     13  C   UNL     1       4.367   4.056  16.901  0.00  0.00    +0.000 A 
ATOM     14  C   UNL     1       5.642   4.501  16.572  0.00  0.00    +0.000 A 
ATOM     15  C   UNL     1       5.975   5.819  16.820  0.00  0.00    +0.000 A 
ATOM     16  F   UNL     1       7.194   6.265  16.490  0.00  0.00    +0.000 F 
ATOM     17  C   UNL     1       5.060   6.691  17.403  0.00  0.00    +0.000 A 
ATOM     18  C   UNL     1       3.747   6.285  17.741  0.00  0.00    +0.000 A 
ENDBRANCH   1  18
BRANCH   6  19
ATOM     19  N   UNL     1      -1.045  10.928  21.986  0.00  0.00    +0.000 N 
ATOM     20  C   UNL     1      -0.739  12.252  22.200  0.00  0.00    +0.000 C 
ATOM     21  O   UNL     1       0.311  12.835  21.987  0.00  0.00    +0.000 OA
ATOM     22  H   UNL     1      -1.965  10.607  22.241  0.00  0.00    +0.000 HD
BRANCH  20  23
ATOM     23  C   UNL     1      -1.907  13.020  22.727  0.00  0.00    +0.000 C 
ATOM     24  C   UNL     1      -2.191  14.436  22.301  0.00  0.00    +0.000 C 
ATOM     25  C   UNL     1      -3.039  13.313  21.755  0.00  0.00    +0.000 C 
BRANCH  25  26
ATOM     26  C   UNL     1      -4.461  13.103  22.210  0.00  0.00    +0.000 A 
ATOM     27  C   UNL     1      -4.863  13.426  23.515  0.00  0.00    +0.000 A 
ATOM     28  C   UNL     1      -6.189  13.263  23.928  0.00  0.00    +0.000 A 
ATOM     29  C   UNL     1      -7.141  12.775  23.035  0.00  0.00    +0.000 A 
ATOM     30  C   UNL     1      -6.768  12.456  21.733  0.00  0.00    +0.000 A 
ATOM     31  C   UNL     1      -5.443  12.627  21.326  0.00  0.00    +0.000 A 
ENDBRANCH  25  26
ENDBRANCH  20  23
ENDBRANCH   6  19
TORSDOF 4
ENDMDL
MODEL 6
REMARK VINA RESULT:      -8.8      4.034      5.234
REMARK  Name = 
REMARK  5 active torsions:
REMARK  status: ('A' for Active; 'I' for Inactive)
REMARK    1  A    between atoms: C_1  and  C_2
REMARK    2  A    between atoms: C_8  and  C_9
REMARK    3  A    between atoms: C_14  and  N_15
REMARK    4  A    between atoms: C_16  and  C_18
REMARK    5  A    between atoms: C_20  and  C_21
REMARK                            x       y       z     vdW  Elec       q    Type
REMARK                         _______ _______ _______ _____ _____    ______ ____
ROOT
ATOM      1  C   UNL     1       2.421   6.357  18.956  0.00  0.00    +0.000 A 
ATOM      2  C   UNL     1       2.509   7.159  17.806  0.00  0.00    +0.000 A 
ATOM      3  C   UNL     1       2.191   8.523  17.819  0.00  0.00    +0.000 A 
ATOM      4  C   UNL     1       1.681   9.122  18.975  0.00  0.00    +0.000 A 
ATOM      5  C   UNL     1       1.318  10.477  19.011  0.00  0.00    +0.000 A 
ATOM      6  C   UNL     1       0.753  10.999  20.170  0.00  0.00    +0.000 A 
ATOM      7  N   UNL     1       0.559  10.251  21.266  0.00  0.00    +0.000 NA
ATOM      8  C   UNL     1       0.936   8.954  21.228  0.00  0.00    +0.000 A 
ATOM      9  C   UNL     1       1.509   8.335  20.119  0.00  0.00    +0.000 A 
ATOM     10  C   UNL     1       1.902   6.980  20.110  0.00  0.00    +0.000 A 
ENDROOT
BRANCH   1  18
ATOM     11  C   UNL     1       5.360   5.357  19.171  0.00  0.00    +0.000 C 
ATOM     12  C   UNL     1       4.160   4.448  19.063  0.00  0.00    +0.000 A 
ATOM     13  C   UNL     1       4.430   3.060  19.063  0.00  0.00    +0.000 A 
ATOM     14  C   UNL     1       3.402   2.126  19.022  0.00  0.00    +0.000 A 
ATOM     15  C   UNL     1       2.096   2.571  18.956  0.00  0.00    +0.000 A 
ATOM     16  F   UNL     1       1.096   1.681  18.935  0.00  0.00    +0.000 F 
ATOM     17  C   UNL     1       1.804   3.932  18.915  0.00  0.00    +0.000 A 
ATOM     18  C   UNL     1       2.818   4.917  18.969  0.00  0.00    +0.000 A 
ENDBRANCH   1  18
BRANCH   6  19
ATOM     19  N   UNL     1       0.387  12.349  20.156  0.00  0.00    +0.000 N 
ATOM     20  C   UNL     1       1.156  13.380  20.644  0.00  0.00    +0.000 C 
ATOM     21  O   UNL     1       2.247  13.326  21.186  0.00  0.00    +0.000 OA
ATOM     22  H   UNL     1      -0.508  12.575  19.753  0.00  0.00    +0.000 HD
BRANCH  20  23
ATOM     23  C   UNL     1       0.522  14.713  20.408  0.00  0.00    +0.000 C 
ATOM     24  C   UNL     1       0.808  15.901  21.287  0.00  0.00    +0.000 C 
ATOM     25  C   UNL     1       1.425  15.832  19.912  0.00  0.00    +0.000 C 
BRANCH  25  26
ATOM     26  C   UNL     1       0.942  16.708  18.784  0.00  0.00    +0.000 A 
ATOM     27  C   UNL     1      -0.401  17.102  18.691  0.00  0.00    +0.000 A 
ATOM     28  C   UNL     1      -0.842  17.942  17.665  0.00  0.00    +0.000 A 
ATOM     29  C   UNL     1       0.060  18.409  16.711  0.00  0.00    +0.000 A 
ATOM     30  C   UNL     1       1.399  18.040  16.788  0.00  0.00    +0.000 A 
ATOM     31  C   UNL     1       1.834  17.205  17.819  0.00  0.00    +0.000 A 
ENDBRANCH  25  26
ENDBRANCH  20  23
ENDBRANCH   6  19
TORSDOF 4
ENDMDL
MODEL 7
REMARK VINA RESULT:      -8.8      2.131      3.030
REMARK  Name = 
REMARK  5 active torsions:
REMARK  status: ('A' for Active; 'I' for Inactive)
REMARK    1  A    between atoms: C_1  and  C_2
REMARK    2  A    between atoms: C_8  and  C_9
REMARK    3  A    between atoms: C_14  and  N_15
REMARK    4  A    between atoms: C_16  and  C_18
REMARK    5  A    between atoms: C_20  and  C_21
REMARK                            x       y       z     vdW  Elec       q    Type
REMARK                         _______ _______ _______ _____ _____    ______ ____
ROOT
ATOM      1  C   UNL     1       2.251   7.155  18.520  0.00  0.00    +0.000 A 
ATOM      2  C   UNL     1       1.837   8.213  17.696  0.00  0.00    +0.000 A 
ATOM      3  C   UNL     1       1.351   9.421  18.214  0.00  0.00    +0.000 A 
ATOM      4  C   UNL     1       1.175   9.581  19.592  0.00  0.00    +0.000 A 
ATOM      5  C   UNL     1       0.656  10.763  20.142  0.00  0.00    +0.000 A 
ATOM      6  C   UNL     1       0.440  10.837  21.514  0.00  0.00    +0.000 A 
ATOM      7  N   UNL     1       0.730   9.818  22.336  0.00  0.00    +0.000 NA
ATOM      8  C   UNL     1       1.254   8.694  21.798  0.00  0.00    +0.000 A 
ATOM      9  C   UNL     1       1.507   8.518  20.440  0.00  0.00    +0.000 A 
ATOM     10  C   UNL     1       2.062   7.336  19.906  0.00  0.00    +0.000 A 
ENDROOT
BRANCH   1  18
ATOM     11  C   UNL     1       5.085   6.931  17.252  0.00  0.00    +0.000 C 
ATOM     12  C   UNL     1       4.125   5.776  17.394  0.00  0.00    +0.000 A 
ATOM     13  C   UNL     1       4.578   4.528  16.907  0.00  0.00    +0.000 A 
ATOM     14  C   UNL     1       3.803   3.381  17.031  0.00  0.00    +0.000 A 
ATOM     15  C   UNL     1       2.557   3.476  17.620  0.00  0.00    +0.000 A 
ATOM     16  F   UNL     1       1.809   2.375  17.762  0.00  0.00    +0.000 F 
ATOM     17  C   UNL     1       2.070   4.699  18.073  0.00  0.00    +0.000 A 
ATOM     18  C   UNL     1       2.831   5.889  17.980  0.00  0.00    +0.000 A 
ENDBRANCH   1  18
BRANCH   6  19
ATOM     19  N   UNL     1      -0.097  12.027  22.017  0.00  0.00    +0.000 N 
ATOM     20  C   UNL     1      -1.184  12.110  22.857  0.00  0.00    +0.000 C 
ATOM     21  O   UNL     1      -1.881  11.208  23.291  0.00  0.00    +0.000 OA
ATOM     22  H   UNL     1       0.353  12.884  21.739  0.00  0.00    +0.000 HD
BRANCH  20  23
ATOM     23  C   UNL     1      -1.461  13.516  23.279  0.00  0.00    +0.000 C 
ATOM     24  C   UNL     1      -1.000  14.699  22.469  0.00  0.00    +0.000 C 
ATOM     25  C   UNL     1      -2.456  14.307  22.445  0.00  0.00    +0.000 C 
BRANCH  25  26
ATOM     26  C   UNL     1      -3.507  15.125  23.151  0.00  0.00    +0.000 A 
ATOM     27  C   UNL     1      -3.208  16.386  23.691  0.00  0.00    +0.000 A 
ATOM     28  C   UNL     1      -4.190  17.160  24.316  0.00  0.00    +0.000 A 
ATOM     29  C   UNL     1      -5.497  16.685  24.407  0.00  0.00    +0.000 A 
ATOM     30  C   UNL     1      -5.820  15.443  23.871  0.00  0.00    +0.000 A 
ATOM     31  C   UNL     1      -4.835  14.677  23.243  0.00  0.00    +0.000 A 
ENDBRANCH  25  26
ENDBRANCH  20  23
ENDBRANCH   6  19
TORSDOF 4
ENDMDL
MODEL 8
REMARK VINA RESULT:      -8.8      1.540      2.530
REMARK  Name = 
REMARK  5 active torsions:
REMARK  status: ('A' for Active; 'I' for Inactive)
REMARK    1  A    between atoms: C_1  and  C_2
REMARK    2  A    between atoms: C_8  and  C_9
REMARK    3  A    between atoms: C_14  and  N_15
REMARK    4  A    between atoms: C_16  and  C_18
REMARK    5  A    between atoms: C_20  and  C_21
REMARK                            x       y       z     vdW  Elec       q    Type
REMARK                         _______ _______ _______ _____ _____    ______ ____
ROOT
ATOM      1  C   UNL     1       2.966   6.952  18.534  0.00  0.00    +0.000 A 
ATOM      2  C   UNL     1       2.446   6.743  19.822  0.00  0.00    +0.000 A 
ATOM      3  C   UNL     1       1.557   7.641  20.426  0.00  0.00    +0.000 A 
ATOM      4  C   UNL     1       1.222   8.841  19.792  0.00  0.00    +0.000 A 
ATOM      5  C   UNL     1       0.364   9.780  20.385  0.00  0.00    +0.000 A 
ATOM      6  C   UNL     1       0.122  10.987  19.735  0.00  0.00    +0.000 A 
ATOM      7  N   UNL     1       0.670  11.277  18.546  0.00  0.00    +0.000 NA
ATOM      8  C   UNL     1       1.475  10.354  17.973  0.00  0.00    +0.000 A 
ATOM      9  C   UNL     1       1.781   9.119  18.539  0.00  0.00    +0.000 A 
ATOM     10  C   UNL     1       2.618   8.170  17.914  0.00  0.00    +0.000 A 
ENDROOT
BRANCH   1  18
ATOM     11  C   UNL     1       2.086   4.102  17.647  0.00  0.00    +0.000 C 
ATOM     12  C   UNL     1       3.473   4.662  17.449  0.00  0.00    +0.000 A 
ATOM     13  C   UNL     1       4.404   3.806  16.817  0.00  0.00    +0.000 A 
ATOM     14  C   UNL     1       5.696   4.231  16.532  0.00  0.00    +0.000 A 
ATOM     15  C   UNL     1       6.078   5.507  16.900  0.00  0.00    +0.000 A 
ATOM     16  F   UNL     1       7.314   5.934  16.615  0.00  0.00    +0.000 F 
ATOM     17  C   UNL     1       5.193   6.356  17.559  0.00  0.00    +0.000 A 
ATOM     18  C   UNL     1       3.864   5.971  17.856  0.00  0.00    +0.000 A 
ENDBRANCH   1  18
BRANCH   6  19
ATOM     19  N   UNL     1      -0.724  11.901  20.371  0.00  0.00    +0.000 N 
ATOM     20  C   UNL     1      -2.040  12.124  20.036  0.00  0.00    +0.000 C 
ATOM     21  O   UNL     1      -2.696  11.614  19.144  0.00  0.00    +0.000 OA
ATOM     22  H   UNL     1      -0.332  12.432  21.132  0.00  0.00    +0.000 HD
BRANCH  20  23
ATOM     23  C   UNL     1      -2.694  13.104  20.956  0.00  0.00    +0.000 C 
ATOM     24  C   UNL     1      -4.071  12.874  21.520  0.00  0.00    +0.000 C 
ATOM     25  C   UNL     1      -2.867  12.683  22.407  0.00  0.00    +0.000 C 
BRANCH  25  26
ATOM     26  C   UNL     1      -2.521  13.668  23.495  0.00  0.00    +0.000 A 
ATOM     27  C   UNL     1      -3.438  13.984  24.509  0.00  0.00    +0.000 A 
ATOM     28  C   UNL     1      -3.106  14.871  25.537  0.00  0.00    +0.000 A 
ATOM     29  C   UNL     1      -1.842  15.457  25.571  0.00  0.00    +0.000 A 
ATOM     30  C   UNL     1      -0.913  15.152  24.582  0.00  0.00    +0.000 A 
ATOM     31  C   UNL     1      -1.250  14.260  23.560  0.00  0.00    +0.000 A 
ENDBRANCH  25  26
ENDBRANCH  20  23
ENDBRANCH   6  19
TORSDOF 4
ENDMDL
MODEL 9
REMARK VINA RESULT:      -8.7      1.300      1.973
REMARK  Name = 
REMARK  5 active torsions:
REMARK  status: ('A' for Active; 'I' for Inactive)
REMARK    1  A    between atoms: C_1  and  C_2
REMARK    2  A    between atoms: C_8  and  C_9
REMARK    3  A    between atoms: C_14  and  N_15
REMARK    4  A    between atoms: C_16  and  C_18
REMARK    5  A    between atoms: C_20  and  C_21
REMARK                            x       y       z     vdW  Elec       q    Type
REMARK                         _______ _______ _______ _____ _____    ______ ____
ROOT
ATOM      1  C   UNL     1       2.787   7.207  18.304  0.00  0.00    +0.000 A 
ATOM      2  C   UNL     1       2.357   8.256  17.476  0.00  0.00    +0.000 A 
ATOM      3  C   UNL     1       1.655   9.362  17.971  0.00  0.00    +0.000 A 
ATOM      4  C   UNL     1       1.273   9.416  19.315  0.00  0.00    +0.000 A 
ATOM      5  C   UNL     1       0.536  10.490  19.835  0.00  0.00    +0.000 A 
ATOM      6  C   UNL     1       0.127  10.454  21.165  0.00  0.00    +0.000 A 
ATOM      7  N   UNL     1       0.430   9.430  21.975  0.00  0.00    +0.000 NA
ATOM      8  C   UNL     1       1.162   8.412  21.469  0.00  0.00    +0.000 A 
ATOM      9  C   UNL     1       1.619   8.351  20.155  0.00  0.00    +0.000 A 
ATOM     10  C   UNL     1       2.389   7.279  19.655  0.00  0.00    +0.000 A 
ENDROOT
BRANCH   1  18
ATOM     11  C   UNL     1       1.644   4.351  17.831  0.00  0.00    +0.000 C 
ATOM     12  C   UNL     1       3.080   4.743  17.583  0.00  0.00    +0.000 A 
ATOM     13  C   UNL     1       3.929   3.718  17.104  0.00  0.00    +0.000 A 
ATOM     14  C   UNL     1       5.258   3.972  16.788  0.00  0.00    +0.000 A 
ATOM     15  C   UNL     1       5.757   5.247  16.971  0.00  0.00    +0.000 A 
ATOM     16  F   UNL     1       7.031   5.508  16.652  0.00  0.00    +0.000 F 
ATOM     17  C   UNL     1       4.954   6.265  17.477  0.00  0.00    +0.000 A 
ATOM     18  C   UNL     1       3.592   6.055  17.799  0.00  0.00    +0.000 A 
ENDBRANCH   1  18
BRANCH   6  19
ATOM     19  N   UNL     1      -0.622  11.538  21.636  0.00  0.00    +0.000 N 
ATOM     20  C   UNL     1      -1.431  11.514  22.749  0.00  0.00    +0.000 C 
ATOM     21  O   UNL     1      -1.668  10.581  23.498  0.00  0.00    +0.000 OA
ATOM     22  H   UNL     1      -0.557  12.398  21.116  0.00  0.00    +0.000 HD
BRANCH  20  23
ATOM     23  C   UNL     1      -2.032  12.852  23.034  0.00  0.00    +0.000 C 
ATOM     24  C   UNL     1      -1.815  14.035  22.128  0.00  0.00    +0.000 C 
ATOM     25  C   UNL     1      -3.145  13.323  22.111  0.00  0.00    +0.000 C 
BRANCH  25  26
ATOM     26  C   UNL     1      -4.379  13.940  22.718  0.00  0.00    +0.000 A 
ATOM     27  C   UNL     1      -5.526  13.172  22.973  0.00  0.00    +0.000 A 
ATOM     28  C   UNL     1      -6.659  13.736  23.568  0.00  0.00    +0.000 A 
ATOM     29  C   UNL     1      -6.662  15.083  23.923  0.00  0.00    +0.000 A 
ATOM     30  C   UNL     1      -5.533  15.862  23.689  0.00  0.00    +0.000 A 
ATOM     31  C   UNL     1      -4.403  15.291  23.100  0.00  0.00    +0.000 A 
ENDBRANCH  25  26
ENDBRANCH  20  23
ENDBRANCH   6  19
TORSDOF 4
ENDMDL
