MODEL 1
REMARK VINA RESULT:      -8.3      0.000      0.000
REMARK  Name = 
REMARK  3 active torsions:
REMARK  status: ('A' for Active; 'I' for Inactive)
REMARK    1  A    between atoms: C_1  and  N_2
REMARK    2  A    between atoms: C_8  and  C_9
REMARK    3  A    between atoms: C_15  and  C_16
REMARK                            x       y       z     vdW  Elec       q    Type
REMARK                         _______ _______ _______ _____ _____    ______ ____
ROOT
ATOM      1  C   UNL     1       6.536   4.014  15.632  0.00  0.00    +0.000 C 
ATOM      2  N   UNL     1       6.514   4.752  16.867  0.00  0.00    +0.000 NA
ATOM      3  C   UNL     1       5.649   4.274  17.956  0.00  0.00    +0.000 C 
ATOM      4  C   UNL     1       6.241   5.207  19.019  0.00  0.00    +0.000 C 
ATOM      5  C   UNL     1       6.523   6.526  18.286  0.00  0.00    +0.000 C 
ATOM      6  C   UNL     1       6.274   6.193  16.815  0.00  0.00    +0.000 C 
ATOM      7  C   UNL     1       4.848   6.554  16.357  0.00  0.00    +0.000 C 
ATOM      8  C   UNL     1       3.702   5.863  17.140  0.00  0.00    +0.000 C 
ATOM      9  C   UNL     1       4.124   4.425  17.618  0.00  0.00    +0.000 C 
ENDROOT
BRANCH   8  10
ATOM     10  C   UNL     1       2.979   6.810  18.118  0.00  0.00    +0.000 A 
ATOM     11  C   UNL     1       2.465   8.029  17.650  0.00  0.00    +0.000 A 
ATOM     12  C   UNL     1       1.759   8.900  18.492  0.00  0.00    +0.000 A 
ATOM     13  C   UNL     1       1.571   8.579  19.833  0.00  0.00    +0.000 A 
ATOM     14  C   UNL     1       2.074   7.386  20.323  0.00  0.00    +0.000 A 
ATOM     15  C   UNL     1       2.761   6.516  19.467  0.00  0.00    +0.000 A 
ENDBRANCH   8  10
BRANCH   9  16
ATOM     16  C   UNL     1       3.107   3.778  18.560  0.00  0.00    +0.000 A 
ATOM     17  C   UNL     1       1.804   3.527  18.086  0.00  0.00    +0.000 A 
ATOM     18  C   UNL     1       0.807   3.038  18.933  0.00  0.00    +0.000 A 
ATOM     19  C   UNL     1       1.095   2.790  20.270  0.00  0.00    +0.000 A 
ATOM     20  C   UNL     1       2.386   2.995  20.748  0.00  0.00    +0.000 A 
ATOM     21  C   UNL     1       3.389   3.465  19.895  0.00  0.00    +0.000 A 
ENDBRANCH   9  16
TORSDOF 2
ENDMDL
MODEL 2
REMARK VINA RESULT:      -8.2      0.212      1.071
REMARK  Name = 
REMARK  3 active torsions:
REMARK  status: ('A' for Active; 'I' for Inactive)
REMARK    1  A    between atoms: C_1  and  N_2
REMARK    2  A    between atoms: C_8  and  C_9
REMARK    3  A    between atoms: C_15  and  C_16
REMARK                            x       y       z     vdW  Elec       q    Type
REMARK                         _______ _______ _______ _____ _____    ______ ____
ROOT
ATOM      1  C   UNL     1       6.693   4.082  15.603  0.00  0.00    +0.000 C 
ATOM      2  N   UNL     1       6.630   4.785  16.857  0.00  0.00    +0.000 NA
ATOM      3  C   UNL     1       5.717   4.287  17.897  0.00  0.00    +0.000 C 
ATOM      4  C   UNL     1       6.277   5.183  19.008  0.00  0.00    +0.000 C 
ATOM      5  C   UNL     1       6.603   6.518  18.324  0.00  0.00    +0.000 C 
ATOM      6  C   UNL     1       6.409   6.229  16.836  0.00  0.00    +0.000 C 
ATOM      7  C   UNL     1       5.007   6.622  16.333  0.00  0.00    +0.000 C 
ATOM      8  C   UNL     1       3.823   5.924  17.050  0.00  0.00    +0.000 C 
ATOM      9  C   UNL     1       4.209   4.467  17.503  0.00  0.00    +0.000 C 
ENDROOT
BRANCH   8  10
ATOM     10  C   UNL     1       3.072   6.852  18.025  0.00  0.00    +0.000 A 
ATOM     11  C   UNL     1       2.577   8.083  17.568  0.00  0.00    +0.000 A 
ATOM     12  C   UNL     1       1.848   8.939  18.406  0.00  0.00    +0.000 A 
ATOM     13  C   UNL     1       1.617   8.590  19.733  0.00  0.00    +0.000 A 
ATOM     14  C   UNL     1       2.100   7.384  20.213  0.00  0.00    +0.000 A 
ATOM     15  C   UNL     1       2.811   6.530  19.359  0.00  0.00    +0.000 A 
ENDBRANCH   8  10
BRANCH   9  16
ATOM     16  C   UNL     1       3.147   3.808  18.385  0.00  0.00    +0.000 A 
ATOM     17  C   UNL     1       3.493   3.427  19.697  0.00  0.00    +0.000 A 
ATOM     18  C   UNL     1       2.598   2.726  20.507  0.00  0.00    +0.000 A 
ATOM     19  C   UNL     1       1.338   2.392  20.021  0.00  0.00    +0.000 A 
ATOM     20  C   UNL     1       0.965   2.794  18.741  0.00  0.00    +0.000 A 
ATOM     21  C   UNL     1       1.854   3.513  17.938  0.00  0.00    +0.000 A 
ENDBRANCH   9  16
TORSDOF 2
ENDMDL
MODEL 3
REMARK VINA RESULT:      -8.2      1.657      4.771
REMARK  Name = 
REMARK  3 active torsions:
REMARK  status: ('A' for Active; 'I' for Inactive)
REMARK    1  A    between atoms: C_1  and  N_2
REMARK    2  A    between atoms: C_8  and  C_9
REMARK    3  A    between atoms: C_15  and  C_16
REMARK                            x       y       z     vdW  Elec       q    Type
REMARK                         _______ _______ _______ _____ _____    ______ ____
ROOT
ATOM      1  C   UNL     1       0.728   1.988  18.557  0.00  0.00    +0.000 C 
ATOM      2  N   UNL     1       1.834   2.383  19.389  0.00  0.00    +0.000 NA
ATOM      3  C   UNL     1       1.951   3.796  19.778  0.00  0.00    +0.000 C 
ATOM      4  C   UNL     1       3.049   3.559  20.821  0.00  0.00    +0.000 C 
ATOM      5  C   UNL     1       3.945   2.466  20.222  0.00  0.00    +0.000 C 
ATOM      6  C   UNL     1       3.184   2.002  18.980  0.00  0.00    +0.000 C 
ATOM      7  C   UNL     1       3.653   2.715  17.696  0.00  0.00    +0.000 C 
ATOM      8  C   UNL     1       3.528   4.260  17.709  0.00  0.00    +0.000 C 
ATOM      9  C   UNL     1       2.289   4.725  18.559  0.00  0.00    +0.000 C 
ENDROOT
BRANCH   8  10
ATOM     10  C   UNL     1       4.882   4.976  17.879  0.00  0.00    +0.000 A 
ATOM     11  C   UNL     1       5.410   5.723  16.814  0.00  0.00    +0.000 A 
ATOM     12  C   UNL     1       6.615   6.430  16.939  0.00  0.00    +0.000 A 
ATOM     13  C   UNL     1       7.333   6.386  18.131  0.00  0.00    +0.000 A 
ATOM     14  C   UNL     1       6.839   5.651  19.195  0.00  0.00    +0.000 A 
ATOM     15  C   UNL     1       5.624   4.965  19.063  0.00  0.00    +0.000 A 
ENDBRANCH   8  10
BRANCH   9  16
ATOM     16  C   UNL     1       2.233   6.240  18.767  0.00  0.00    +0.000 A 
ATOM     17  C   UNL     1       1.977   6.740  20.059  0.00  0.00    +0.000 A 
ATOM     18  C   UNL     1       1.809   8.108  20.285  0.00  0.00    +0.000 A 
ATOM     19  C   UNL     1       1.894   9.002  19.223  0.00  0.00    +0.000 A 
ATOM     20  C   UNL     1       2.184   8.529  17.946  0.00  0.00    +0.000 A 
ATOM     21  C   UNL     1       2.372   7.163  17.724  0.00  0.00    +0.000 A 
ENDBRANCH   9  16
TORSDOF 2
ENDMDL
MODEL 4
REMARK VINA RESULT:      -8.1      1.665      4.880
REMARK  Name = 
REMARK  3 active torsions:
REMARK  status: ('A' for Active; 'I' for Inactive)
REMARK    1  A    between atoms: C_1  and  N_2
REMARK    2  A    between atoms: C_8  and  C_9
REMARK    3  A    between atoms: C_15  and  C_16
REMARK                            x       y       z     vdW  Elec       q    Type
REMARK                         _______ _______ _______ _____ _____    ______ ____
ROOT
ATOM      1  C   UNL     1       0.718   2.038  18.568  0.00  0.00    +0.000 C 
ATOM      2  N   UNL     1       1.828   2.448  19.389  0.00  0.00    +0.000 NA
ATOM      3  C   UNL     1       1.933   3.864  19.773  0.00  0.00    +0.000 C 
ATOM      4  C   UNL     1       3.042   3.641  20.807  0.00  0.00    +0.000 C 
ATOM      5  C   UNL     1       3.945   2.556  20.204  0.00  0.00    +0.000 C 
ATOM      6  C   UNL     1       3.178   2.081  18.969  0.00  0.00    +0.000 C 
ATOM      7  C   UNL     1       3.628   2.795  17.680  0.00  0.00    +0.000 C 
ATOM      8  C   UNL     1       3.487   4.338  17.689  0.00  0.00    +0.000 C 
ATOM      9  C   UNL     1       2.250   4.793  18.549  0.00  0.00    +0.000 C 
ENDROOT
BRANCH   8  10
ATOM     10  C   UNL     1       4.834   5.070  17.846  0.00  0.00    +0.000 A 
ATOM     11  C   UNL     1       5.548   4.958  19.049  0.00  0.00    +0.000 A 
ATOM     12  C   UNL     1       6.799   5.568  19.220  0.00  0.00    +0.000 A 
ATOM     13  C   UNL     1       7.356   6.325  18.194  0.00  0.00    +0.000 A 
ATOM     14  C   UNL     1       6.671   6.457  16.998  0.00  0.00    +0.000 A 
ATOM     15  C   UNL     1       5.430   5.827  16.834  0.00  0.00    +0.000 A 
ENDBRANCH   8  10
BRANCH   9  16
ATOM     16  C   UNL     1       2.179   6.307  18.752  0.00  0.00    +0.000 A 
ATOM     17  C   UNL     1       1.962   6.810  20.051  0.00  0.00    +0.000 A 
ATOM     18  C   UNL     1       1.782   8.176  20.277  0.00  0.00    +0.000 A 
ATOM     19  C   UNL     1       1.817   9.066  19.209  0.00  0.00    +0.000 A 
ATOM     20  C   UNL     1       2.069   8.592  17.925  0.00  0.00    +0.000 A 
ATOM     21  C   UNL     1       2.269   7.227  17.701  0.00  0.00    +0.000 A 
ENDBRANCH   9  16
TORSDOF 2
ENDMDL
MODEL 5
REMARK VINA RESULT:      -8.0      0.093      1.046
REMARK  Name = 
REMARK  3 active torsions:
REMARK  status: ('A' for Active; 'I' for Inactive)
REMARK    1  A    between atoms: C_1  and  N_2
REMARK    2  A    between atoms: C_8  and  C_9
REMARK    3  A    between atoms: C_15  and  C_16
REMARK                            x       y       z     vdW  Elec       q    Type
REMARK                         _______ _______ _______ _____ _____    ______ ____
ROOT
ATOM      1  C   UNL     1       6.632   4.060  15.680  0.00  0.00    +0.000 C 
ATOM      2  N   UNL     1       6.566   4.791  16.919  0.00  0.00    +0.000 NA
ATOM      3  C   UNL     1       5.680   4.294  17.982  0.00  0.00    +0.000 C 
ATOM      4  C   UNL     1       6.230   5.229  19.064  0.00  0.00    +0.000 C 
ATOM      5  C   UNL     1       6.512   6.556  18.346  0.00  0.00    +0.000 C 
ATOM      6  C   UNL     1       6.308   6.228  16.867  0.00  0.00    +0.000 C 
ATOM      7  C   UNL     1       4.889   6.572  16.374  0.00  0.00    +0.000 C 
ATOM      8  C   UNL     1       3.733   5.860  17.122  0.00  0.00    +0.000 C 
ATOM      9  C   UNL     1       4.162   4.425  17.603  0.00  0.00    +0.000 C 
ENDROOT
BRANCH   8  10
ATOM     10  C   UNL     1       2.970   6.791  18.085  0.00  0.00    +0.000 A 
ATOM     11  C   UNL     1       2.803   6.414  19.427  0.00  0.00    +0.000 A 
ATOM     12  C   UNL     1       2.158   7.250  20.349  0.00  0.00    +0.000 A 
ATOM     13  C   UNL     1       1.642   8.477  19.943  0.00  0.00    +0.000 A 
ATOM     14  C   UNL     1       1.787   8.871  18.624  0.00  0.00    +0.000 A 
ATOM     15  C   UNL     1       2.450   8.035  17.716  0.00  0.00    +0.000 A 
ENDBRANCH   8  10
BRANCH   9  16
ATOM     16  C   UNL     1       3.129   3.759  18.514  0.00  0.00    +0.000 A 
ATOM     17  C   UNL     1       1.835   3.517  18.012  0.00  0.00    +0.000 A 
ATOM     18  C   UNL     1       0.824   3.010  18.831  0.00  0.00    +0.000 A 
ATOM     19  C   UNL     1       1.088   2.736  20.169  0.00  0.00    +0.000 A 
ATOM     20  C   UNL     1       2.371   2.932  20.673  0.00  0.00    +0.000 A 
ATOM     21  C   UNL     1       3.388   3.420  19.847  0.00  0.00    +0.000 A 
ENDBRANCH   9  16
TORSDOF 2
ENDMDL
MODEL 6
REMARK VINA RESULT:      -7.8      0.184      1.491
REMARK  Name = 
REMARK  3 active torsions:
REMARK  status: ('A' for Active; 'I' for Inactive)
REMARK    1  A    between atoms: C_1  and  N_2
REMARK    2  A    between atoms: C_8  and  C_9
REMARK    3  A    between atoms: C_15  and  C_16
REMARK                            x       y       z     vdW  Elec       q    Type
REMARK                         _______ _______ _______ _____ _____    ______ ____
ROOT
ATOM      1  C   UNL     1       6.705   4.102  15.715  0.00  0.00    +0.000 C 
ATOM      2  N   UNL     1       6.608   4.827  16.955  0.00  0.00    +0.000 NA
ATOM      3  C   UNL     1       5.679   4.337  17.984  0.00  0.00    +0.000 C 
ATOM      4  C   UNL     1       6.206   5.259  19.090  0.00  0.00    +0.000 C 
ATOM      5  C   UNL     1       6.532   6.585  18.390  0.00  0.00    +0.000 C 
ATOM      6  C   UNL     1       6.372   6.268  16.903  0.00  0.00    +0.000 C 
ATOM      7  C   UNL     1       4.976   6.636  16.364  0.00  0.00    +0.000 C 
ATOM      8  C   UNL     1       3.785   5.937  17.068  0.00  0.00    +0.000 C 
ATOM      9  C   UNL     1       4.177   4.493  17.556  0.00  0.00    +0.000 C 
ENDROOT
BRANCH   8  10
ATOM     10  C   UNL     1       3.004   6.874  18.011  0.00  0.00    +0.000 A 
ATOM     11  C   UNL     1       2.802   6.501  19.349  0.00  0.00    +0.000 A 
ATOM     12  C   UNL     1       2.139   7.341  20.253  0.00  0.00    +0.000 A 
ATOM     13  C   UNL     1       1.640   8.570  19.832  0.00  0.00    +0.000 A 
ATOM     14  C   UNL     1       1.819   8.961  18.516  0.00  0.00    +0.000 A 
ATOM     15  C   UNL     1       2.500   8.120  17.627  0.00  0.00    +0.000 A 
ENDBRANCH   8  10
BRANCH   9  16
ATOM     16  C   UNL     1       3.105   3.838  18.427  0.00  0.00    +0.000 A 
ATOM     17  C   UNL     1       3.435   3.458  19.743  0.00  0.00    +0.000 A 
ATOM     18  C   UNL     1       2.529   2.760  20.544  0.00  0.00    +0.000 A 
ATOM     19  C   UNL     1       1.274   2.429  20.045  0.00  0.00    +0.000 A 
ATOM     20  C   UNL     1       0.915   2.830  18.761  0.00  0.00    +0.000 A 
ATOM     21  C   UNL     1       1.815   3.546  17.967  0.00  0.00    +0.000 A 
ENDBRANCH   9  16
TORSDOF 2
ENDMDL
MODEL 7
REMARK VINA RESULT:      -7.7      1.008      4.154
REMARK  Name = 
REMARK  3 active torsions:
REMARK  status: ('A' for Active; 'I' for Inactive)
REMARK    1  A    between atoms: C_1  and  N_2
REMARK    2  A    between atoms: C_8  and  C_9
REMARK    3  A    between atoms: C_15  and  C_16
REMARK                            x       y       z     vdW  Elec       q    Type
REMARK                         _______ _______ _______ _____ _____    ______ ____
ROOT
ATOM      1  C   UNL     1       7.527   6.656  17.979  0.00  0.00    +0.000 C 
ATOM      2  N   UNL     1       6.486   5.950  17.279  0.00  0.00    +0.000 NA
ATOM      3  C   UNL     1       5.152   6.563  17.198  0.00  0.00    +0.000 C 
ATOM      4  C   UNL     1       4.612   5.575  16.159  0.00  0.00    +0.000 C 
ATOM      5  C   UNL     1       5.219   4.217  16.538  0.00  0.00    +0.000 C 
ATOM      6  C   UNL     1       6.228   4.557  17.635  0.00  0.00    +0.000 C 
ATOM      7  C   UNL     1       5.644   4.390  19.051  0.00  0.00    +0.000 C 
ATOM      8  C   UNL     1       4.391   5.247  19.360  0.00  0.00    +0.000 C 
ATOM      9  C   UNL     1       4.436   6.621  18.594  0.00  0.00    +0.000 C 
ENDROOT
BRANCH   8  10
ATOM     10  C   UNL     1       3.085   4.428  19.380  0.00  0.00    +0.000 A 
ATOM     11  C   UNL     1       2.557   3.994  20.606  0.00  0.00    +0.000 A 
ATOM     12  C   UNL     1       1.349   3.287  20.676  0.00  0.00    +0.000 A 
ATOM     13  C   UNL     1       0.650   2.976  19.514  0.00  0.00    +0.000 A 
ATOM     14  C   UNL     1       1.152   3.386  18.290  0.00  0.00    +0.000 A 
ATOM     15  C   UNL     1       2.351   4.108  18.235  0.00  0.00    +0.000 A 
ENDBRANCH   8  10
BRANCH   9  16
ATOM     16  C   UNL     1       3.136   7.419  18.707  0.00  0.00    +0.000 A 
ATOM     17  C   UNL     1       2.709   8.184  17.603  0.00  0.00    +0.000 A 
ATOM     18  C   UNL     1       1.589   9.015  17.688  0.00  0.00    +0.000 A 
ATOM     19  C   UNL     1       0.876   9.096  18.879  0.00  0.00    +0.000 A 
ATOM     20  C   UNL     1       1.260   8.319  19.968  0.00  0.00    +0.000 A 
ATOM     21  C   UNL     1       2.368   7.473  19.876  0.00  0.00    +0.000 A 
ENDBRANCH   9  16
TORSDOF 2
ENDMDL
MODEL 8
REMARK VINA RESULT:      -7.6      1.016      4.071
REMARK  Name = 
REMARK  3 active torsions:
REMARK  status: ('A' for Active; 'I' for Inactive)
REMARK    1  A    between atoms: C_1  and  N_2
REMARK    2  A    between atoms: C_8  and  C_9
REMARK    3  A    between atoms: C_15  and  C_16
REMARK                            x       y       z     vdW  Elec       q    Type
REMARK                         _______ _______ _______ _____ _____    ______ ____
ROOT
ATOM      1  C   UNL     1       7.449   6.613  17.912  0.00  0.00    +0.000 C 
ATOM      2  N   UNL     1       6.384   5.894  17.263  0.00  0.00    +0.000 NA
ATOM      3  C   UNL     1       5.055   6.519  17.193  0.00  0.00    +0.000 C 
ATOM      4  C   UNL     1       4.478   5.500  16.204  0.00  0.00    +0.000 C 
ATOM      5  C   UNL     1       5.080   4.150  16.618  0.00  0.00    +0.000 C 
ATOM      6  C   UNL     1       6.120   4.517  17.676  0.00  0.00    +0.000 C 
ATOM      7  C   UNL     1       5.570   4.408  19.111  0.00  0.00    +0.000 C 
ATOM      8  C   UNL     1       4.334   5.291  19.420  0.00  0.00    +0.000 C 
ATOM      9  C   UNL     1       4.375   6.635  18.603  0.00  0.00    +0.000 C 
ENDROOT
BRANCH   8  10
ATOM     10  C   UNL     1       3.021   4.488  19.501  0.00  0.00    +0.000 A 
ATOM     11  C   UNL     1       2.368   4.104  18.320  0.00  0.00    +0.000 A 
ATOM     12  C   UNL     1       1.197   3.333  18.344  0.00  0.00    +0.000 A 
ATOM     13  C   UNL     1       0.638   2.947  19.559  0.00  0.00    +0.000 A 
ATOM     14  C   UNL     1       1.257   3.319  20.740  0.00  0.00    +0.000 A 
ATOM     15  C   UNL     1       2.437   4.073  20.701  0.00  0.00    +0.000 A 
ENDBRANCH   8  10
BRANCH   9  16
ATOM     16  C   UNL     1       3.087   7.452  18.719  0.00  0.00    +0.000 A 
ATOM     17  C   UNL     1       2.666   8.220  17.615  0.00  0.00    +0.000 A 
ATOM     18  C   UNL     1       1.558   9.067  17.702  0.00  0.00    +0.000 A 
ATOM     19  C   UNL     1       0.851   9.161  18.895  0.00  0.00    +0.000 A 
ATOM     20  C   UNL     1       1.228   8.382  19.985  0.00  0.00    +0.000 A 
ATOM     21  C   UNL     1       2.324   7.519  19.891  0.00  0.00    +0.000 A 
ENDBRANCH   9  16
TORSDOF 2
ENDMDL
MODEL 9
REMARK VINA RESULT:      -7.5      1.654      4.665
REMARK  Name = 
REMARK  3 active torsions:
REMARK  status: ('A' for Active; 'I' for Inactive)
REMARK    1  A    between atoms: C_1  and  N_2
REMARK    2  A    between atoms: C_8  and  C_9
REMARK    3  A    between atoms: C_15  and  C_16
REMARK                            x       y       z     vdW  Elec       q    Type
REMARK                         _______ _______ _______ _____ _____    ______ ____
ROOT
ATOM      1  C   UNL     1       0.758   1.797  18.583  0.00  0.00    +0.000 C 
ATOM      2  N   UNL     1       1.864   2.235  19.394  0.00  0.00    +0.000 NA
ATOM      3  C   UNL     1       1.934   3.651  19.782  0.00  0.00    +0.000 C 
ATOM      4  C   UNL     1       3.060   3.456  20.804  0.00  0.00    +0.000 C 
ATOM      5  C   UNL     1       3.986   2.399  20.187  0.00  0.00    +0.000 C 
ATOM      6  C   UNL     1       3.220   1.907  18.959  0.00  0.00    +0.000 C 
ATOM      7  C   UNL     1       3.637   2.637  17.668  0.00  0.00    +0.000 C 
ATOM      8  C   UNL     1       3.453   4.176  17.684  0.00  0.00    +0.000 C 
ATOM      9  C   UNL     1       2.212   4.593  18.558  0.00  0.00    +0.000 C 
ENDROOT
BRANCH   8  10
ATOM     10  C   UNL     1       4.781   4.944  17.830  0.00  0.00    +0.000 A 
ATOM     11  C   UNL     1       5.267   5.699  16.751  0.00  0.00    +0.000 A 
ATOM     12  C   UNL     1       6.446   6.451  16.853  0.00  0.00    +0.000 A 
ATOM     13  C   UNL     1       7.180   6.446  18.036  0.00  0.00    +0.000 A 
ATOM     14  C   UNL     1       6.728   5.705  19.113  0.00  0.00    +0.000 A 
ATOM     15  C   UNL     1       5.538   4.972  19.004  0.00  0.00    +0.000 A 
ENDBRANCH   8  10
BRANCH   9  16
ATOM     16  C   UNL     1       2.102   6.104  18.768  0.00  0.00    +0.000 A 
ATOM     17  C   UNL     1       2.250   6.958  17.657  0.00  0.00    +0.000 A 
ATOM     18  C   UNL     1       2.265   8.347  17.808  0.00  0.00    +0.000 A 
ATOM     19  C   UNL     1       2.131   8.907  19.074  0.00  0.00    +0.000 A 
ATOM     20  C   UNL     1       1.944   8.080  20.178  0.00  0.00    +0.000 A 
ATOM     21  C   UNL     1       1.909   6.692  20.024  0.00  0.00    +0.000 A 
ENDBRANCH   9  16
TORSDOF 2
ENDMDL
