MODEL 1
REMARK VINA RESULT:      -7.9      0.000      0.000
REMARK  Name = 
REMARK  0 active torsions:
REMARK  status: ('A' for Active; 'I' for Inactive)
REMARK                            x       y       z     vdW  Elec       q    Type
REMARK                         _______ _______ _______ _____ _____    ______ ____
ROOT
ATOM      1 CL   UNL     1       3.793  17.208  21.161  0.00  0.00    +0.000 Cl
ATOM      2  C   UNL     1       3.525  15.931  20.036  0.00  0.00    +0.000 A 
ATOM      3  C   UNL     1       4.132  15.981  18.783  0.00  0.00    +0.000 A 
ATOM      4  C   UNL     1       3.945  14.951  17.855  0.00  0.00    +0.000 A 
ATOM      5  C   UNL     1       3.139  13.872  18.237  0.00  0.00    +0.000 A 
ATOM      6  N   UNL     1       2.818  12.715  17.551  0.00  0.00    +0.000 N 
ATOM      7  C   UNL     1       2.052  11.912  18.346  0.00  0.00    +0.000 A 
ATOM      8  C   UNL     1       1.821  12.569  19.537  0.00  0.00    +0.000 A 
ATOM      9  C   UNL     1       2.517  13.803  19.488  0.00  0.00    +0.000 A 
ATOM     10  C   UNL     1       2.711  14.856  20.404  0.00  0.00    +0.000 A 
ATOM     11  C   UNL     1       1.044  11.930  20.639  0.00  0.00    +0.000 C 
ATOM     12  C   UNL     1       0.288  10.673  20.141  0.00  0.00    +0.000 C 
ATOM     13  N   UNL     1       1.109   9.851  19.233  0.00  0.00    +0.000 N 
ATOM     14  C   UNL     1       1.507   8.575  19.497  0.00  0.00    +0.000 A 
ATOM     15  N   UNL     1       2.305   7.883  18.710  0.00  0.00    +0.000 NA
ATOM     16  C   UNL     1       2.559   6.606  19.202  0.00  0.00    +0.000 A 
ATOM     17  C   UNL     1       3.370   5.590  18.641  0.00  0.00    +0.000 A 
ATOM     18 CL   UNL     1       4.149   6.028  17.173  0.00  0.00    +0.000 Cl
ATOM     19  C   UNL     1       3.503   4.336  19.257  0.00  0.00    +0.000 A 
ATOM     20 CL   UNL     1       4.501   3.111  18.539  0.00  0.00    +0.000 Cl
ATOM     21  C   UNL     1       2.821   4.090  20.451  0.00  0.00    +0.000 A 
ATOM     22 CL   UNL     1       2.909   2.571  21.277  0.00  0.00    +0.000 Cl
ATOM     23  C   UNL     1       2.022   5.076  21.041  0.00  0.00    +0.000 A 
ATOM     24  C   UNL     1       1.907   6.322  20.399  0.00  0.00    +0.000 A 
ATOM     25  S   UNL     1       1.012   7.690  20.898  0.00  0.00    +0.000 S 
ATOM     26  C   UNL     1       1.586  10.529  18.018  0.00  0.00    +0.000 C 
ATOM     27  H   UNL     1       3.152  12.487  16.624  0.00  0.00    +0.000 HD
ENDROOT
TORSDOF 0
ENDMDL
MODEL 2
REMARK VINA RESULT:      -7.7      0.975      1.142
REMARK  Name = 
REMARK  0 active torsions:
REMARK  status: ('A' for Active; 'I' for Inactive)
REMARK                            x       y       z     vdW  Elec       q    Type
REMARK                         _______ _______ _______ _____ _____    ______ ____
ROOT
ATOM      1 CL   UNL     1       2.996  16.864  21.839  0.00  0.00    +0.000 Cl
ATOM      2  C   UNL     1       2.838  15.735  20.546  0.00  0.00    +0.000 A 
ATOM      3  C   UNL     1       3.314  16.070  19.281  0.00  0.00    +0.000 A 
ATOM      4  C   UNL     1       3.214  15.167  18.216  0.00  0.00    +0.000 A 
ATOM      5  C   UNL     1       2.630  13.921  18.475  0.00  0.00    +0.000 A 
ATOM      6  N   UNL     1       2.440  12.838  17.638  0.00  0.00    +0.000 N 
ATOM      7  C   UNL     1       1.888  11.808  18.344  0.00  0.00    +0.000 A 
ATOM      8  C   UNL     1       1.662  12.236  19.636  0.00  0.00    +0.000 A 
ATOM      9  C   UNL     1       2.142  13.566  19.737  0.00  0.00    +0.000 A 
ATOM     10  C   UNL     1       2.245  14.494  20.792  0.00  0.00    +0.000 A 
ATOM     11  C   UNL     1       1.100  11.321  20.671  0.00  0.00    +0.000 C 
ATOM     12  C   UNL     1       0.515  10.037  20.031  0.00  0.00    +0.000 C 
ATOM     13  N   UNL     1       1.374   9.508  18.955  0.00  0.00    +0.000 N 
ATOM     14  C   UNL     1       1.995   8.297  18.989  0.00  0.00    +0.000 A 
ATOM     15  N   UNL     1       2.820   7.874  18.054  0.00  0.00    +0.000 NA
ATOM     16  C   UNL     1       3.319   6.602  18.322  0.00  0.00    +0.000 A 
ATOM     17  C   UNL     1       4.230   5.834  17.558  0.00  0.00    +0.000 A 
ATOM     18 CL   UNL     1       4.794   6.607  16.130  0.00  0.00    +0.000 Cl
ATOM     19  C   UNL     1       4.619   4.546  17.959  0.00  0.00    +0.000 A 
ATOM     20 CL   UNL     1       5.734   3.629  16.996  0.00  0.00    +0.000 Cl
ATOM     21  C   UNL     1       4.095   4.017  19.141  0.00  0.00    +0.000 A 
ATOM     22 CL   UNL     1       4.500   2.433  19.711  0.00  0.00    +0.000 Cl
ATOM     23  C   UNL     1       3.204   4.754  19.929  0.00  0.00    +0.000 A 
ATOM     24  C   UNL     1       2.832   6.041  19.498  0.00  0.00    +0.000 A 
ATOM     25  S   UNL     1       1.775   7.147  20.262  0.00  0.00    +0.000 S 
ATOM     26  C   UNL     1       1.624  10.427  17.833  0.00  0.00    +0.000 C 
ATOM     27  H   UNL     1       2.722  12.806  16.667  0.00  0.00    +0.000 HD
ENDROOT
TORSDOF 0
ENDMDL
MODEL 3
REMARK VINA RESULT:      -6.9      4.387      8.787
REMARK  Name = 
REMARK  0 active torsions:
REMARK  status: ('A' for Active; 'I' for Inactive)
REMARK                            x       y       z     vdW  Elec       q    Type
REMARK                         _______ _______ _______ _____ _____    ______ ____
ROOT
ATOM      1 CL   UNL     1       3.263   2.522  21.171  0.00  0.00    +0.000 Cl
ATOM      2  C   UNL     1       2.982   3.860  20.123  0.00  0.00    +0.000 A 
ATOM      3  C   UNL     1       3.127   3.697  18.748  0.00  0.00    +0.000 A 
ATOM      4  C   UNL     1       2.891   4.763  17.871  0.00  0.00    +0.000 A 
ATOM      5  C   UNL     1       2.494   5.985  18.428  0.00  0.00    +0.000 A 
ATOM      6  N   UNL     1       2.160   7.176  17.811  0.00  0.00    +0.000 N 
ATOM      7  C   UNL     1       1.770   8.083  18.753  0.00  0.00    +0.000 A 
ATOM      8  C   UNL     1       1.905   7.504  19.998  0.00  0.00    +0.000 A 
ATOM      9  C   UNL     1       2.346   6.171  19.806  0.00  0.00    +0.000 A 
ATOM     10  C   UNL     1       2.599   5.088  20.671  0.00  0.00    +0.000 A 
ATOM     11  C   UNL     1       1.518   8.234  21.241  0.00  0.00    +0.000 C 
ATOM     12  C   UNL     1       1.308   9.744  20.966  0.00  0.00    +0.000 C 
ATOM     13  N   UNL     1       0.587   9.987  19.702  0.00  0.00    +0.000 N 
ATOM     14  C   UNL     1      -0.637  10.577  19.615  0.00  0.00    +0.000 A 
ATOM     15  N   UNL     1      -1.300  10.715  18.485  0.00  0.00    +0.000 NA
ATOM     16  C   UNL     1      -2.525  11.352  18.663  0.00  0.00    +0.000 A 
ATOM     17  C   UNL     1      -3.507  11.664  17.692  0.00  0.00    +0.000 A 
ATOM     18 CL   UNL     1      -3.117  11.156  16.096  0.00  0.00    +0.000 Cl
ATOM     19  C   UNL     1      -4.690  12.336  18.035  0.00  0.00    +0.000 A 
ATOM     20 CL   UNL     1      -5.870  12.708  16.818  0.00  0.00    +0.000 Cl
ATOM     21  C   UNL     1      -4.900  12.702  19.367  0.00  0.00    +0.000 A 
ATOM     22 CL   UNL     1      -6.319  13.548  19.886  0.00  0.00    +0.000 Cl
ATOM     23  C   UNL     1      -3.959  12.397  20.356  0.00  0.00    +0.000 A 
ATOM     24  C   UNL     1      -2.782  11.724  19.980  0.00  0.00    +0.000 A 
ATOM     25  S   UNL     1      -1.482  11.230  20.975  0.00  0.00    +0.000 S 
ATOM     26  C   UNL     1       1.230   9.453  18.491  0.00  0.00    +0.000 C 
ATOM     27  H   UNL     1       2.155   7.321  16.810  0.00  0.00    +0.000 HD
ENDROOT
TORSDOF 0
ENDMDL
MODEL 4
REMARK VINA RESULT:      -6.7      3.312      5.011
REMARK  Name = 
REMARK  0 active torsions:
REMARK  status: ('A' for Active; 'I' for Inactive)
REMARK                            x       y       z     vdW  Elec       q    Type
REMARK                         _______ _______ _______ _____ _____    ______ ____
ROOT
ATOM      1 CL   UNL     1      -5.448  13.911  20.991  0.00  0.00    +0.000 Cl
ATOM      2  C   UNL     1      -4.104  13.044  21.633  0.00  0.00    +0.000 A 
ATOM      3  C   UNL     1      -4.122  12.640  22.966  0.00  0.00    +0.000 A 
ATOM      4  C   UNL     1      -3.052  11.921  23.510  0.00  0.00    +0.000 A 
ATOM      5  C   UNL     1      -1.978  11.617  22.665  0.00  0.00    +0.000 A 
ATOM      6  N   UNL     1      -0.825  10.896  22.916  0.00  0.00    +0.000 N 
ATOM      7  C   UNL     1      -0.090  10.798  21.771  0.00  0.00    +0.000 A 
ATOM      8  C   UNL     1      -0.734  11.507  20.777  0.00  0.00    +0.000 A 
ATOM      9  C   UNL     1      -1.938  12.015  21.325  0.00  0.00    +0.000 A 
ATOM     10  C   UNL     1      -3.022  12.748  20.800  0.00  0.00    +0.000 A 
ATOM     11  C   UNL     1      -0.197  11.558  19.386  0.00  0.00    +0.000 C 
ATOM     12  C   UNL     1       1.263  11.044  19.325  0.00  0.00    +0.000 C 
ATOM     13  N   UNL     1       1.469   9.847  20.161  0.00  0.00    +0.000 N 
ATOM     14  C   UNL     1       1.820   8.622  19.680  0.00  0.00    +0.000 A 
ATOM     15  N   UNL     1       1.924   7.546  20.432  0.00  0.00    +0.000 NA
ATOM     16  C   UNL     1       2.299   6.422  19.701  0.00  0.00    +0.000 A 
ATOM     17  C   UNL     1       2.498   5.097  20.160  0.00  0.00    +0.000 A 
ATOM     18 CL   UNL     1       2.208   4.874  21.840  0.00  0.00    +0.000 Cl
ATOM     19  C   UNL     1       2.902   4.073  19.290  0.00  0.00    +0.000 A 
ATOM     20 CL   UNL     1       3.143   2.462  19.887  0.00  0.00    +0.000 Cl
ATOM     21  C   UNL     1       3.109   4.372  17.941  0.00  0.00    +0.000 A 
ATOM     22 CL   UNL     1       3.624   3.182  16.794  0.00  0.00    +0.000 Cl
ATOM     23  C   UNL     1       2.907   5.666  17.450  0.00  0.00    +0.000 A 
ATOM     24  C   UNL     1       2.504   6.671  18.347  0.00  0.00    +0.000 A 
ATOM     25  S   UNL     1       2.185   8.318  18.017  0.00  0.00    +0.000 S 
ATOM     26  C   UNL     1       1.169  10.012  21.593  0.00  0.00    +0.000 C 
ATOM     27  H   UNL     1      -0.600  10.466  23.803  0.00  0.00    +0.000 HD
ENDROOT
TORSDOF 0
ENDMDL
MODEL 5
REMARK VINA RESULT:      -6.6      8.201     10.112
REMARK  Name = 
REMARK  0 active torsions:
REMARK  status: ('A' for Active; 'I' for Inactive)
REMARK                            x       y       z     vdW  Elec       q    Type
REMARK                         _______ _______ _______ _____ _____    ______ ____
ROOT
ATOM      1 CL   UNL     1      12.291  11.471  19.502  0.00  0.00    +0.000 Cl
ATOM      2  C   UNL     1      11.368  12.765  18.837  0.00  0.00    +0.000 A 
ATOM      3  C   UNL     1      11.446  13.035  17.473  0.00  0.00    +0.000 A 
ATOM      4  C   UNL     1      10.697  14.070  16.904  0.00  0.00    +0.000 A 
ATOM      5  C   UNL     1       9.863  14.810  17.752  0.00  0.00    +0.000 A 
ATOM      6  N   UNL     1       8.994  15.845  17.462  0.00  0.00    +0.000 N 
ATOM      7  C   UNL     1       8.336  16.219  18.598  0.00  0.00    +0.000 A 
ATOM      8  C   UNL     1       8.818  15.466  19.649  0.00  0.00    +0.000 A 
ATOM      9  C   UNL     1       9.772  14.558  19.124  0.00  0.00    +0.000 A 
ATOM     10  C   UNL     1      10.544  13.518  19.679  0.00  0.00    +0.000 A 
ATOM     11  C   UNL     1       8.266  15.612  21.027  0.00  0.00    +0.000 C 
ATOM     12  C   UNL     1       7.402  16.891  21.156  0.00  0.00    +0.000 C 
ATOM     13  N   UNL     1       6.538  17.102  19.979  0.00  0.00    +0.000 N 
ATOM     14  C   UNL     1       5.176  17.095  20.012  0.00  0.00    +0.000 A 
ATOM     15  N   UNL     1       4.421  17.207  18.939  0.00  0.00    +0.000 NA
ATOM     16  C   UNL     1       3.062  17.174  19.241  0.00  0.00    +0.000 A 
ATOM     17  C   UNL     1       1.960  17.255  18.356  0.00  0.00    +0.000 A 
ATOM     18 CL   UNL     1       2.387  17.391  16.696  0.00  0.00    +0.000 Cl
ATOM     19  C   UNL     1       0.639  17.229  18.827  0.00  0.00    +0.000 A 
ATOM     20 CL   UNL     1      -0.689  17.337  17.715  0.00  0.00    +0.000 Cl
ATOM     21  C   UNL     1       0.410  17.117  20.200  0.00  0.00    +0.000 A 
ATOM     22 CL   UNL     1      -1.182  17.092  20.880  0.00  0.00    +0.000 Cl
ATOM     23  C   UNL     1       1.475  17.018  21.103  0.00  0.00    +0.000 A 
ATOM     24  C   UNL     1       2.788  17.050  20.600  0.00  0.00    +0.000 A 
ATOM     25  S   UNL     1       4.257  16.944  21.469  0.00  0.00    +0.000 S 
ATOM     26  C   UNL     1       7.238  17.229  18.691  0.00  0.00    +0.000 C 
ATOM     27  H   UNL     1       8.838  16.220  16.536  0.00  0.00    +0.000 HD
ENDROOT
TORSDOF 0
ENDMDL
MODEL 6
REMARK VINA RESULT:      -6.6      5.365      8.732
REMARK  Name = 
REMARK  0 active torsions:
REMARK  status: ('A' for Active; 'I' for Inactive)
REMARK                            x       y       z     vdW  Elec       q    Type
REMARK                         _______ _______ _______ _____ _____    ______ ____
ROOT
ATOM      1 CL   UNL     1      -6.502  11.636  17.500  0.00  0.00    +0.000 Cl
ATOM      2  C   UNL     1      -4.808  11.325  17.505  0.00  0.00    +0.000 A 
ATOM      3  C   UNL     1      -4.225  10.680  16.417  0.00  0.00    +0.000 A 
ATOM      4  C   UNL     1      -2.849  10.427  16.386  0.00  0.00    +0.000 A 
ATOM      5  C   UNL     1      -2.086  10.857  17.480  0.00  0.00    +0.000 A 
ATOM      6  N   UNL     1      -0.724  10.779  17.698  0.00  0.00    +0.000 N 
ATOM      7  C   UNL     1      -0.416  11.390  18.879  0.00  0.00    +0.000 A 
ATOM      8  C   UNL     1      -1.589  11.819  19.467  0.00  0.00    +0.000 A 
ATOM      9  C   UNL     1      -2.652  11.503  18.584  0.00  0.00    +0.000 A 
ATOM     10  C   UNL     1      -4.041  11.738  18.598  0.00  0.00    +0.000 A 
ATOM     11  C   UNL     1      -1.583  12.565  20.758  0.00  0.00    +0.000 C 
ATOM     12  C   UNL     1      -0.206  12.468  21.461  0.00  0.00    +0.000 C 
ATOM     13  N   UNL     1       0.915  12.608  20.513  0.00  0.00    +0.000 N 
ATOM     14  C   UNL     1       1.824  13.621  20.539  0.00  0.00    +0.000 A 
ATOM     15  N   UNL     1       2.773  13.773  19.638  0.00  0.00    +0.000 NA
ATOM     16  C   UNL     1       3.572  14.885  19.891  0.00  0.00    +0.000 A 
ATOM     17  C   UNL     1       4.672  15.368  19.143  0.00  0.00    +0.000 A 
ATOM     18 CL   UNL     1       5.030  14.456  17.731  0.00  0.00    +0.000 Cl
ATOM     19  C   UNL     1       5.394  16.501  19.550  0.00  0.00    +0.000 A 
ATOM     20 CL   UNL     1       6.742  17.063  18.613  0.00  0.00    +0.000 Cl
ATOM     21  C   UNL     1       5.012  17.164  20.719  0.00  0.00    +0.000 A 
ATOM     22 CL   UNL     1       5.849  18.559  21.312  0.00  0.00    +0.000 Cl
ATOM     23  C   UNL     1       3.921  16.723  21.475  0.00  0.00    +0.000 A 
ATOM     24  C   UNL     1       3.219  15.584  21.042  0.00  0.00    +0.000 A 
ATOM     25  S   UNL     1       1.859  14.841  21.765  0.00  0.00    +0.000 S 
ATOM     26  C   UNL     1       0.957  11.616  19.427  0.00  0.00    +0.000 C 
ATOM     27  H   UNL     1      -0.061  10.379  17.048  0.00  0.00    +0.000 HD
ENDROOT
TORSDOF 0
ENDMDL
MODEL 7
REMARK VINA RESULT:      -6.5      5.366      8.943
REMARK  Name = 
REMARK  0 active torsions:
REMARK  status: ('A' for Active; 'I' for Inactive)
REMARK                            x       y       z     vdW  Elec       q    Type
REMARK                         _______ _______ _______ _____ _____    ______ ____
ROOT
ATOM      1 CL   UNL     1       3.471   4.761  20.090  0.00  0.00    +0.000 Cl
ATOM      2  C   UNL     1       2.774   6.166  19.377  0.00  0.00    +0.000 A 
ATOM      3  C   UNL     1       2.683   6.258  17.990  0.00  0.00    +0.000 A 
ATOM      4  C   UNL     1       2.108   7.381  17.384  0.00  0.00    +0.000 A 
ATOM      5  C   UNL     1       1.622   8.394  18.221  0.00  0.00    +0.000 A 
ATOM      6  N   UNL     1       0.980   9.576  17.905  0.00  0.00    +0.000 N 
ATOM      7  C   UNL     1       0.628  10.224  19.054  0.00  0.00    +0.000 A 
ATOM      8  C   UNL     1       1.091   9.492  20.127  0.00  0.00    +0.000 A 
ATOM      9  C   UNL     1       1.708   8.323  19.615  0.00  0.00    +0.000 A 
ATOM     10  C   UNL     1       2.300   7.188  20.204  0.00  0.00    +0.000 A 
ATOM     11  C   UNL     1       0.828   9.920  21.532  0.00  0.00    +0.000 C 
ATOM     12  C   UNL     1       0.317  11.381  21.590  0.00  0.00    +0.000 C 
ATOM     13  N   UNL     1      -0.660  11.674  20.525  0.00  0.00    +0.000 N 
ATOM     14  C   UNL     1      -1.961  12.012  20.744  0.00  0.00    +0.000 A 
ATOM     15  N   UNL     1      -2.839  12.194  19.779  0.00  0.00    +0.000 NA
ATOM     16  C   UNL     1      -4.098  12.535  20.266  0.00  0.00    +0.000 A 
ATOM     17  C   UNL     1      -5.284  12.795  19.538  0.00  0.00    +0.000 A 
ATOM     18 CL   UNL     1      -5.123  12.639  17.833  0.00  0.00    +0.000 Cl
ATOM     19  C   UNL     1      -6.477  13.152  20.184  0.00  0.00    +0.000 A 
ATOM     20 CL   UNL     1      -7.912  13.470  19.260  0.00  0.00    +0.000 Cl
ATOM     21  C   UNL     1      -6.491  13.249  21.577  0.00  0.00    +0.000 A 
ATOM     22 CL   UNL     1      -7.908  13.699  22.464  0.00  0.00    +0.000 Cl
ATOM     23  C   UNL     1      -5.342  12.985  22.330  0.00  0.00    +0.000 A 
ATOM     24  C   UNL     1      -4.161  12.632  21.653  0.00  0.00    +0.000 A 
ATOM     25  S   UNL     1      -2.632  12.255  22.319  0.00  0.00    +0.000 S 
ATOM     26  C   UNL     1      -0.176  11.481  19.149  0.00  0.00    +0.000 C 
ATOM     27  H   UNL     1       0.762   9.877  16.964  0.00  0.00    +0.000 HD
ENDROOT
TORSDOF 0
ENDMDL
MODEL 8
REMARK VINA RESULT:      -6.4      4.867      7.114
REMARK  Name = 
REMARK  0 active torsions:
REMARK  status: ('A' for Active; 'I' for Inactive)
REMARK                            x       y       z     vdW  Elec       q    Type
REMARK                         _______ _______ _______ _____ _____    ______ ____
ROOT
ATOM      1 CL   UNL     1      12.209  16.425  20.532  0.00  0.00    +0.000 Cl
ATOM      2  C   UNL     1      10.901  15.863  19.560  0.00  0.00    +0.000 A 
ATOM      3  C   UNL     1      11.155  14.985  18.509  0.00  0.00    +0.000 A 
ATOM      4  C   UNL     1      10.112  14.500  17.713  0.00  0.00    +0.000 A 
ATOM      5  C   UNL     1       8.812  14.922  18.020  0.00  0.00    +0.000 A 
ATOM      6  N   UNL     1       7.606  14.579  17.438  0.00  0.00    +0.000 N 
ATOM      7  C   UNL     1       6.586  15.186  18.112  0.00  0.00    +0.000 A 
ATOM      8  C   UNL     1       7.128  15.977  19.104  0.00  0.00    +0.000 A 
ATOM      9  C   UNL     1       8.535  15.806  19.067  0.00  0.00    +0.000 A 
ATOM     10  C   UNL     1       9.602  16.290  19.850  0.00  0.00    +0.000 A 
ATOM     11  C   UNL     1       6.264  16.744  20.046  0.00  0.00    +0.000 C 
ATOM     12  C   UNL     1       4.798  16.802  19.548  0.00  0.00    +0.000 C 
ATOM     13  N   UNL     1       4.343  15.510  19.001  0.00  0.00    +0.000 N 
ATOM     14  C   UNL     1       3.335  14.762  19.528  0.00  0.00    +0.000 A 
ATOM     15  N   UNL     1       2.994  13.574  19.073  0.00  0.00    +0.000 NA
ATOM     16  C   UNL     1       1.932  13.018  19.783  0.00  0.00    +0.000 A 
ATOM     17  C   UNL     1       1.304  11.764  19.592  0.00  0.00    +0.000 A 
ATOM     18 CL   UNL     1       1.977  10.815  18.326  0.00  0.00    +0.000 Cl
ATOM     19  C   UNL     1       0.221  11.359  20.385  0.00  0.00    +0.000 A 
ATOM     20 CL   UNL     1      -0.530   9.817  20.121  0.00  0.00    +0.000 Cl
ATOM     21  C   UNL     1      -0.244  12.215  21.387  0.00  0.00    +0.000 A 
ATOM     22 CL   UNL     1      -1.584  11.812  22.407  0.00  0.00    +0.000 Cl
ATOM     23  C   UNL     1       0.362  13.455  21.614  0.00  0.00    +0.000 A 
ATOM     24  C   UNL     1       1.445  13.834  20.800  0.00  0.00    +0.000 A 
ATOM     25  S   UNL     1       2.362  15.276  20.863  0.00  0.00    +0.000 S 
ATOM     26  C   UNL     1       5.124  14.990  17.867  0.00  0.00    +0.000 C 
ATOM     27  H   UNL     1       7.504  13.932  16.667  0.00  0.00    +0.000 HD
ENDROOT
TORSDOF 0
ENDMDL
MODEL 9
REMARK VINA RESULT:      -6.3      4.416      8.849
REMARK  Name = 
REMARK  0 active torsions:
REMARK  status: ('A' for Active; 'I' for Inactive)
REMARK                            x       y       z     vdW  Elec       q    Type
REMARK                         _______ _______ _______ _____ _____    ______ ____
ROOT
ATOM      1 CL   UNL     1       3.225   2.750  20.827  0.00  0.00    +0.000 Cl
ATOM      2  C   UNL     1       2.836   4.184  19.953  0.00  0.00    +0.000 A 
ATOM      3  C   UNL     1       2.795   4.149  18.561  0.00  0.00    +0.000 A 
ATOM      4  C   UNL     1       2.467   5.293  17.825  0.00  0.00    +0.000 A 
ATOM      5  C   UNL     1       2.175   6.462  18.540  0.00  0.00    +0.000 A 
ATOM      6  N   UNL     1       1.787   7.708  18.084  0.00  0.00    +0.000 N 
ATOM      7  C   UNL     1       1.545   8.527  19.149  0.00  0.00    +0.000 A 
ATOM      8  C   UNL     1       1.831   7.833  20.307  0.00  0.00    +0.000 A 
ATOM      9  C   UNL     1       2.214   6.520  19.936  0.00  0.00    +0.000 A 
ATOM     10  C   UNL     1       2.557   5.358  20.657  0.00  0.00    +0.000 A 
ATOM     11  C   UNL     1       1.628   8.447  21.651  0.00  0.00    +0.000 C 
ATOM     12  C   UNL     1       1.416   9.978  21.547  0.00  0.00    +0.000 C 
ATOM     13  N   UNL     1       0.540  10.345  20.418  0.00  0.00    +0.000 N 
ATOM     14  C   UNL     1      -0.672  10.951  20.549  0.00  0.00    +0.000 A 
ATOM     15  N   UNL     1      -1.476  11.201  19.536  0.00  0.00    +0.000 NA
ATOM     16  C   UNL     1      -2.653  11.830  19.934  0.00  0.00    +0.000 A 
ATOM     17  C   UNL     1      -3.747  12.239  19.135  0.00  0.00    +0.000 A 
ATOM     18 CL   UNL     1      -3.583  11.880  17.462  0.00  0.00    +0.000 Cl
ATOM     19  C   UNL     1      -4.859  12.888  19.693  0.00  0.00    +0.000 A 
ATOM     20 CL   UNL     1      -6.182  13.382  18.684  0.00  0.00    +0.000 Cl
ATOM     21  C   UNL     1      -4.884  13.129  21.069  0.00  0.00    +0.000 A 
ATOM     22 CL   UNL     1      -6.203  13.936  21.849  0.00  0.00    +0.000 Cl
ATOM     23  C   UNL     1      -3.826  12.724  21.891  0.00  0.00    +0.000 A 
ATOM     24  C   UNL     1      -2.725  12.079  21.301  0.00  0.00    +0.000 A 
ATOM     25  S   UNL     1      -1.316  11.482  22.064  0.00  0.00    +0.000 S 
ATOM     26  C   UNL     1       1.006   9.920  19.088  0.00  0.00    +0.000 C 
ATOM     27  H   UNL     1       1.653   7.947  17.111  0.00  0.00    +0.000 HD
ENDROOT
TORSDOF 0
ENDMDL
