MODEL 1
REMARK VINA RESULT:      -7.8      0.000      0.000
REMARK  Name = 
REMARK  4 active torsions:
REMARK  status: ('A' for Active; 'I' for Inactive)
REMARK    1  A    between atoms: C_3  and  C_4
REMARK    2  A    between atoms: C_13  and  C_14
REMARK    3  A    between atoms: C_14  and  N_15
REMARK    4  A    between atoms: C_21  and  O_22
REMARK                            x       y       z     vdW  Elec       q    Type
REMARK                         _______ _______ _______ _____ _____    ______ ____
ROOT
ATOM      1  O   UNL     1       3.109   6.160  20.302  0.00  0.00    +0.000 OA
ATOM      2  C   UNL     1       2.590   7.018  19.600  0.00  0.00    +0.000 A 
ATOM      3  C   UNL     1       2.833   7.103  18.139  0.00  0.00    +0.000 A 
ATOM      4  C   UNL     1       2.209   8.073  17.462  0.00  0.00    +0.000 A 
ATOM      5  O   UNL     1       1.350   9.012  17.984  0.00  0.00    +0.000 OA
ATOM      6  C   UNL     1       1.099   8.990  19.338  0.00  0.00    +0.000 A 
ATOM      7  C   UNL     1       0.219   9.963  19.860  0.00  0.00    +0.000 A 
ATOM      8  C   UNL     1      -0.077   9.902  21.230  0.00  0.00    +0.000 A 
ATOM      9  C   UNL     1       0.506   8.950  22.065  0.00  0.00    +0.000 A 
ATOM     10  C   UNL     1       1.390   8.012  21.539  0.00  0.00    +0.000 A 
ATOM     11  C   UNL     1       1.679   8.029  20.173  0.00  0.00    +0.000 A 
ENDROOT
BRANCH   3  12
ATOM     12  C   UNL     1       3.728   6.174  17.441  0.00  0.00    +0.000 A 
ATOM     13  C   UNL     1       4.824   6.665  16.720  0.00  0.00    +0.000 A 
ATOM     14  C   UNL     1       5.668   5.789  16.035  0.00  0.00    +0.000 A 
ATOM     15  C   UNL     1       5.422   4.418  16.061  0.00  0.00    +0.000 A 
ATOM     16  C   UNL     1       4.334   3.919  16.778  0.00  0.00    +0.000 A 
ATOM     17  C   UNL     1       3.486   4.794  17.466  0.00  0.00    +0.000 A 
ENDBRANCH   3  12
BRANCH   8  18
ATOM     18  O   UNL     1      -0.956  10.770  21.818  0.00  0.00    +0.000 OA
ATOM     19  H   UNL     1      -1.134  11.487  21.170  0.00  0.00    +0.000 HD
ENDBRANCH   8  18
BRANCH   7  20
ATOM     20  C   UNL     1      -0.459  10.941  18.922  0.00  0.00    +0.000 C 
BRANCH  20  21
ATOM     21  N   UNL     1      -1.862  10.602  18.532  0.00  0.00    +0.000 NA
ATOM     22  C   UNL     1      -2.715  11.809  18.633  0.00  0.00    +0.000 C 
ATOM     23  C   UNL     1      -4.085  11.666  17.968  0.00  0.00    +0.000 C 
ATOM     24  C   UNL     1      -3.945  11.230  16.520  0.00  0.00    +0.000 C 
ATOM     25  C   UNL     1      -3.170   9.924  16.466  0.00  0.00    +0.000 C 
ATOM     26  C   UNL     1      -1.813  10.064  17.154  0.00  0.00    +0.000 C 
ENDBRANCH  20  21
ENDBRANCH   7  20
TORSDOF 4
ENDMDL
MODEL 2
REMARK VINA RESULT:      -7.7      2.496      3.602
REMARK  Name = 
REMARK  4 active torsions:
REMARK  status: ('A' for Active; 'I' for Inactive)
REMARK    1  A    between atoms: C_3  and  C_4
REMARK    2  A    between atoms: C_13  and  C_14
REMARK    3  A    between atoms: C_14  and  N_15
REMARK    4  A    between atoms: C_21  and  O_22
REMARK                            x       y       z     vdW  Elec       q    Type
REMARK                         _______ _______ _______ _____ _____    ______ ____
ROOT
ATOM      1  O   UNL     1       1.850   6.231  20.792  0.00  0.00    +0.000 OA
ATOM      2  C   UNL     1       1.837   7.208  20.053  0.00  0.00    +0.000 A 
ATOM      3  C   UNL     1       2.352   7.159  18.663  0.00  0.00    +0.000 A 
ATOM      4  C   UNL     1       2.281   8.280  17.936  0.00  0.00    +0.000 A 
ATOM      5  O   UNL     1       1.770   9.489  18.347  0.00  0.00    +0.000 OA
ATOM      6  C   UNL     1       1.291   9.596  19.633  0.00  0.00    +0.000 A 
ATOM      7  C   UNL     1       0.774  10.845  20.041  0.00  0.00    +0.000 A 
ATOM      8  C   UNL     1       0.236  10.934  21.334  0.00  0.00    +0.000 A 
ATOM      9  C   UNL     1       0.249   9.849  22.210  0.00  0.00    +0.000 A 
ATOM     10  C   UNL     1       0.783   8.631  21.800  0.00  0.00    +0.000 A 
ATOM     11  C   UNL     1       1.297   8.504  20.508  0.00  0.00    +0.000 A 
ENDROOT
BRANCH   3  12
ATOM     12  C   UNL     1       2.931   5.941  18.087  0.00  0.00    +0.000 A 
ATOM     13  C   UNL     1       2.118   4.827  17.842  0.00  0.00    +0.000 A 
ATOM     14  C   UNL     1       2.666   3.656  17.314  0.00  0.00    +0.000 A 
ATOM     15  C   UNL     1       4.029   3.588  17.030  0.00  0.00    +0.000 A 
ATOM     16  C   UNL     1       4.846   4.693  17.270  0.00  0.00    +0.000 A 
ATOM     17  C   UNL     1       4.301   5.868  17.798  0.00  0.00    +0.000 A 
ENDBRANCH   3  12
BRANCH   8  18
ATOM     18  O   UNL     1      -0.332  12.087  21.801  0.00  0.00    +0.000 OA
ATOM     19  H   UNL     1       0.396  12.652  22.142  0.00  0.00    +0.000 HD
ENDBRANCH   8  18
BRANCH   7  20
ATOM     20  C   UNL     1       0.704  11.988  19.048  0.00  0.00    +0.000 C 
BRANCH  20  21
ATOM     21  N   UNL     1       1.639  13.127  19.302  0.00  0.00    +0.000 NA
ATOM     22  C   UNL     1       2.737  13.103  18.307  0.00  0.00    +0.000 C 
ATOM     23  C   UNL     1       3.575  14.383  18.268  0.00  0.00    +0.000 C 
ATOM     24  C   UNL     1       2.696  15.604  18.065  0.00  0.00    +0.000 C 
ATOM     25  C   UNL     1       1.659  15.661  19.175  0.00  0.00    +0.000 C 
ATOM     26  C   UNL     1       0.841  14.371  19.227  0.00  0.00    +0.000 C 
ENDBRANCH  20  21
ENDBRANCH   7  20
TORSDOF 4
ENDMDL
MODEL 3
REMARK VINA RESULT:      -7.6      2.366      3.302
REMARK  Name = 
REMARK  4 active torsions:
REMARK  status: ('A' for Active; 'I' for Inactive)
REMARK    1  A    between atoms: C_3  and  C_4
REMARK    2  A    between atoms: C_13  and  C_14
REMARK    3  A    between atoms: C_14  and  N_15
REMARK    4  A    between atoms: C_21  and  O_22
REMARK                            x       y       z     vdW  Elec       q    Type
REMARK                         _______ _______ _______ _____ _____    ______ ____
ROOT
ATOM      1  O   UNL     1       1.996   6.320  20.791  0.00  0.00    +0.000 OA
ATOM      2  C   UNL     1       1.867   7.299  20.066  0.00  0.00    +0.000 A 
ATOM      3  C   UNL     1       2.310   7.302  18.651  0.00  0.00    +0.000 A 
ATOM      4  C   UNL     1       2.115   8.420  17.942  0.00  0.00    +0.000 A 
ATOM      5  O   UNL     1       1.534   9.582  18.394  0.00  0.00    +0.000 OA
ATOM      6  C   UNL     1       1.117   9.641  19.706  0.00  0.00    +0.000 A 
ATOM      7  C   UNL     1       0.527  10.842  20.156  0.00  0.00    +0.000 A 
ATOM      8  C   UNL     1       0.053  10.878  21.475  0.00  0.00    +0.000 A 
ATOM      9  C   UNL     1       0.196   9.790  22.336  0.00  0.00    +0.000 A 
ATOM     10  C   UNL     1       0.801   8.620  21.883  0.00  0.00    +0.000 A 
ATOM     11  C   UNL     1       1.254   8.545  20.565  0.00  0.00    +0.000 A 
ENDROOT
BRANCH   3  12
ATOM     12  C   UNL     1       2.951   6.138  18.030  0.00  0.00    +0.000 A 
ATOM     13  C   UNL     1       4.255   6.239  17.530  0.00  0.00    +0.000 A 
ATOM     14  C   UNL     1       4.863   5.141  16.918  0.00  0.00    +0.000 A 
ATOM     15  C   UNL     1       4.173   3.937  16.797  0.00  0.00    +0.000 A 
ATOM     16  C   UNL     1       2.874   3.827  17.293  0.00  0.00    +0.000 A 
ATOM     17  C   UNL     1       2.261   4.924  17.907  0.00  0.00    +0.000 A 
ENDBRANCH   3  12
BRANCH   8  18
ATOM     18  O   UNL     1      -0.577  11.979  21.987  0.00  0.00    +0.000 OA
ATOM     19  H   UNL     1      -0.315  12.747  21.431  0.00  0.00    +0.000 HD
ENDBRANCH   8  18
BRANCH   7  20
ATOM     20  C   UNL     1       0.317  11.985  19.182  0.00  0.00    +0.000 C 
BRANCH  20  21
ATOM     21  N   UNL     1       0.932  13.291  19.571  0.00  0.00    +0.000 NA
ATOM     22  C   UNL     1       2.384  13.267  19.275  0.00  0.00    +0.000 C 
ATOM     23  C   UNL     1       3.058  14.640  19.336  0.00  0.00    +0.000 C 
ATOM     24  C   UNL     1       2.346  15.638  18.441  0.00  0.00    +0.000 C 
ATOM     25  C   UNL     1       0.886  15.725  18.855  0.00  0.00    +0.000 C 
ATOM     26  C   UNL     1       0.223  14.349  18.817  0.00  0.00    +0.000 C 
ENDBRANCH  20  21
ENDBRANCH   7  20
TORSDOF 4
ENDMDL
MODEL 4
REMARK VINA RESULT:      -7.6      1.990      3.034
REMARK  Name = 
REMARK  4 active torsions:
REMARK  status: ('A' for Active; 'I' for Inactive)
REMARK    1  A    between atoms: C_3  and  C_4
REMARK    2  A    between atoms: C_13  and  C_14
REMARK    3  A    between atoms: C_14  and  N_15
REMARK    4  A    between atoms: C_21  and  O_22
REMARK                            x       y       z     vdW  Elec       q    Type
REMARK                         _______ _______ _______ _____ _____    ______ ____
ROOT
ATOM      1  O   UNL     1       2.596   6.055  20.223  0.00  0.00    +0.000 OA
ATOM      2  C   UNL     1       2.359   7.058  19.561  0.00  0.00    +0.000 A 
ATOM      3  C   UNL     1       2.878   7.243  18.184  0.00  0.00    +0.000 A 
ATOM      4  C   UNL     1       2.553   8.373  17.545  0.00  0.00    +0.000 A 
ATOM      5  O   UNL     1       1.774   9.394  18.037  0.00  0.00    +0.000 OA
ATOM      6  C   UNL     1       1.277   9.283  19.317  0.00  0.00    +0.000 A 
ATOM      7  C   UNL     1       0.484  10.342  19.809  0.00  0.00    +0.000 A 
ATOM      8  C   UNL     1      -0.066  10.199  21.092  0.00  0.00    +0.000 A 
ATOM      9  C   UNL     1       0.194   9.079  21.881  0.00  0.00    +0.000 A 
ATOM     10  C   UNL     1       0.998   8.054  21.389  0.00  0.00    +0.000 A 
ATOM     11  C   UNL     1       1.533   8.154  20.104  0.00  0.00    +0.000 A 
ENDROOT
BRANCH   3  12
ATOM     12  C   UNL     1       3.726   6.242  17.528  0.00  0.00    +0.000 A 
ATOM     13  C   UNL     1       3.331   4.898  17.502  0.00  0.00    +0.000 A 
ATOM     14  C   UNL     1       4.143   3.936  16.899  0.00  0.00    +0.000 A 
ATOM     15  C   UNL     1       5.356   4.307  16.321  0.00  0.00    +0.000 A 
ATOM     16  C   UNL     1       5.756   5.643  16.341  0.00  0.00    +0.000 A 
ATOM     17  C   UNL     1       4.945   6.610  16.944  0.00  0.00    +0.000 A 
ENDBRANCH   3  12
BRANCH   8  18
ATOM     18  O   UNL     1      -0.887  11.148  21.635  0.00  0.00    +0.000 OA
ATOM     19  H   UNL     1      -1.612  11.309  20.989  0.00  0.00    +0.000 HD
ENDBRANCH   8  18
BRANCH   7  20
ATOM     20  C   UNL     1       0.156  11.515  18.907  0.00  0.00    +0.000 C 
BRANCH  20  21
ATOM     21  N   UNL     1       0.407  12.870  19.487  0.00  0.00    +0.000 NA
ATOM     22  C   UNL     1       1.864  13.139  19.516  0.00  0.00    +0.000 C 
ATOM     23  C   UNL     1       2.226  14.599  19.792  0.00  0.00    +0.000 C 
ATOM     24  C   UNL     1       1.530  15.529  18.813  0.00  0.00    +0.000 C 
ATOM     25  C   UNL     1       0.028  15.310  18.900  0.00  0.00    +0.000 C 
ATOM     26  C   UNL     1      -0.327  13.845  18.649  0.00  0.00    +0.000 C 
ENDBRANCH  20  21
ENDBRANCH   7  20
TORSDOF 4
ENDMDL
MODEL 5
REMARK VINA RESULT:      -7.6      2.861      7.575
REMARK  Name = 
REMARK  4 active torsions:
REMARK  status: ('A' for Active; 'I' for Inactive)
REMARK    1  A    between atoms: C_3  and  C_4
REMARK    2  A    between atoms: C_13  and  C_14
REMARK    3  A    between atoms: C_14  and  N_15
REMARK    4  A    between atoms: C_21  and  O_22
REMARK                            x       y       z     vdW  Elec       q    Type
REMARK                         _______ _______ _______ _____ _____    ______ ____
ROOT
ATOM      1  O   UNL     1       2.576   9.012  17.079  0.00  0.00    +0.000 OA
ATOM      2  C   UNL     1       2.732   8.137  17.920  0.00  0.00    +0.000 A 
ATOM      3  C   UNL     1       1.992   8.129  19.206  0.00  0.00    +0.000 A 
ATOM      4  C   UNL     1       2.230   7.120  20.052  0.00  0.00    +0.000 A 
ATOM      5  O   UNL     1       3.099   6.073  19.851  0.00  0.00    +0.000 OA
ATOM      6  C   UNL     1       3.824   6.037  18.681  0.00  0.00    +0.000 A 
ATOM      7  C   UNL     1       4.716   4.959  18.492  0.00  0.00    +0.000 A 
ATOM      8  C   UNL     1       5.411   4.897  17.275  0.00  0.00    +0.000 A 
ATOM      9  C   UNL     1       5.271   5.883  16.299  0.00  0.00    +0.000 A 
ATOM     10  C   UNL     1       4.405   6.953  16.511  0.00  0.00    +0.000 A 
ATOM     11  C   UNL     1       3.677   7.024  17.700  0.00  0.00    +0.000 A 
ENDROOT
BRANCH   3  12
ATOM     12  C   UNL     1       1.035   9.181  19.563  0.00  0.00    +0.000 A 
ATOM     13  C   UNL     1       0.885   9.567  20.901  0.00  0.00    +0.000 A 
ATOM     14  C   UNL     1      -0.039  10.553  21.252  0.00  0.00    +0.000 A 
ATOM     15  C   UNL     1      -0.822  11.158  20.270  0.00  0.00    +0.000 A 
ATOM     16  C   UNL     1      -0.678  10.781  18.935  0.00  0.00    +0.000 A 
ATOM     17  C   UNL     1       0.247   9.794  18.579  0.00  0.00    +0.000 A 
ENDBRANCH   3  12
BRANCH   8  18
ATOM     18  O   UNL     1       6.258   3.865  16.979  0.00  0.00    +0.000 OA
ATOM     19  H   UNL     1       7.001   3.906  17.621  0.00  0.00    +0.000 HD
ENDBRANCH   8  18
BRANCH   7  20
ATOM     20  C   UNL     1       4.796   3.861  19.534  0.00  0.00    +0.000 C 
BRANCH  20  21
ATOM     21  N   UNL     1       3.647   2.906  19.561  0.00  0.00    +0.000 NA
ATOM     22  C   UNL     1       2.809   3.167  20.756  0.00  0.00    +0.000 C 
ATOM     23  C   UNL     1       1.447   2.472  20.730  0.00  0.00    +0.000 C 
ATOM     24  C   UNL     1       0.686   2.809  19.460  0.00  0.00    +0.000 C 
ATOM     25  C   UNL     1       1.527   2.414  18.256  0.00  0.00    +0.000 C 
ATOM     26  C   UNL     1       2.896   3.091  18.299  0.00  0.00    +0.000 C 
ENDBRANCH  20  21
ENDBRANCH   7  20
TORSDOF 4
ENDMDL
MODEL 6
REMARK VINA RESULT:      -7.5      0.939      1.099
REMARK  Name = 
REMARK  4 active torsions:
REMARK  status: ('A' for Active; 'I' for Inactive)
REMARK    1  A    between atoms: C_3  and  C_4
REMARK    2  A    between atoms: C_13  and  C_14
REMARK    3  A    between atoms: C_14  and  N_15
REMARK    4  A    between atoms: C_21  and  O_22
REMARK                            x       y       z     vdW  Elec       q    Type
REMARK                         _______ _______ _______ _____ _____    ______ ____
ROOT
ATOM      1  O   UNL     1       2.436   7.046  20.841  0.00  0.00    +0.000 OA
ATOM      2  C   UNL     1       1.900   7.821  20.059  0.00  0.00    +0.000 A 
ATOM      3  C   UNL     1       2.107   7.741  18.593  0.00  0.00    +0.000 A 
ATOM      4  C   UNL     1       1.465   8.630  17.826  0.00  0.00    +0.000 A 
ATOM      5  O   UNL     1       0.619   9.623  18.261  0.00  0.00    +0.000 OA
ATOM      6  C   UNL     1       0.401   9.753  19.615  0.00  0.00    +0.000 A 
ATOM      7  C   UNL     1      -0.467  10.780  20.045  0.00  0.00    +0.000 A 
ATOM      8  C   UNL     1      -0.730  10.874  21.420  0.00  0.00    +0.000 A 
ATOM      9  C   UNL     1      -0.125  10.021  22.343  0.00  0.00    +0.000 A 
ATOM     10  C   UNL     1       0.747   9.028  21.903  0.00  0.00    +0.000 A 
ATOM     11  C   UNL     1       1.002   8.891  20.538  0.00  0.00    +0.000 A 
ENDROOT
BRANCH   3  12
ATOM     12  C   UNL     1       2.986   6.738  17.982  0.00  0.00    +0.000 A 
ATOM     13  C   UNL     1       4.179   7.134  17.364  0.00  0.00    +0.000 A 
ATOM     14  C   UNL     1       5.010   6.188  16.761  0.00  0.00    +0.000 A 
ATOM     15  C   UNL     1       4.654   4.841  16.768  0.00  0.00    +0.000 A 
ATOM     16  C   UNL     1       3.469   4.437  17.382  0.00  0.00    +0.000 A 
ATOM     17  C   UNL     1       2.634   5.381  17.987  0.00  0.00    +0.000 A 
ENDBRANCH   3  12
BRANCH   8  18
ATOM     18  O   UNL     1      -1.595  11.804  21.928  0.00  0.00    +0.000 OA
ATOM     19  H   UNL     1      -2.296  11.948  21.254  0.00  0.00    +0.000 HD
ENDBRANCH   8  18
BRANCH   7  20
ATOM     20  C   UNL     1      -1.169  11.649  19.020  0.00  0.00    +0.000 C 
BRANCH  20  21
ATOM     21  N   UNL     1      -2.446  11.100  18.470  0.00  0.00    +0.000 NA
ATOM     22  C   UNL     1      -3.591  11.884  18.990  0.00  0.00    +0.000 C 
ATOM     23  C   UNL     1      -4.912  11.622  18.263  0.00  0.00    +0.000 C 
ATOM     24  C   UNL     1      -4.760  11.827  16.766  0.00  0.00    +0.000 C 
ATOM     25  C   UNL     1      -3.658  10.917  16.247  0.00  0.00    +0.000 C 
ATOM     26  C   UNL     1      -2.348  11.164  16.994  0.00  0.00    +0.000 C 
ENDBRANCH  20  21
ENDBRANCH   7  20
TORSDOF 4
ENDMDL
MODEL 7
REMARK VINA RESULT:      -7.4      1.893      2.751
REMARK  Name = 
REMARK  4 active torsions:
REMARK  status: ('A' for Active; 'I' for Inactive)
REMARK    1  A    between atoms: C_3  and  C_4
REMARK    2  A    between atoms: C_13  and  C_14
REMARK    3  A    between atoms: C_14  and  N_15
REMARK    4  A    between atoms: C_21  and  O_22
REMARK                            x       y       z     vdW  Elec       q    Type
REMARK                         _______ _______ _______ _____ _____    ______ ____
ROOT
ATOM      1  O   UNL     1       2.899   5.731  20.172  0.00  0.00    +0.000 OA
ATOM      2  C   UNL     1       2.667   6.729  19.501  0.00  0.00    +0.000 A 
ATOM      3  C   UNL     1       3.276   6.947  18.166  0.00  0.00    +0.000 A 
ATOM      4  C   UNL     1       2.949   8.067  17.512  0.00  0.00    +0.000 A 
ATOM      5  O   UNL     1       2.092   9.050  17.951  0.00  0.00    +0.000 OA
ATOM      6  C   UNL     1       1.509   8.905  19.191  0.00  0.00    +0.000 A 
ATOM      7  C   UNL     1       0.636   9.924  19.629  0.00  0.00    +0.000 A 
ATOM      8  C   UNL     1       0.001   9.747  20.868  0.00  0.00    +0.000 A 
ATOM      9  C   UNL     1       0.252   8.632  21.667  0.00  0.00    +0.000 A 
ATOM     10  C   UNL     1       1.134   7.647  21.230  0.00  0.00    +0.000 A 
ATOM     11  C   UNL     1       1.756   7.782  19.988  0.00  0.00    +0.000 A 
ENDROOT
BRANCH   3  12
ATOM     12  C   UNL     1       4.213   5.990  17.568  0.00  0.00    +0.000 A 
ATOM     13  C   UNL     1       5.528   6.380  17.285  0.00  0.00    +0.000 A 
ATOM     14  C   UNL     1       6.419   5.482  16.695  0.00  0.00    +0.000 A 
ATOM     15  C   UNL     1       6.003   4.189  16.382  0.00  0.00    +0.000 A 
ATOM     16  C   UNL     1       4.696   3.791  16.662  0.00  0.00    +0.000 A 
ATOM     17  C   UNL     1       3.801   4.688  17.253  0.00  0.00    +0.000 A 
ENDBRANCH   3  12
BRANCH   8  18
ATOM     18  O   UNL     1      -0.899  10.654  21.355  0.00  0.00    +0.000 OA
ATOM     19  H   UNL     1      -0.401  11.279  21.928  0.00  0.00    +0.000 HD
ENDBRANCH   8  18
BRANCH   7  20
ATOM     20  C   UNL     1       0.323  11.090  18.712  0.00  0.00    +0.000 C 
BRANCH  20  21
ATOM     21  N   UNL     1       0.395  12.446  19.338  0.00  0.00    +0.000 NA
ATOM     22  C   UNL     1       1.813  12.835  19.525  0.00  0.00    +0.000 C 
ATOM     23  C   UNL     1       2.018  14.313  19.862  0.00  0.00    +0.000 C 
ATOM     24  C   UNL     1       1.350  15.206  18.831  0.00  0.00    +0.000 C 
ATOM     25  C   UNL     1      -0.128  14.860  18.756  0.00  0.00    +0.000 C 
ATOM     26  C   UNL     1      -0.329  13.378  18.444  0.00  0.00    +0.000 C 
ENDBRANCH  20  21
ENDBRANCH   7  20
TORSDOF 4
ENDMDL
MODEL 8
REMARK VINA RESULT:      -7.3      2.682      7.563
REMARK  Name = 
REMARK  4 active torsions:
REMARK  status: ('A' for Active; 'I' for Inactive)
REMARK    1  A    between atoms: C_3  and  C_4
REMARK    2  A    between atoms: C_13  and  C_14
REMARK    3  A    between atoms: C_14  and  N_15
REMARK    4  A    between atoms: C_21  and  O_22
REMARK                            x       y       z     vdW  Elec       q    Type
REMARK                         _______ _______ _______ _____ _____    ______ ____
ROOT
ATOM      1  O   UNL     1       0.767   9.022  20.973  0.00  0.00    +0.000 OA
ATOM      2  C   UNL     1       1.300   8.564  19.970  0.00  0.00    +0.000 A 
ATOM      3  C   UNL     1       1.520   9.375  18.748  0.00  0.00    +0.000 A 
ATOM      4  C   UNL     1       2.121   8.781  17.710  0.00  0.00    +0.000 A 
ATOM      5  O   UNL     1       2.565   7.480  17.658  0.00  0.00    +0.000 OA
ATOM      6  C   UNL     1       2.373   6.677  18.761  0.00  0.00    +0.000 A 
ATOM      7  C   UNL     1       2.831   5.343  18.690  0.00  0.00    +0.000 A 
ATOM      8  C   UNL     1       2.683   4.545  19.834  0.00  0.00    +0.000 A 
ATOM      9  C   UNL     1       2.067   5.025  20.989  0.00  0.00    +0.000 A 
ATOM     10  C   UNL     1       1.601   6.337  21.034  0.00  0.00    +0.000 A 
ATOM     11  C   UNL     1       1.762   7.163  19.921  0.00  0.00    +0.000 A 
ENDROOT
BRANCH   3  12
ATOM     12  C   UNL     1       1.097  10.776  18.653  0.00  0.00    +0.000 A 
ATOM     13  C   UNL     1       2.055  11.794  18.573  0.00  0.00    +0.000 A 
ATOM     14  C   UNL     1       1.660  13.132  18.505  0.00  0.00    +0.000 A 
ATOM     15  C   UNL     1       0.306  13.462  18.517  0.00  0.00    +0.000 A 
ATOM     16  C   UNL     1      -0.655  12.454  18.594  0.00  0.00    +0.000 A 
ATOM     17  C   UNL     1      -0.264  11.113  18.663  0.00  0.00    +0.000 A 
ENDBRANCH   3  12
BRANCH   8  18
ATOM     18  O   UNL     1       3.139   3.256  19.879  0.00  0.00    +0.000 OA
ATOM     19  H   UNL     1       3.471   3.034  18.981  0.00  0.00    +0.000 HD
ENDBRANCH   8  18
BRANCH   7  20
ATOM     20  C   UNL     1       3.562   4.865  17.451  0.00  0.00    +0.000 C 
BRANCH  20  21
ATOM     21  N   UNL     1       4.961   5.366  17.289  0.00  0.00    +0.000 NA
ATOM     22  C   UNL     1       5.645   5.371  18.604  0.00  0.00    +0.000 C 
ATOM     23  C   UNL     1       7.161   5.562  18.521  0.00  0.00    +0.000 C 
ATOM     24  C   UNL     1       7.791   4.537  17.594  0.00  0.00    +0.000 C 
ATOM     25  C   UNL     1       7.148   4.646  16.221  0.00  0.00    +0.000 C 
ATOM     26  C   UNL     1       5.631   4.480  16.312  0.00  0.00    +0.000 C 
ENDBRANCH  20  21
ENDBRANCH   7  20
TORSDOF 4
ENDMDL
MODEL 9
REMARK VINA RESULT:      -7.3      0.662      1.525
REMARK  Name = 
REMARK  4 active torsions:
REMARK  status: ('A' for Active; 'I' for Inactive)
REMARK    1  A    between atoms: C_3  and  C_4
REMARK    2  A    between atoms: C_13  and  C_14
REMARK    3  A    between atoms: C_14  and  N_15
REMARK    4  A    between atoms: C_21  and  O_22
REMARK                            x       y       z     vdW  Elec       q    Type
REMARK                         _______ _______ _______ _____ _____    ______ ____
ROOT
ATOM      1  O   UNL     1       2.419   6.144  20.298  0.00  0.00    +0.000 OA
ATOM      2  C   UNL     1       2.206   7.159  19.647  0.00  0.00    +0.000 A 
ATOM      3  C   UNL     1       2.766   7.364  18.289  0.00  0.00    +0.000 A 
ATOM      4  C   UNL     1       2.464   8.506  17.659  0.00  0.00    +0.000 A 
ATOM      5  O   UNL     1       1.675   9.522  18.145  0.00  0.00    +0.000 OA
ATOM      6  C   UNL     1       1.140   9.392  19.408  0.00  0.00    +0.000 A 
ATOM      7  C   UNL     1       0.336  10.446  19.894  0.00  0.00    +0.000 A 
ATOM      8  C   UNL     1      -0.251  10.284  21.157  0.00  0.00    +0.000 A 
ATOM      9  C   UNL     1      -0.019   9.150  21.935  0.00  0.00    +0.000 A 
ATOM     10  C   UNL     1       0.795   8.130  21.450  0.00  0.00    +0.000 A 
ATOM     11  C   UNL     1       1.368   8.250  20.183  0.00  0.00    +0.000 A 
ENDROOT
BRANCH   3  12
ATOM     12  C   UNL     1       3.629   6.371  17.641  0.00  0.00    +0.000 A 
ATOM     13  C   UNL     1       3.250   5.023  17.616  0.00  0.00    +0.000 A 
ATOM     14  C   UNL     1       4.076   4.068  17.021  0.00  0.00    +0.000 A 
ATOM     15  C   UNL     1       5.288   4.451  16.450  0.00  0.00    +0.000 A 
ATOM     16  C   UNL     1       5.674   5.791  16.469  0.00  0.00    +0.000 A 
ATOM     17  C   UNL     1       4.848   6.751  17.064  0.00  0.00    +0.000 A 
ENDBRANCH   3  12
BRANCH   8  18
ATOM     18  O   UNL     1      -1.085  11.228  21.692  0.00  0.00    +0.000 OA
ATOM     19  H   UNL     1      -1.558  10.805  22.444  0.00  0.00    +0.000 HD
ENDBRANCH   8  18
BRANCH   7  20
ATOM     20  C   UNL     1       0.039  11.636  19.003  0.00  0.00    +0.000 C 
BRANCH  20  21
ATOM     21  N   UNL     1      -1.149  11.495  18.107  0.00  0.00    +0.000 NA
ATOM     22  C   UNL     1      -1.302  10.079  17.698  0.00  0.00    +0.000 C 
ATOM     23  C   UNL     1      -2.647   9.757  17.043  0.00  0.00    +0.000 C 
ATOM     24  C   UNL     1      -3.802  10.185  17.931  0.00  0.00    +0.000 C 
ATOM     25  C   UNL     1      -3.678  11.671  18.229  0.00  0.00    +0.000 C 
ATOM     26  C   UNL     1      -2.323  11.991  18.859  0.00  0.00    +0.000 C 
ENDBRANCH  20  21
ENDBRANCH   7  20
TORSDOF 4
ENDMDL
