MODEL 1
REMARK VINA RESULT:      -7.5      0.000      0.000
REMARK  Name = 
REMARK  7 active torsions:
REMARK  status: ('A' for Active; 'I' for Inactive)
REMARK    1  A    between atoms: C_1  and  N_2
REMARK    2  A    between atoms: N_2  and  C_3
REMARK    3  A    between atoms: C_3  and  C_4
REMARK    4  A    between atoms: C_4  and  C_5
REMARK    5  A    between atoms: C_5  and  O_6
REMARK    6  A    between atoms: C_5  and  C_17
REMARK    7  A    between atoms: O_6  and  C_7
REMARK                            x       y       z     vdW  Elec       q    Type
REMARK                         _______ _______ _______ _____ _____    ______ ____
ROOT
ATOM      1  C   UNL     1       5.519   4.947  16.365  0.00  0.00    +0.000 C 
ENDROOT
BRANCH   1   2
ATOM      2  C   UNL     1       6.448   5.425  17.463  0.00  0.00    +0.000 A 
ATOM      3  N   UNL     1       6.901   4.688  18.460  0.00  0.00    +0.000 NA
ATOM      4  C   UNL     1       7.814   5.412  19.203  0.00  0.00    +0.000 A 
ATOM      5  C   UNL     1       8.064   6.691  18.759  0.00  0.00    +0.000 A 
ATOM      6  S   UNL     1       7.101   7.022  17.384  0.00  0.00    +0.000 S 
ENDBRANCH   1   2
BRANCH   1   7
ATOM      7  C   UNL     1       6.278   3.985  15.438  0.00  0.00    +0.000 C 
BRANCH   7   8
ATOM      8  C   UNL     1       6.060   4.273  13.952  0.00  0.00    +0.000 C 
BRANCH   8  10
ATOM      9  C   UNL     1       5.342   3.129  11.914  0.00  0.00    +0.000 C 
ATOM     10  N   UNL     1       6.256   3.134  13.048  0.00  0.00    +0.000 NA
ATOM     11  H   UNL     1       7.215   3.173  12.697  0.00  0.00    +0.000 HD
ENDBRANCH   8  10
ENDBRANCH   7   8
ENDBRANCH   1   7
BRANCH   1  12
ATOM     12  O   UNL     1       4.384   4.285  16.966  0.00  0.00    +0.000 OA
BRANCH  12  13
ATOM     13  C   UNL     1       3.594   5.019  17.827  0.00  0.00    +0.000 A 
ATOM     14  C   UNL     1       3.475   6.412  17.745  0.00  0.00    +0.000 A 
ATOM     15  C   UNL     1       2.735   7.123  18.683  0.00  0.00    +0.000 A 
ATOM     16  C   UNL     1       2.051   6.445  19.683  0.00  0.00    +0.000 A 
ATOM     17  C   UNL     1       2.055   5.046  19.723  0.00  0.00    +0.000 A 
ATOM     18  C   UNL     1       1.272   4.385  20.683  0.00  0.00    +0.000 A 
ATOM     19  C   UNL     1       1.214   2.993  20.717  0.00  0.00    +0.000 A 
ATOM     20  C   UNL     1       1.965   2.250  19.816  0.00  0.00    +0.000 A 
ATOM     21  C   UNL     1       2.774   2.899  18.875  0.00  0.00    +0.000 A 
ATOM     22  C   UNL     1       2.829   4.309  18.790  0.00  0.00    +0.000 A 
ENDBRANCH  12  13
ENDBRANCH   1  12
TORSDOF 6
ENDMDL
MODEL 2
REMARK VINA RESULT:      -7.4      0.915      1.046
REMARK  Name = 
REMARK  7 active torsions:
REMARK  status: ('A' for Active; 'I' for Inactive)
REMARK    1  A    between atoms: C_1  and  N_2
REMARK    2  A    between atoms: N_2  and  C_3
REMARK    3  A    between atoms: C_3  and  C_4
REMARK    4  A    between atoms: C_4  and  C_5
REMARK    5  A    between atoms: C_5  and  O_6
REMARK    6  A    between atoms: C_5  and  C_17
REMARK    7  A    between atoms: O_6  and  C_7
REMARK                            x       y       z     vdW  Elec       q    Type
REMARK                         _______ _______ _______ _____ _____    ______ ____
ROOT
ATOM      1  C   UNL     1       5.506   5.045  16.386  0.00  0.00    +0.000 C 
ENDROOT
BRANCH   1   2
ATOM      2  C   UNL     1       6.536   5.950  17.028  0.00  0.00    +0.000 A 
ATOM      3  N   UNL     1       6.780   7.202  16.685  0.00  0.00    +0.000 NA
ATOM      4  C   UNL     1       7.697   7.759  17.555  0.00  0.00    +0.000 A 
ATOM      5  C   UNL     1       8.136   6.934  18.568  0.00  0.00    +0.000 A 
ATOM      6  S   UNL     1       7.407   5.393  18.413  0.00  0.00    +0.000 S 
ENDBRANCH   1   2
BRANCH   1   7
ATOM      7  C   UNL     1       6.213   4.048  15.454  0.00  0.00    +0.000 C 
BRANCH   7   8
ATOM      8  C   UNL     1       6.016   4.356  13.969  0.00  0.00    +0.000 C 
BRANCH   8  10
ATOM      9  C   UNL     1       5.340   3.113  11.977  0.00  0.00    +0.000 C 
ATOM     10  N   UNL     1       6.318   3.257  13.046  0.00  0.00    +0.000 NA
ATOM     11  H   UNL     1       7.234   3.438  12.631  0.00  0.00    +0.000 HD
ENDBRANCH   8  10
ENDBRANCH   7   8
ENDBRANCH   1   7
BRANCH   1  12
ATOM     12  O   UNL     1       4.783   4.346  17.424  0.00  0.00    +0.000 OA
BRANCH  12  13
ATOM     13  C   UNL     1       3.810   5.043  18.109  0.00  0.00    +0.000 A 
ATOM     14  C   UNL     1       3.614   6.421  17.954  0.00  0.00    +0.000 A 
ATOM     15  C   UNL     1       2.678   7.101  18.725  0.00  0.00    +0.000 A 
ATOM     16  C   UNL     1       1.879   6.403  19.621  0.00  0.00    +0.000 A 
ATOM     17  C   UNL     1       1.970   5.009  19.715  0.00  0.00    +0.000 A 
ATOM     18  C   UNL     1       1.080   4.320  20.554  0.00  0.00    +0.000 A 
ATOM     19  C   UNL     1       1.111   2.928  20.632  0.00  0.00    +0.000 A 
ATOM     20  C   UNL     1       2.053   2.217  19.900  0.00  0.00    +0.000 A 
ATOM     21  C   UNL     1       2.967   2.898  19.086  0.00  0.00    +0.000 A 
ATOM     22  C   UNL     1       2.941   4.305  18.956  0.00  0.00    +0.000 A 
ENDBRANCH  12  13
ENDBRANCH   1  12
TORSDOF 6
ENDMDL
MODEL 3
REMARK VINA RESULT:      -7.4      1.774      4.302
REMARK  Name = 
REMARK  7 active torsions:
REMARK  status: ('A' for Active; 'I' for Inactive)
REMARK    1  A    between atoms: C_1  and  N_2
REMARK    2  A    between atoms: N_2  and  C_3
REMARK    3  A    between atoms: C_3  and  C_4
REMARK    4  A    between atoms: C_4  and  C_5
REMARK    5  A    between atoms: C_5  and  O_6
REMARK    6  A    between atoms: C_5  and  C_17
REMARK    7  A    between atoms: O_6  and  C_7
REMARK                            x       y       z     vdW  Elec       q    Type
REMARK                         _______ _______ _______ _____ _____    ______ ____
ROOT
ATOM      1  C   UNL     1       6.078   5.075  16.416  0.00  0.00    +0.000 C 
ENDROOT
BRANCH   1   2
ATOM      2  C   UNL     1       6.528   4.927  14.977  0.00  0.00    +0.000 A 
ATOM      3  N   UNL     1       7.607   5.475  14.449  0.00  0.00    +0.000 NA
ATOM      4  C   UNL     1       7.771   5.034  13.150  0.00  0.00    +0.000 A 
ATOM      5  C   UNL     1       6.825   4.139  12.699  0.00  0.00    +0.000 A 
ATOM      6  S   UNL     1       5.665   3.861  13.926  0.00  0.00    +0.000 S 
ENDBRANCH   1   2
BRANCH   1   7
ATOM      7  C   UNL     1       6.709   6.339  17.019  0.00  0.00    +0.000 C 
BRANCH   7   8
ATOM      8  C   UNL     1       7.590   6.059  18.238  0.00  0.00    +0.000 C 
BRANCH   8  10
ATOM      9  C   UNL     1       8.148   8.426  17.989  0.00  0.00    +0.000 C 
ATOM     10  N   UNL     1       8.309   7.215  18.783  0.00  0.00    +0.000 NA
ATOM     11  H   UNL     1       7.954   7.390  19.725  0.00  0.00    +0.000 HD
ENDBRANCH   8  10
ENDBRANCH   7   8
ENDBRANCH   1   7
BRANCH   1  12
ATOM     12  O   UNL     1       4.636   5.161  16.450  0.00  0.00    +0.000 OA
BRANCH  12  13
ATOM     13  C   UNL     1       3.965   4.341  17.333  0.00  0.00    +0.000 A 
ATOM     14  C   UNL     1       4.061   2.945  17.294  0.00  0.00    +0.000 A 
ATOM     15  C   UNL     1       3.303   2.152  18.148  0.00  0.00    +0.000 A 
ATOM     16  C   UNL     1       2.483   2.745  19.099  0.00  0.00    +0.000 A 
ATOM     17  C   UNL     1       2.453   4.137  19.241  0.00  0.00    +0.000 A 
ATOM     18  C   UNL     1       1.695   4.704  20.278  0.00  0.00    +0.000 A 
ATOM     19  C   UNL     1       1.684   6.084  20.478  0.00  0.00    +0.000 A 
ATOM     20  C   UNL     1       2.403   6.909  19.624  0.00  0.00    +0.000 A 
ATOM     21  C   UNL     1       3.138   6.356  18.568  0.00  0.00    +0.000 A 
ATOM     22  C   UNL     1       3.199   4.960  18.357  0.00  0.00    +0.000 A 
ENDBRANCH  12  13
ENDBRANCH   1  12
TORSDOF 6
ENDMDL
MODEL 4
REMARK VINA RESULT:      -7.3      0.862      1.015
REMARK  Name = 
REMARK  7 active torsions:
REMARK  status: ('A' for Active; 'I' for Inactive)
REMARK    1  A    between atoms: C_1  and  N_2
REMARK    2  A    between atoms: N_2  and  C_3
REMARK    3  A    between atoms: C_3  and  C_4
REMARK    4  A    between atoms: C_4  and  C_5
REMARK    5  A    between atoms: C_5  and  O_6
REMARK    6  A    between atoms: C_5  and  C_17
REMARK    7  A    between atoms: O_6  and  C_7
REMARK                            x       y       z     vdW  Elec       q    Type
REMARK                         _______ _______ _______ _____ _____    ______ ____
ROOT
ATOM      1  C   UNL     1       4.937   6.240  16.601  0.00  0.00    +0.000 C 
ENDROOT
BRANCH   1   2
ATOM      2  C   UNL     1       6.087   6.281  17.586  0.00  0.00    +0.000 A 
ATOM      3  N   UNL     1       6.341   5.371  18.509  0.00  0.00    +0.000 NA
ATOM      4  C   UNL     1       7.529   5.669  19.148  0.00  0.00    +0.000 A 
ATOM      5  C   UNL     1       8.184   6.794  18.698  0.00  0.00    +0.000 A 
ATOM      6  S   UNL     1       7.270   7.534  17.455  0.00  0.00    +0.000 S 
ENDBRANCH   1   2
BRANCH   1   7
ATOM      7  C   UNL     1       5.469   5.854  15.212  0.00  0.00    +0.000 C 
BRANCH   7   8
ATOM      8  C   UNL     1       6.531   4.754  15.249  0.00  0.00    +0.000 C 
BRANCH   8  10
ATOM      9  C   UNL     1       6.242   3.710  13.058  0.00  0.00    +0.000 C 
ATOM     10  N   UNL     1       6.209   3.533  14.503  0.00  0.00    +0.000 NA
ATOM     11  H   UNL     1       6.891   2.818  14.762  0.00  0.00    +0.000 HD
ENDBRANCH   8  10
ENDBRANCH   7   8
ENDBRANCH   1   7
BRANCH   1  12
ATOM     12  O   UNL     1       3.962   5.276  17.057  0.00  0.00    +0.000 OA
BRANCH  12  13
ATOM     13  C   UNL     1       3.188   5.615  18.148  0.00  0.00    +0.000 A 
ATOM     14  C   UNL     1       2.922   6.942  18.506  0.00  0.00    +0.000 A 
ATOM     15  C   UNL     1       2.207   7.241  19.661  0.00  0.00    +0.000 A 
ATOM     16  C   UNL     1       1.692   6.215  20.443  0.00  0.00    +0.000 A 
ATOM     17  C   UNL     1       1.842   4.880  20.049  0.00  0.00    +0.000 A 
ATOM     18  C   UNL     1       1.224   3.871  20.804  0.00  0.00    +0.000 A 
ATOM     19  C   UNL     1       1.311   2.536  20.410  0.00  0.00    +0.000 A 
ATOM     20  C   UNL     1       2.043   2.196  19.281  0.00  0.00    +0.000 A 
ATOM     21  C   UNL     1       2.690   3.193  18.539  0.00  0.00    +0.000 A 
ATOM     22  C   UNL     1       2.594   4.559  18.889  0.00  0.00    +0.000 A 
ENDBRANCH  12  13
ENDBRANCH   1  12
TORSDOF 6
ENDMDL
MODEL 5
REMARK VINA RESULT:      -7.3      1.257      1.362
REMARK  Name = 
REMARK  7 active torsions:
REMARK  status: ('A' for Active; 'I' for Inactive)
REMARK    1  A    between atoms: C_1  and  N_2
REMARK    2  A    between atoms: N_2  and  C_3
REMARK    3  A    between atoms: C_3  and  C_4
REMARK    4  A    between atoms: C_4  and  C_5
REMARK    5  A    between atoms: C_5  and  O_6
REMARK    6  A    between atoms: C_5  and  C_17
REMARK    7  A    between atoms: O_6  and  C_7
REMARK                            x       y       z     vdW  Elec       q    Type
REMARK                         _______ _______ _______ _____ _____    ______ ____
ROOT
ATOM      1  C   UNL     1       5.802   5.703  15.767  0.00  0.00    +0.000 C 
ENDROOT
BRANCH   1   2
ATOM      2  C   UNL     1       6.757   6.062  16.887  0.00  0.00    +0.000 A 
ATOM      3  N   UNL     1       7.213   7.274  17.148  0.00  0.00    +0.000 NA
ATOM      4  C   UNL     1       7.967   7.253  18.306  0.00  0.00    +0.000 A 
ATOM      5  C   UNL     1       8.067   6.029  18.931  0.00  0.00    +0.000 A 
ATOM      6  S   UNL     1       7.222   4.849  18.025  0.00  0.00    +0.000 S 
ENDBRANCH   1   2
BRANCH   1   7
ATOM      7  C   UNL     1       6.585   5.037  14.624  0.00  0.00    +0.000 C 
BRANCH   7   8
ATOM      8  C   UNL     1       6.002   3.692  14.189  0.00  0.00    +0.000 C 
BRANCH   8  10
ATOM      9  C   UNL     1       7.140   4.235  12.094  0.00  0.00    +0.000 C 
ATOM     10  N   UNL     1       6.304   3.283  12.813  0.00  0.00    +0.000 NA
ATOM     11  H   UNL     1       6.789   2.384  12.851  0.00  0.00    +0.000 HD
ENDBRANCH   8  10
ENDBRANCH   7   8
ENDBRANCH   1   7
BRANCH   1  12
ATOM     12  O   UNL     1       4.792   4.807  16.281  0.00  0.00    +0.000 OA
BRANCH  12  13
ATOM     13  C   UNL     1       3.902   5.308  17.208  0.00  0.00    +0.000 A 
ATOM     14  C   UNL     1       3.773   6.677  17.472  0.00  0.00    +0.000 A 
ATOM     15  C   UNL     1       2.924   7.135  18.474  0.00  0.00    +0.000 A 
ATOM     16  C   UNL     1       2.144   6.234  19.186  0.00  0.00    +0.000 A 
ATOM     17  C   UNL     1       2.163   4.872  18.867  0.00  0.00    +0.000 A 
ATOM     18  C   UNL     1       1.288   3.999  19.534  0.00  0.00    +0.000 A 
ATOM     19  C   UNL     1       1.247   2.645  19.204  0.00  0.00    +0.000 A 
ATOM     20  C   UNL     1       2.102   2.146  18.231  0.00  0.00    +0.000 A 
ATOM     21  C   UNL     1       3.002   3.002  17.583  0.00  0.00    +0.000 A 
ATOM     22  C   UNL     1       3.046   4.386  17.867  0.00  0.00    +0.000 A 
ENDBRANCH  12  13
ENDBRANCH   1  12
TORSDOF 6
ENDMDL
MODEL 6
REMARK VINA RESULT:      -7.1      2.505      5.739
REMARK  Name = 
REMARK  7 active torsions:
REMARK  status: ('A' for Active; 'I' for Inactive)
REMARK    1  A    between atoms: C_1  and  N_2
REMARK    2  A    between atoms: N_2  and  C_3
REMARK    3  A    between atoms: C_3  and  C_4
REMARK    4  A    between atoms: C_4  and  C_5
REMARK    5  A    between atoms: C_5  and  O_6
REMARK    6  A    between atoms: C_5  and  C_17
REMARK    7  A    between atoms: O_6  and  C_7
REMARK                            x       y       z     vdW  Elec       q    Type
REMARK                         _______ _______ _______ _____ _____    ______ ____
ROOT
ATOM      1  C   UNL     1       2.717   5.114  19.564  0.00  0.00    +0.000 C 
ENDROOT
BRANCH   1   2
ATOM      2  C   UNL     1       2.179   6.528  19.645  0.00  0.00    +0.000 A 
ATOM      3  N   UNL     1       1.683   7.101  20.725  0.00  0.00    +0.000 NA
ATOM      4  C   UNL     1       1.398   8.428  20.466  0.00  0.00    +0.000 A 
ATOM      5  C   UNL     1       1.694   8.864  19.193  0.00  0.00    +0.000 A 
ATOM      6  S   UNL     1       2.318   7.566  18.270  0.00  0.00    +0.000 S 
ENDBRANCH   1   2
BRANCH   1   7
ATOM      7  C   UNL     1       1.557   4.118  19.724  0.00  0.00    +0.000 C 
BRANCH   7   8
ATOM      8  C   UNL     1       2.012   2.661  19.811  0.00  0.00    +0.000 C 
BRANCH   8  10
ATOM      9  C   UNL     1       3.580   1.460  18.370  0.00  0.00    +0.000 C 
ATOM     10  N   UNL     1       2.230   1.985  18.528  0.00  0.00    +0.000 NA
ATOM     11  H   UNL     1       1.567   1.210  18.465  0.00  0.00    +0.000 HD
ENDBRANCH   8  10
ENDBRANCH   7   8
ENDBRANCH   1   7
BRANCH   1  12
ATOM     12  O   UNL     1       3.371   4.932  18.289  0.00  0.00    +0.000 OA
BRANCH  12  13
ATOM     13  C   UNL     1       4.745   5.047  18.251  0.00  0.00    +0.000 A 
ATOM     14  C   UNL     1       5.519   5.276  19.395  0.00  0.00    +0.000 A 
ATOM     15  C   UNL     1       6.893   5.470  19.302  0.00  0.00    +0.000 A 
ATOM     16  C   UNL     1       7.524   5.376  18.069  0.00  0.00    +0.000 A 
ATOM     17  C   UNL     1       6.796   5.034  16.923  0.00  0.00    +0.000 A 
ATOM     18  C   UNL     1       7.476   4.846  15.710  0.00  0.00    +0.000 A 
ATOM     19  C   UNL     1       6.787   4.456  14.562  0.00  0.00    +0.000 A 
ATOM     20  C   UNL     1       5.410   4.284  14.610  0.00  0.00    +0.000 A 
ATOM     21  C   UNL     1       4.718   4.500  15.808  0.00  0.00    +0.000 A 
ATOM     22  C   UNL     1       5.389   4.862  16.998  0.00  0.00    +0.000 A 
ENDBRANCH  12  13
ENDBRANCH   1  12
TORSDOF 6
ENDMDL
MODEL 7
REMARK VINA RESULT:      -7.1      2.787      6.023
REMARK  Name = 
REMARK  7 active torsions:
REMARK  status: ('A' for Active; 'I' for Inactive)
REMARK    1  A    between atoms: C_1  and  N_2
REMARK    2  A    between atoms: N_2  and  C_3
REMARK    3  A    between atoms: C_3  and  C_4
REMARK    4  A    between atoms: C_4  and  C_5
REMARK    5  A    between atoms: C_5  and  O_6
REMARK    6  A    between atoms: C_5  and  C_17
REMARK    7  A    between atoms: O_6  and  C_7
REMARK                            x       y       z     vdW  Elec       q    Type
REMARK                         _______ _______ _______ _____ _____    ______ ____
ROOT
ATOM      1  C   UNL     1       2.951   6.019  19.571  0.00  0.00    +0.000 C 
ENDROOT
BRANCH   1   2
ATOM      2  C   UNL     1       2.360   7.369  19.219  0.00  0.00    +0.000 A 
ATOM      3  N   UNL     1       2.343   7.909  18.014  0.00  0.00    +0.000 NA
ATOM      4  C   UNL     1       1.624   9.088  18.037  0.00  0.00    +0.000 A 
ATOM      5  C   UNL     1       1.084   9.434  19.256  0.00  0.00    +0.000 A 
ATOM      6  S   UNL     1       1.514   8.265  20.430  0.00  0.00    +0.000 S 
ENDBRANCH   1   2
BRANCH   1   7
ATOM      7  C   UNL     1       1.853   5.120  20.161  0.00  0.00    +0.000 C 
BRANCH   7   8
ATOM      8  C   UNL     1       2.390   3.838  20.797  0.00  0.00    +0.000 C 
BRANCH   8  10
ATOM      9  C   UNL     1       4.140   2.269  20.123  0.00  0.00    +0.000 C 
ATOM     10  N   UNL     1       2.805   2.788  19.860  0.00  0.00    +0.000 NA
ATOM     11  H   UNL     1       2.134   2.020  19.932  0.00  0.00    +0.000 HD
ENDBRANCH   8  10
ENDBRANCH   7   8
ENDBRANCH   1   7
BRANCH   1  12
ATOM     12  O   UNL     1       3.509   5.424  18.378  0.00  0.00    +0.000 OA
BRANCH  12  13
ATOM     13  C   UNL     1       4.883   5.352  18.280  0.00  0.00    +0.000 A 
ATOM     14  C   UNL     1       5.732   5.517  19.381  0.00  0.00    +0.000 A 
ATOM     15  C   UNL     1       7.113   5.520  19.224  0.00  0.00    +0.000 A 
ATOM     16  C   UNL     1       7.669   5.295  17.972  0.00  0.00    +0.000 A 
ATOM     17  C   UNL     1       6.850   5.012  16.873  0.00  0.00    +0.000 A 
ATOM     18  C   UNL     1       7.443   4.688  15.642  0.00  0.00    +0.000 A 
ATOM     19  C   UNL     1       6.656   4.351  14.541  0.00  0.00    +0.000 A 
ATOM     20  C   UNL     1       5.273   4.369  14.652  0.00  0.00    +0.000 A 
ATOM     21  C   UNL     1       4.671   4.722  15.866  0.00  0.00    +0.000 A 
ATOM     22  C   UNL     1       5.438   5.034  17.011  0.00  0.00    +0.000 A 
ENDBRANCH  12  13
ENDBRANCH   1  12
TORSDOF 6
ENDMDL
MODEL 8
REMARK VINA RESULT:      -7.1      2.944      5.481
REMARK  Name = 
REMARK  7 active torsions:
REMARK  status: ('A' for Active; 'I' for Inactive)
REMARK    1  A    between atoms: C_1  and  N_2
REMARK    2  A    between atoms: N_2  and  C_3
REMARK    3  A    between atoms: C_3  and  C_4
REMARK    4  A    between atoms: C_4  and  C_5
REMARK    5  A    between atoms: C_5  and  O_6
REMARK    6  A    between atoms: C_5  and  C_17
REMARK    7  A    between atoms: O_6  and  C_7
REMARK                            x       y       z     vdW  Elec       q    Type
REMARK                         _______ _______ _______ _____ _____    ______ ____
ROOT
ATOM      1  C   UNL     1       2.440   5.547  18.402  0.00  0.00    +0.000 C 
ENDROOT
BRANCH   1   2
ATOM      2  C   UNL     1       3.842   5.078  18.071  0.00  0.00    +0.000 A 
ATOM      3  N   UNL     1       4.249   4.644  16.892  0.00  0.00    +0.000 NA
ATOM      4  C   UNL     1       5.611   4.412  16.920  0.00  0.00    +0.000 A 
ATOM      5  C   UNL     1       6.238   4.685  18.116  0.00  0.00    +0.000 A 
ATOM      6  S   UNL     1       5.086   5.219  19.263  0.00  0.00    +0.000 S 
ENDBRANCH   1   2
BRANCH   1   7
ATOM      7  C   UNL     1       1.594   4.346  18.853  0.00  0.00    +0.000 C 
BRANCH   7   8
ATOM      8  C   UNL     1       1.147   4.429  20.313  0.00  0.00    +0.000 C 
BRANCH   8  10
ATOM      9  C   UNL     1       2.346   2.755  21.631  0.00  0.00    +0.000 C 
ATOM     10  N   UNL     1       2.187   4.168  21.314  0.00  0.00    +0.000 NA
ATOM     11  H   UNL     1       3.072   4.523  20.946  0.00  0.00    +0.000 HD
ENDBRANCH   8  10
ENDBRANCH   7   8
ENDBRANCH   1   7
BRANCH   1  12
ATOM     12  O   UNL     1       2.513   6.540  19.449  0.00  0.00    +0.000 OA
BRANCH  12  13
ATOM     13  C   UNL     1       2.095   7.820  19.149  0.00  0.00    +0.000 A 
ATOM     14  C   UNL     1       2.319   8.418  17.903  0.00  0.00    +0.000 A 
ATOM     15  C   UNL     1       1.957   9.740  17.669  0.00  0.00    +0.000 A 
ATOM     16  C   UNL     1       1.307  10.466  18.658  0.00  0.00    +0.000 A 
ATOM     17  C   UNL     1       0.965   9.861  19.873  0.00  0.00    +0.000 A 
ATOM     18  C   UNL     1       0.218  10.588  20.814  0.00  0.00    +0.000 A 
ATOM     19  C   UNL     1      -0.182   9.997  22.013  0.00  0.00    +0.000 A 
ATOM     20  C   UNL     1       0.189   8.690  22.294  0.00  0.00    +0.000 A 
ATOM     21  C   UNL     1       0.961   7.967  21.376  0.00  0.00    +0.000 A 
ATOM     22  C   UNL     1       1.354   8.522  20.137  0.00  0.00    +0.000 A 
ENDBRANCH  12  13
ENDBRANCH   1  12
TORSDOF 6
ENDMDL
MODEL 9
REMARK VINA RESULT:      -7.1      1.636      1.801
REMARK  Name = 
REMARK  7 active torsions:
REMARK  status: ('A' for Active; 'I' for Inactive)
REMARK    1  A    between atoms: C_1  and  N_2
REMARK    2  A    between atoms: N_2  and  C_3
REMARK    3  A    between atoms: C_3  and  C_4
REMARK    4  A    between atoms: C_4  and  C_5
REMARK    5  A    between atoms: C_5  and  O_6
REMARK    6  A    between atoms: C_5  and  C_17
REMARK    7  A    between atoms: O_6  and  C_7
REMARK                            x       y       z     vdW  Elec       q    Type
REMARK                         _______ _______ _______ _____ _____    ______ ____
ROOT
ATOM      1  C   UNL     1       5.628   5.114  17.066  0.00  0.00    +0.000 C 
ENDROOT
BRANCH   1   2
ATOM      2  C   UNL     1       6.653   6.166  17.440  0.00  0.00    +0.000 A 
ATOM      3  N   UNL     1       6.785   7.348  16.865  0.00  0.00    +0.000 NA
ATOM      4  C   UNL     1       7.738   8.092  17.534  0.00  0.00    +0.000 A 
ATOM      5  C   UNL     1       8.316   7.480  18.624  0.00  0.00    +0.000 A 
ATOM      6  S   UNL     1       7.676   5.903  18.807  0.00  0.00    +0.000 S 
ENDBRANCH   1   2
BRANCH   1   7
ATOM      7  C   UNL     1       6.238   4.154  16.033  0.00  0.00    +0.000 C 
BRANCH   7   8
ATOM      8  C   UNL     1       6.289   4.731  14.618  0.00  0.00    +0.000 C 
BRANCH   8  10
ATOM      9  C   UNL     1       7.879   5.235  12.832  0.00  0.00    +0.000 C 
ATOM     10  N   UNL     1       7.547   5.384  14.242  0.00  0.00    +0.000 NA
ATOM     11  H   UNL     1       7.461   6.380  14.456  0.00  0.00    +0.000 HD
ENDBRANCH   8  10
ENDBRANCH   7   8
ENDBRANCH   1   7
BRANCH   1  12
ATOM     12  O   UNL     1       5.236   4.397  18.257  0.00  0.00    +0.000 OA
BRANCH  12  13
ATOM     13  C   UNL     1       4.055   4.766  18.868  0.00  0.00    +0.000 A 
ATOM     14  C   UNL     1       3.841   6.046  19.394  0.00  0.00    +0.000 A 
ATOM     15  C   UNL     1       2.668   6.352  20.076  0.00  0.00    +0.000 A 
ATOM     16  C   UNL     1       1.663   5.400  20.187  0.00  0.00    +0.000 A 
ATOM     17  C   UNL     1       1.798   4.150  19.572  0.00  0.00    +0.000 A 
ATOM     18  C   UNL     1       0.725   3.246  19.614  0.00  0.00    +0.000 A 
ATOM     19  C   UNL     1       0.809   2.013  18.968  0.00  0.00    +0.000 A 
ATOM     20  C   UNL     1       1.976   1.661  18.304  0.00  0.00    +0.000 A 
ATOM     21  C   UNL     1       3.064   2.543  18.284  0.00  0.00    +0.000 A 
ATOM     22  C   UNL     1       3.001   3.814  18.898  0.00  0.00    +0.000 A 
ENDBRANCH  12  13
ENDBRANCH   1  12
TORSDOF 6
ENDMDL
