MODEL 1
REMARK VINA RESULT:      -8.3      0.000      0.000
REMARK  Name = 
REMARK  3 active torsions:
REMARK  status: ('A' for Active; 'I' for Inactive)
REMARK    1  A    between atoms: C_1  and  O_2
REMARK    2  A    between atoms: O_2  and  C_3
REMARK    3  A    between atoms: C_11  and  C_12
REMARK                            x       y       z     vdW  Elec       q    Type
REMARK                         _______ _______ _______ _____ _____    ______ ____
ROOT
ATOM      1  C   UNL     1       2.697   7.221  18.404  0.00  0.00    +0.000 C 
ATOM      2  O   UNL     1       3.533   7.521  17.553  0.00  0.00    +0.000 OA
ATOM      3  N   UNL     1       1.918   8.192  19.012  0.00  0.00    +0.000 N 
ATOM      4  C   UNL     1       1.863   9.521  18.398  0.00  0.00    +0.000 C 
ATOM      5  C   UNL     1       0.475  10.166  18.579  0.00  0.00    +0.000 C 
ATOM      6  N   UNL     1       0.062  10.110  19.983  0.00  0.00    +0.000 N 
ATOM      7  C   UNL     1      -0.464  11.185  20.659  0.00  0.00    +0.000 A 
ATOM      8  C   UNL     1      -1.181  12.185  20.005  0.00  0.00    +0.000 A 
ATOM      9  C   UNL     1      -1.666  13.283  20.715  0.00  0.00    +0.000 A 
ATOM     10  C   UNL     1      -1.417  13.369  22.074  0.00  0.00    +0.000 A 
ATOM     11  C   UNL     1      -0.712  12.339  22.662  0.00  0.00    +0.000 A 
ATOM     12  N   UNL     1      -0.253  11.258  21.993  0.00  0.00    +0.000 NA
ATOM     13  C   UNL     1       0.161   8.811  20.657  0.00  0.00    +0.000 C 
ATOM     14  C   UNL     1       1.546   8.184  20.432  0.00  0.00    +0.000 C 
ENDROOT
BRANCH   1  23
ATOM     15  C   UNL     1       6.509   4.904  18.109  0.00  0.00    +0.000 A 
ATOM     16  C   UNL     1       6.908   4.421  16.857  0.00  0.00    +0.000 A 
ATOM     17  C   UNL     1       5.972   3.974  15.928  0.00  0.00    +0.000 A 
ATOM     18  C   UNL     1       4.616   4.060  16.223  0.00  0.00    +0.000 A 
ATOM     19  C   UNL     1       4.192   4.589  17.451  0.00  0.00    +0.000 A 
ATOM     20  C   UNL     1       5.140   4.964  18.420  0.00  0.00    +0.000 A 
ATOM     21  O   UNL     1       4.761   5.440  19.645  0.00  0.00    +0.000 OA
ATOM     22  C   UNL     1       3.372   5.373  19.976  0.00  0.00    +0.000 C 
ATOM     23  C   UNL     1       2.453   5.762  18.825  0.00  0.00    +0.000 C 
ATOM     24  C   UNL     1       2.718   4.759  17.703  0.00  0.00    +0.000 C 
BRANCH  15  26
ATOM     25  C   UNL     1       8.038   6.642  18.689  0.00  0.00    +0.000 C 
ATOM     26  O   UNL     1       7.566   5.316  18.880  0.00  0.00    +0.000 OA
ENDBRANCH  15  26
ENDBRANCH   1  23
TORSDOF 2
ENDMDL
MODEL 2
REMARK VINA RESULT:      -7.2      7.013     10.590
REMARK  Name = 
REMARK  3 active torsions:
REMARK  status: ('A' for Active; 'I' for Inactive)
REMARK    1  A    between atoms: C_1  and  O_2
REMARK    2  A    between atoms: O_2  and  C_3
REMARK    3  A    between atoms: C_11  and  C_12
REMARK                            x       y       z     vdW  Elec       q    Type
REMARK                         _______ _______ _______ _____ _____    ______ ____
ROOT
ATOM      1  C   UNL     1      -3.803  12.914  22.698  0.00  0.00    +0.000 C 
ATOM      2  O   UNL     1      -3.841  12.010  23.533  0.00  0.00    +0.000 OA
ATOM      3  N   UNL     1      -2.691  13.095  21.893  0.00  0.00    +0.000 N 
ATOM      4  C   UNL     1      -1.710  12.010  21.811  0.00  0.00    +0.000 C 
ATOM      5  C   UNL     1      -1.078  11.929  20.407  0.00  0.00    +0.000 C 
ATOM      6  N   UNL     1      -0.590  13.244  19.987  0.00  0.00    +0.000 N 
ATOM      7  C   UNL     1       0.651  13.446  19.432  0.00  0.00    +0.000 A 
ATOM      8  C   UNL     1       1.297  12.455  18.696  0.00  0.00    +0.000 A 
ATOM      9  C   UNL     1       2.574  12.680  18.182  0.00  0.00    +0.000 A 
ATOM     10  C   UNL     1       3.191  13.896  18.420  0.00  0.00    +0.000 A 
ATOM     11  C   UNL     1       2.492  14.838  19.145  0.00  0.00    +0.000 A 
ATOM     12  N   UNL     1       1.246  14.644  19.633  0.00  0.00    +0.000 NA
ATOM     13  C   UNL     1      -1.518  14.373  20.112  0.00  0.00    +0.000 C 
ATOM     14  C   UNL     1      -2.150  14.406  21.513  0.00  0.00    +0.000 C 
ENDROOT
BRANCH   1  23
ATOM     15  C   UNL     1      -7.063  10.829  20.459  0.00  0.00    +0.000 A 
ATOM     16  C   UNL     1      -6.964  10.727  19.066  0.00  0.00    +0.000 A 
ATOM     17  C   UNL     1      -6.408  11.754  18.308  0.00  0.00    +0.000 A 
ATOM     18  C   UNL     1      -5.890  12.876  18.946  0.00  0.00    +0.000 A 
ATOM     19  C   UNL     1      -5.932  12.976  20.345  0.00  0.00    +0.000 A 
ATOM     20  C   UNL     1      -6.566  11.975  21.103  0.00  0.00    +0.000 A 
ATOM     21  O   UNL     1      -6.666  12.063  22.464  0.00  0.00    +0.000 OA
ATOM     22  C   UNL     1      -6.265  13.291  23.075  0.00  0.00    +0.000 C 
ATOM     23  C   UNL     1      -4.986  13.874  22.486  0.00  0.00    +0.000 C 
ATOM     24  C   UNL     1      -5.277  14.155  21.013  0.00  0.00    +0.000 C 
BRANCH  15  26
ATOM     25  C   UNL     1      -7.468   8.480  20.348  0.00  0.00    +0.000 C 
ATOM     26  O   UNL     1      -7.620   9.715  21.034  0.00  0.00    +0.000 OA
ENDBRANCH  15  26
ENDBRANCH   1  23
TORSDOF 2
ENDMDL
MODEL 3
REMARK VINA RESULT:      -7.0      4.016     10.272
REMARK  Name = 
REMARK  3 active torsions:
REMARK  status: ('A' for Active; 'I' for Inactive)
REMARK    1  A    between atoms: C_1  and  O_2
REMARK    2  A    between atoms: O_2  and  C_3
REMARK    3  A    between atoms: C_11  and  C_12
REMARK                            x       y       z     vdW  Elec       q    Type
REMARK                         _______ _______ _______ _____ _____    ______ ____
ROOT
ATOM      1  C   UNL     1      -1.208  11.669  21.014  0.00  0.00    +0.000 C 
ATOM      2  O   UNL     1      -2.012  12.092  20.183  0.00  0.00    +0.000 OA
ATOM      3  N   UNL     1      -0.421  10.562  20.745  0.00  0.00    +0.000 N 
ATOM      4  C   UNL     1      -0.312  10.109  19.356  0.00  0.00    +0.000 C 
ATOM      5  C   UNL     1       1.088   9.535  19.061  0.00  0.00    +0.000 C 
ATOM      6  N   UNL     1       1.459   8.542  20.072  0.00  0.00    +0.000 N 
ATOM      7  C   UNL     1       1.995   7.315  19.762  0.00  0.00    +0.000 A 
ATOM      8  C   UNL     1       2.758   7.114  18.613  0.00  0.00    +0.000 A 
ATOM      9  C   UNL     1       3.252   5.846  18.309  0.00  0.00    +0.000 A 
ATOM     10  C   UNL     1       2.968   4.791  19.159  0.00  0.00    +0.000 A 
ATOM     11  C   UNL     1       2.218   5.060  20.285  0.00  0.00    +0.000 A 
ATOM     12  N   UNL     1       1.748   6.287  20.606  0.00  0.00    +0.000 NA
ATOM     13  C   UNL     1       1.305   8.930  21.477  0.00  0.00    +0.000 C 
ATOM     14  C   UNL     1      -0.089   9.524  21.729  0.00  0.00    +0.000 C 
ENDROOT
BRANCH   1  23
ATOM     15  C   UNL     1      -5.120  13.279  22.463  0.00  0.00    +0.000 A 
ATOM     16  C   UNL     1      -5.565  14.511  21.969  0.00  0.00    +0.000 A 
ATOM     17  C   UNL     1      -4.669  15.538  21.689  0.00  0.00    +0.000 A 
ATOM     18  C   UNL     1      -3.304  15.322  21.847  0.00  0.00    +0.000 A 
ATOM     19  C   UNL     1      -2.832  14.078  22.291  0.00  0.00    +0.000 A 
ATOM     20  C   UNL     1      -3.743  13.069  22.651  0.00  0.00    +0.000 A 
ATOM     21  O   UNL     1      -3.319  11.860  23.131  0.00  0.00    +0.000 OA
ATOM     22  C   UNL     1      -1.927  11.722  23.428  0.00  0.00    +0.000 C 
ATOM     23  C   UNL     1      -1.018  12.350  22.379  0.00  0.00    +0.000 C 
ATOM     24  C   UNL     1      -1.347  13.843  22.360  0.00  0.00    +0.000 C 
BRANCH  15  26
ATOM     25  C   UNL     1      -6.937  12.550  23.827  0.00  0.00    +0.000 C 
ATOM     26  O   UNL     1      -6.142  12.385  22.661  0.00  0.00    +0.000 OA
ENDBRANCH  15  26
ENDBRANCH   1  23
TORSDOF 2
ENDMDL
MODEL 4
REMARK VINA RESULT:      -6.9      4.635     10.788
REMARK  Name = 
REMARK  3 active torsions:
REMARK  status: ('A' for Active; 'I' for Inactive)
REMARK    1  A    between atoms: C_1  and  O_2
REMARK    2  A    between atoms: O_2  and  C_3
REMARK    3  A    between atoms: C_11  and  C_12
REMARK                            x       y       z     vdW  Elec       q    Type
REMARK                         _______ _______ _______ _____ _____    ______ ____
ROOT
ATOM      1  C   UNL     1      -2.347  12.406  20.989  0.00  0.00    +0.000 C 
ATOM      2  O   UNL     1      -3.305  12.643  20.254  0.00  0.00    +0.000 OA
ATOM      3  N   UNL     1      -1.360  11.513  20.607  0.00  0.00    +0.000 N 
ATOM      4  C   UNL     1      -1.292  11.114  19.199  0.00  0.00    +0.000 C 
ATOM      5  C   UNL     1       0.164  10.880  18.751  0.00  0.00    +0.000 C 
ATOM      6  N   UNL     1       0.852   9.987  19.686  0.00  0.00    +0.000 N 
ATOM      7  C   UNL     1       1.618   8.919  19.284  0.00  0.00    +0.000 A 
ATOM      8  C   UNL     1       2.286   8.913  18.060  0.00  0.00    +0.000 A 
ATOM      9  C   UNL     1       3.022   7.796  17.666  0.00  0.00    +0.000 A 
ATOM     10  C   UNL     1       3.073   6.693  18.502  0.00  0.00    +0.000 A 
ATOM     11  C   UNL     1       2.400   6.770  19.703  0.00  0.00    +0.000 A 
ATOM     12  N   UNL     1       1.699   7.852  20.110  0.00  0.00    +0.000 NA
ATOM     13  C   UNL     1       0.757  10.312  21.113  0.00  0.00    +0.000 C 
ATOM     14  C   UNL     1      -0.703  10.567  21.518  0.00  0.00    +0.000 C 
ENDROOT
BRANCH   1  23
ATOM     15  C   UNL     1      -6.360  13.181  22.800  0.00  0.00    +0.000 A 
ATOM     16  C   UNL     1      -7.083  14.304  22.379  0.00  0.00    +0.000 A 
ATOM     17  C   UNL     1      -6.437  15.494  22.055  0.00  0.00    +0.000 A 
ATOM     18  C   UNL     1      -5.048  15.554  22.094  0.00  0.00    +0.000 A 
ATOM     19  C   UNL     1      -4.301  14.425  22.463  0.00  0.00    +0.000 A 
ATOM     20  C   UNL     1      -4.958  13.250  22.868  0.00  0.00    +0.000 A 
ATOM     21  O   UNL     1      -4.262  12.146  23.277  0.00  0.00    +0.000 OA
ATOM     22  C   UNL     1      -2.851  12.286  23.454  0.00  0.00    +0.000 C 
ATOM     23  C   UNL     1      -2.178  13.096  22.352  0.00  0.00    +0.000 C 
ATOM     24  C   UNL     1      -2.799  14.492  22.402  0.00  0.00    +0.000 C 
BRANCH  15  26
ATOM     25  C   UNL     1      -7.823  11.497  21.951  0.00  0.00    +0.000 C 
ATOM     26  O   UNL     1      -7.163  12.099  23.056  0.00  0.00    +0.000 OA
ENDBRANCH  15  26
ENDBRANCH   1  23
TORSDOF 2
ENDMDL
MODEL 5
REMARK VINA RESULT:      -6.8      3.574      8.903
REMARK  Name = 
REMARK  3 active torsions:
REMARK  status: ('A' for Active; 'I' for Inactive)
REMARK    1  A    between atoms: C_1  and  O_2
REMARK    2  A    between atoms: O_2  and  C_3
REMARK    3  A    between atoms: C_11  and  C_12
REMARK                            x       y       z     vdW  Elec       q    Type
REMARK                         _______ _______ _______ _____ _____    ______ ____
ROOT
ATOM      1  C   UNL     1      -1.020  11.277  19.483  0.00  0.00    +0.000 C 
ATOM      2  O   UNL     1      -1.706  11.641  18.529  0.00  0.00    +0.000 OA
ATOM      3  N   UNL     1      -0.140  10.214  19.364  0.00  0.00    +0.000 N 
ATOM      4  C   UNL     1       0.209   9.750  18.018  0.00  0.00    +0.000 C 
ATOM      5  C   UNL     1       1.668   9.255  17.956  0.00  0.00    +0.000 C 
ATOM      6  N   UNL     1       1.931   8.298  19.033  0.00  0.00    +0.000 N 
ATOM      7  C   UNL     1       2.575   7.100  18.837  0.00  0.00    +0.000 A 
ATOM      8  C   UNL     1       3.518   6.929  17.825  0.00  0.00    +0.000 A 
ATOM      9  C   UNL     1       4.123   5.688  17.629  0.00  0.00    +0.000 A 
ATOM     10  C   UNL     1       3.768   4.629  18.447  0.00  0.00    +0.000 A 
ATOM     11  C   UNL     1       2.838   4.869  19.437  0.00  0.00    +0.000 A 
ATOM     12  N   UNL     1       2.257   6.070  19.654  0.00  0.00    +0.000 NA
ATOM     13  C   UNL     1       1.538   8.694  20.390  0.00  0.00    +0.000 C 
ATOM     14  C   UNL     1       0.090   9.210  20.409  0.00  0.00    +0.000 C 
ENDROOT
BRANCH   1  23
ATOM     15  C   UNL     1       0.303  15.524  19.043  0.00  0.00    +0.000 A 
ATOM     16  C   UNL     1       1.675  15.803  19.020  0.00  0.00    +0.000 A 
ATOM     17  C   UNL     1       2.569  15.074  19.798  0.00  0.00    +0.000 A 
ATOM     18  C   UNL     1       2.104  14.015  20.569  0.00  0.00    +0.000 A 
ATOM     19  C   UNL     1       0.740  13.684  20.568  0.00  0.00    +0.000 A 
ATOM     20  C   UNL     1      -0.173  14.473  19.844  0.00  0.00    +0.000 A 
ATOM     21  O   UNL     1      -1.515  14.207  19.857  0.00  0.00    +0.000 OA
ATOM     22  C   UNL     1      -1.980  13.215  20.774  0.00  0.00    +0.000 C 
ATOM     23  C   UNL     1      -1.082  11.985  20.846  0.00  0.00    +0.000 C 
ATOM     24  C   UNL     1       0.281  12.474  21.335  0.00  0.00    +0.000 C 
BRANCH  15  26
ATOM     25  C   UNL     1      -0.939  17.539  18.736  0.00  0.00    +0.000 C 
ATOM     26  O   UNL     1      -0.417  16.332  18.199  0.00  0.00    +0.000 OA
ENDBRANCH  15  26
ENDBRANCH   1  23
TORSDOF 2
ENDMDL
MODEL 6
REMARK VINA RESULT:      -6.6      9.283     11.428
REMARK  Name = 
REMARK  3 active torsions:
REMARK  status: ('A' for Active; 'I' for Inactive)
REMARK    1  A    between atoms: C_1  and  O_2
REMARK    2  A    between atoms: O_2  and  C_3
REMARK    3  A    between atoms: C_11  and  C_12
REMARK                            x       y       z     vdW  Elec       q    Type
REMARK                         _______ _______ _______ _____ _____    ______ ____
ROOT
ATOM      1  C   UNL     1      -4.745  13.370  23.427  0.00  0.00    +0.000 C 
ATOM      2  O   UNL     1      -4.417  12.356  24.043  0.00  0.00    +0.000 OA
ATOM      3  N   UNL     1      -3.833  14.052  22.640  0.00  0.00    +0.000 N 
ATOM      4  C   UNL     1      -2.583  13.377  22.282  0.00  0.00    +0.000 C 
ATOM      5  C   UNL     1      -2.110  13.780  20.872  0.00  0.00    +0.000 C 
ATOM      6  N   UNL     1      -2.093  15.238  20.733  0.00  0.00    +0.000 N 
ATOM      7  C   UNL     1      -1.038  15.932  20.189  0.00  0.00    +0.000 A 
ATOM      8  C   UNL     1      -0.203  15.365  19.228  0.00  0.00    +0.000 A 
ATOM      9  C   UNL     1       0.882  16.083  18.727  0.00  0.00    +0.000 A 
ATOM     10  C   UNL     1       1.122  17.361  19.203  0.00  0.00    +0.000 A 
ATOM     11  C   UNL     1       0.250  17.867  20.145  0.00  0.00    +0.000 A 
ATOM     12  N   UNL     1      -0.818  17.192  20.626  0.00  0.00    +0.000 NA
ATOM     13  C   UNL     1      -3.301  15.962  21.140  0.00  0.00    +0.000 C 
ATOM     14  C   UNL     1      -3.760  15.515  22.537  0.00  0.00    +0.000 C 
ENDROOT
BRANCH   1  23
ATOM     15  C   UNL     1      -7.421  10.878  20.854  0.00  0.00    +0.000 A 
ATOM     16  C   UNL     1      -7.436  11.112  19.474  0.00  0.00    +0.000 A 
ATOM     17  C   UNL     1      -7.298  12.399  18.962  0.00  0.00    +0.000 A 
ATOM     18  C   UNL     1      -7.086  13.465  19.830  0.00  0.00    +0.000 A 
ATOM     19  C   UNL     1      -7.016  13.247  21.214  0.00  0.00    +0.000 A 
ATOM     20  C   UNL     1      -7.235  11.958  21.734  0.00  0.00    +0.000 A 
ATOM     21  O   UNL     1      -7.220  11.718  23.081  0.00  0.00    +0.000 OA
ATOM     22  C   UNL     1      -7.154  12.850  23.950  0.00  0.00    +0.000 C 
ATOM     23  C   UNL     1      -6.179  13.923  23.478  0.00  0.00    +0.000 C 
ATOM     24  C   UNL     1      -6.689  14.403  22.120  0.00  0.00    +0.000 C 
BRANCH  15  26
ATOM     25  C   UNL     1      -7.361   8.608  20.122  0.00  0.00    +0.000 C 
ATOM     26  O   UNL     1      -7.550   9.549  21.169  0.00  0.00    +0.000 OA
ENDBRANCH  15  26
ENDBRANCH   1  23
TORSDOF 2
ENDMDL
MODEL 7
REMARK VINA RESULT:      -6.6      2.834      9.021
REMARK  Name = 
REMARK  3 active torsions:
REMARK  status: ('A' for Active; 'I' for Inactive)
REMARK    1  A    between atoms: C_1  and  O_2
REMARK    2  A    between atoms: O_2  and  C_3
REMARK    3  A    between atoms: C_11  and  C_12
REMARK                            x       y       z     vdW  Elec       q    Type
REMARK                         _______ _______ _______ _____ _____    ______ ____
ROOT
ATOM      1  C   UNL     1       0.481   9.779  20.102  0.00  0.00    +0.000 C 
ATOM      2  O   UNL     1       0.327   9.769  21.323  0.00  0.00    +0.000 OA
ATOM      3  N   UNL     1       1.381   8.921  19.491  0.00  0.00    +0.000 N 
ATOM      4  C   UNL     1       1.892   7.786  20.264  0.00  0.00    +0.000 C 
ATOM      5  C   UNL     1       2.129   6.556  19.365  0.00  0.00    +0.000 C 
ATOM      6  N   UNL     1       2.927   6.922  18.193  0.00  0.00    +0.000 N 
ATOM      7  C   UNL     1       4.006   6.192  17.757  0.00  0.00    +0.000 A 
ATOM      8  C   UNL     1       4.098   4.817  17.969  0.00  0.00    +0.000 A 
ATOM      9  C   UNL     1       5.227   4.115  17.549  0.00  0.00    +0.000 A 
ATOM     10  C   UNL     1       6.256   4.801  16.928  0.00  0.00    +0.000 A 
ATOM     11  C   UNL     1       6.096   6.158  16.738  0.00  0.00    +0.000 A 
ATOM     12  N   UNL     1       5.000   6.852  17.120  0.00  0.00    +0.000 NA
ATOM     13  C   UNL     1       2.488   8.092  17.425  0.00  0.00    +0.000 C 
ATOM     14  C   UNL     1       2.233   9.290  18.354  0.00  0.00    +0.000 C 
ENDROOT
BRANCH   1  23
ATOM     15  C   UNL     1       0.071  13.786  22.041  0.00  0.00    +0.000 A 
ATOM     16  C   UNL     1      -0.922  13.966  23.012  0.00  0.00    +0.000 A 
ATOM     17  C   UNL     1      -2.155  13.328  22.905  0.00  0.00    +0.000 A 
ATOM     18  C   UNL     1      -2.387  12.454  21.848  0.00  0.00    +0.000 A 
ATOM     19  C   UNL     1      -1.387  12.219  20.892  0.00  0.00    +0.000 A 
ATOM     20  C   UNL     1      -0.173  12.925  20.957  0.00  0.00    +0.000 A 
ATOM     21  O   UNL     1       0.805  12.755  20.017  0.00  0.00    +0.000 OA
ATOM     22  C   UNL     1       0.481  11.973  18.865  0.00  0.00    +0.000 C 
ATOM     23  C   UNL     1      -0.322  10.719  19.189  0.00  0.00    +0.000 C 
ATOM     24  C   UNL     1      -1.632  11.195  19.816  0.00  0.00    +0.000 C 
BRANCH  15  26
ATOM     25  C   UNL     1       1.312  15.816  21.858  0.00  0.00    +0.000 C 
ATOM     26  O   UNL     1       1.221  14.478  22.325  0.00  0.00    +0.000 OA
ENDBRANCH  15  26
ENDBRANCH   1  23
TORSDOF 2
ENDMDL
MODEL 8
REMARK VINA RESULT:      -6.6      7.389      8.649
REMARK  Name = 
REMARK  3 active torsions:
REMARK  status: ('A' for Active; 'I' for Inactive)
REMARK    1  A    between atoms: C_1  and  O_2
REMARK    2  A    between atoms: O_2  and  C_3
REMARK    3  A    between atoms: C_11  and  C_12
REMARK                            x       y       z     vdW  Elec       q    Type
REMARK                         _______ _______ _______ _____ _____    ______ ____
ROOT
ATOM      1  C   UNL     1       7.330  15.254  18.451  0.00  0.00    +0.000 C 
ATOM      2  O   UNL     1       7.701  14.462  17.585  0.00  0.00    +0.000 OA
ATOM      3  N   UNL     1       6.002  15.640  18.542  0.00  0.00    +0.000 N 
ATOM      4  C   UNL     1       4.999  14.851  17.822  0.00  0.00    +0.000 C 
ATOM      5  C   UNL     1       3.667  14.797  18.596  0.00  0.00    +0.000 C 
ATOM      6  N   UNL     1       3.242  16.145  18.980  0.00  0.00    +0.000 N 
ATOM      7  C   UNL     1       1.961  16.611  18.804  0.00  0.00    +0.000 A 
ATOM      8  C   UNL     1       0.860  15.757  18.815  0.00  0.00    +0.000 A 
ATOM      9  C   UNL     1      -0.422  16.258  18.593  0.00  0.00    +0.000 A 
ATOM     10  C   UNL     1      -0.584  17.612  18.353  0.00  0.00    +0.000 A 
ATOM     11  C   UNL     1       0.546  18.404  18.367  0.00  0.00    +0.000 A 
ATOM     12  N   UNL     1       1.793  17.938  18.601  0.00  0.00    +0.000 NA
ATOM     13  C   UNL     1       4.235  16.994  19.646  0.00  0.00    +0.000 C 
ATOM     14  C   UNL     1       5.558  17.002  18.865  0.00  0.00    +0.000 C 
ENDROOT
BRANCH   1  23
ATOM     15  C   UNL     1       9.933  12.008  20.087  0.00  0.00    +0.000 A 
ATOM     16  C   UNL     1       9.428  11.187  21.102  0.00  0.00    +0.000 A 
ATOM     17  C   UNL     1       8.580  11.697  22.082  0.00  0.00    +0.000 A 
ATOM     18  C   UNL     1       8.181  13.027  22.022  0.00  0.00    +0.000 A 
ATOM     19  C   UNL     1       8.634  13.855  20.983  0.00  0.00    +0.000 A 
ATOM     20  C   UNL     1       9.554  13.360  20.041  0.00  0.00    +0.000 A 
ATOM     21  O   UNL     1      10.052  14.152  19.043  0.00  0.00    +0.000 OA
ATOM     22  C   UNL     1       9.746  15.548  19.096  0.00  0.00    +0.000 C 
ATOM     23  C   UNL     1       8.303  15.839  19.487  0.00  0.00    +0.000 C 
ATOM     24  C   UNL     1       8.110  15.262  20.889  0.00  0.00    +0.000 C 
BRANCH  15  26
ATOM     25  C   UNL     1      12.132  11.570  19.270  0.00  0.00    +0.000 C 
ATOM     26  O   UNL     1      10.734  11.328  19.204  0.00  0.00    +0.000 OA
ENDBRANCH  15  26
ENDBRANCH   1  23
TORSDOF 2
ENDMDL
MODEL 9
REMARK VINA RESULT:      -6.6      2.462      3.677
REMARK  Name = 
REMARK  3 active torsions:
REMARK  status: ('A' for Active; 'I' for Inactive)
REMARK    1  A    between atoms: C_1  and  O_2
REMARK    2  A    between atoms: O_2  and  C_3
REMARK    3  A    between atoms: C_11  and  C_12
REMARK                            x       y       z     vdW  Elec       q    Type
REMARK                         _______ _______ _______ _____ _____    ______ ____
ROOT
ATOM      1  C   UNL     1       4.906   6.248  16.929  0.00  0.00    +0.000 C 
ATOM      2  O   UNL     1       5.379   6.915  16.010  0.00  0.00    +0.000 OA
ATOM      3  N   UNL     1       4.005   6.805  17.822  0.00  0.00    +0.000 N 
ATOM      4  C   UNL     1       3.372   8.078  17.467  0.00  0.00    +0.000 C 
ATOM      5  C   UNL     1       1.926   8.154  17.997  0.00  0.00    +0.000 C 
ATOM      6  N   UNL     1       1.883   7.812  19.420  0.00  0.00    +0.000 N 
ATOM      7  C   UNL     1       1.195   8.550  20.353  0.00  0.00    +0.000 A 
ATOM      8  C   UNL     1       0.057   9.282  20.017  0.00  0.00    +0.000 A 
ATOM      9  C   UNL     1      -0.594  10.052  20.980  0.00  0.00    +0.000 A 
ATOM     10  C   UNL     1      -0.090  10.087  22.268  0.00  0.00    +0.000 A 
ATOM     11  C   UNL     1       1.032   9.331  22.537  0.00  0.00    +0.000 A 
ATOM     12  N   UNL     1       1.663   8.562  21.621  0.00  0.00    +0.000 NA
ATOM     13  C   UNL     1       2.560   6.578  19.832  0.00  0.00    +0.000 C 
ATOM     14  C   UNL     1       3.986   6.522  19.263  0.00  0.00    +0.000 C 
ENDROOT
BRANCH   1  23
ATOM     15  C   UNL     1       7.589   4.884  13.624  0.00  0.00    +0.000 A 
ATOM     16  C   UNL     1       7.017   4.527  12.397  0.00  0.00    +0.000 A 
ATOM     17  C   UNL     1       5.781   3.889  12.339  0.00  0.00    +0.000 A 
ATOM     18  C   UNL     1       5.074   3.653  13.513  0.00  0.00    +0.000 A 
ATOM     19  C   UNL     1       5.605   4.050  14.750  0.00  0.00    +0.000 A 
ATOM     20  C   UNL     1       6.889   4.620  14.813  0.00  0.00    +0.000 A 
ATOM     21  O   UNL     1       7.456   4.977  16.006  0.00  0.00    +0.000 OA
ATOM     22  C   UNL     1       6.776   4.584  17.201  0.00  0.00    +0.000 C 
ATOM     23  C   UNL     1       5.265   4.767  17.128  0.00  0.00    +0.000 C 
ATOM     24  C   UNL     1       4.775   3.869  15.993  0.00  0.00    +0.000 C 
BRANCH  15  26
ATOM     25  C   UNL     1       8.989   6.307  12.315  0.00  0.00    +0.000 C 
ATOM     26  O   UNL     1       8.797   5.518  13.481  0.00  0.00    +0.000 OA
ENDBRANCH  15  26
ENDBRANCH   1  23
TORSDOF 2
ENDMDL
