MODEL 1
REMARK VINA RESULT:      -7.5      0.000      0.000
REMARK  Name = 
REMARK  4 active torsions:
REMARK  status: ('A' for Active; 'I' for Inactive)
REMARK    1  A    between atoms: C_1  and  S_2
REMARK    2  A    between atoms: S_2  and  N_5
REMARK    3  A    between atoms: N_5  and  N_6
REMARK    4  A    between atoms: C_14  and  N_15
REMARK                            x       y       z     vdW  Elec       q    Type
REMARK                         _______ _______ _______ _____ _____    ______ ____
ROOT
ATOM      1  N   UNL     1       1.105   9.150  19.573  0.00  0.00    +0.000 N 
ATOM      2  C   UNL     1       0.874   8.380  20.713  0.00  0.00    +0.000 A 
ATOM      3  O   UNL     1       0.007   8.592  21.560  0.00  0.00    +0.000 OA
ATOM      4  N   UNL     1       1.643   7.240  20.817  0.00  0.00    +0.000 N 
ATOM      5  C   UNL     1       2.525   6.803  19.826  0.00  0.00    +0.000 A 
ATOM      6  C   UNL     1       3.177   5.579  19.964  0.00  0.00    +0.000 A 
ATOM      7  C   UNL     1       4.000   5.091  18.934  0.00  0.00    +0.000 A 
ATOM      8 CL   UNL     1       4.813   3.604  19.286  0.00  0.00    +0.000 Cl
ATOM      9  C   UNL     1       4.192   5.848  17.763  0.00  0.00    +0.000 A 
ATOM     10  C   UNL     1       3.576   7.111  17.662  0.00  0.00    +0.000 A 
ATOM     11  C   UNL     1       2.721   7.561  18.679  0.00  0.00    +0.000 A 
ATOM     12  C   UNL     1       1.935   8.797  18.511  0.00  0.00    +0.000 A 
ATOM     13  O   UNL     1       1.979   9.428  17.456  0.00  0.00    +0.000 OA
ATOM     14  H   UNL     1       1.459   6.676  21.640  0.00  0.00    +0.000 HD
ENDROOT
BRANCH   9  15
ATOM     15  N   UNL     1       4.933   5.379  16.644  0.00  0.00    +0.000 N 
ATOM     16  C   UNL     1       4.828   4.157  16.010  0.00  0.00    +0.000 A 
ATOM     17  C   UNL     1       5.705   4.191  14.952  0.00  0.00    +0.000 A 
ATOM     18  N   UNL     1       6.334   5.400  14.890  0.00  0.00    +0.000 NA
ATOM     19  C   UNL     1       5.846   6.092  15.895  0.00  0.00    +0.000 A 
ENDBRANCH   9  15
BRANCH   1  20
ATOM     20  N   UNL     1       0.236  10.340  19.304  0.00  0.00    +0.000 N 
ATOM     21  H   UNL     1       0.216  10.468  18.282  0.00  0.00    +0.000 HD
BRANCH  20  23
ATOM     22  C   UNL     1      -0.550  12.832  19.869  0.00  0.00    +0.000 C 
ATOM     23  S   UNL     1       0.890  11.789  19.939  0.00  0.00    +0.000 S 
ATOM     24  O   UNL     1       1.840  12.267  18.956  0.00  0.00    +0.000 OA
ATOM     25  O   UNL     1       1.269  11.594  21.317  0.00  0.00    +0.000 OA
ENDBRANCH  20  23
ENDBRANCH   1  20
TORSDOF 3
ENDMDL
MODEL 2
REMARK VINA RESULT:      -7.0      3.947      6.815
REMARK  Name = 
REMARK  4 active torsions:
REMARK  status: ('A' for Active; 'I' for Inactive)
REMARK    1  A    between atoms: C_1  and  S_2
REMARK    2  A    between atoms: S_2  and  N_5
REMARK    3  A    between atoms: N_5  and  N_6
REMARK    4  A    between atoms: C_14  and  N_15
REMARK                            x       y       z     vdW  Elec       q    Type
REMARK                         _______ _______ _______ _____ _____    ______ ____
ROOT
ATOM      1  N   UNL     1       4.541   5.118  18.240  0.00  0.00    +0.000 N 
ATOM      2  C   UNL     1       4.204   4.331  19.341  0.00  0.00    +0.000 A 
ATOM      3  O   UNL     1       4.801   3.321  19.711  0.00  0.00    +0.000 OA
ATOM      4  N   UNL     1       3.163   4.810  20.109  0.00  0.00    +0.000 N 
ATOM      5  C   UNL     1       2.535   6.038  19.889  0.00  0.00    +0.000 A 
ATOM      6  C   UNL     1       1.569   6.496  20.782  0.00  0.00    +0.000 A 
ATOM      7  C   UNL     1       0.993   7.768  20.619  0.00  0.00    +0.000 A 
ATOM      8 CL   UNL     1      -0.255   8.161  21.751  0.00  0.00    +0.000 Cl
ATOM      9  C   UNL     1       1.371   8.580  19.533  0.00  0.00    +0.000 A 
ATOM     10  C   UNL     1       2.304   8.082  18.603  0.00  0.00    +0.000 A 
ATOM     11  C   UNL     1       2.903   6.830  18.809  0.00  0.00    +0.000 A 
ATOM     12  C   UNL     1       4.004   6.369  17.944  0.00  0.00    +0.000 A 
ATOM     13  O   UNL     1       4.449   7.096  17.057  0.00  0.00    +0.000 OA
ATOM     14  H   UNL     1       2.934   4.241  20.917  0.00  0.00    +0.000 HD
ENDROOT
BRANCH   9  15
ATOM     15  N   UNL     1       0.902   9.911  19.355  0.00  0.00    +0.000 N 
ATOM     16  C   UNL     1      -0.043  10.363  18.455  0.00  0.00    +0.000 A 
ATOM     17  C   UNL     1      -0.200  11.707  18.699  0.00  0.00    +0.000 A 
ATOM     18  N   UNL     1       0.595  12.102  19.735  0.00  0.00    +0.000 NA
ATOM     19  C   UNL     1       1.226  11.014  20.117  0.00  0.00    +0.000 A 
ENDBRANCH   9  15
BRANCH   1  20
ATOM     20  N   UNL     1       5.736   4.751  17.415  0.00  0.00    +0.000 N 
ATOM     21  H   UNL     1       5.739   3.723  17.339  0.00  0.00    +0.000 HD
BRANCH  20  23
ATOM     22  C   UNL     1       7.555   6.711  17.369  0.00  0.00    +0.000 C 
ATOM     23  S   UNL     1       7.213   5.163  18.177  0.00  0.00    +0.000 S 
ATOM     24  O   UNL     1       8.187   4.192  17.721  0.00  0.00    +0.000 OA
ATOM     25  O   UNL     1       6.991   5.400  19.583  0.00  0.00    +0.000 OA
ENDBRANCH  20  23
ENDBRANCH   1  20
TORSDOF 3
ENDMDL
MODEL 3
REMARK VINA RESULT:      -6.9      3.760      6.825
REMARK  Name = 
REMARK  4 active torsions:
REMARK  status: ('A' for Active; 'I' for Inactive)
REMARK    1  A    between atoms: C_1  and  S_2
REMARK    2  A    between atoms: S_2  and  N_5
REMARK    3  A    between atoms: N_5  and  N_6
REMARK    4  A    between atoms: C_14  and  N_15
REMARK                            x       y       z     vdW  Elec       q    Type
REMARK                         _______ _______ _______ _____ _____    ______ ____
ROOT
ATOM      1  N   UNL     1       4.330   5.577  17.864  0.00  0.00    +0.000 N 
ATOM      2  C   UNL     1       4.200   4.956  19.106  0.00  0.00    +0.000 A 
ATOM      3  O   UNL     1       4.874   4.010  19.510  0.00  0.00    +0.000 OA
ATOM      4  N   UNL     1       3.289   5.539  19.962  0.00  0.00    +0.000 N 
ATOM      5  C   UNL     1       2.603   6.723  19.679  0.00  0.00    +0.000 A 
ATOM      6  C   UNL     1       1.788   7.304  20.648  0.00  0.00    +0.000 A 
ATOM      7  C   UNL     1       1.161   8.539  20.405  0.00  0.00    +0.000 A 
ATOM      8 CL   UNL     1       0.109   9.090  21.663  0.00  0.00    +0.000 Cl
ATOM      9  C   UNL     1       1.334   9.188  19.167  0.00  0.00    +0.000 A 
ATOM     10  C   UNL     1       2.112   8.561  18.174  0.00  0.00    +0.000 A 
ATOM     11  C   UNL     1       2.767   7.352  18.451  0.00  0.00    +0.000 A 
ATOM     12  C   UNL     1       3.720   6.772  17.488  0.00  0.00    +0.000 A 
ATOM     13  O   UNL     1       3.994   7.364  16.445  0.00  0.00    +0.000 OA
ATOM     14  H   UNL     1       3.211   5.093  20.869  0.00  0.00    +0.000 HD
ENDROOT
BRANCH   9  15
ATOM     15  N   UNL     1       0.810  10.478  18.883  0.00  0.00    +0.000 N 
ATOM     16  C   UNL     1      -0.498  10.818  18.598  0.00  0.00    +0.000 A 
ATOM     17  C   UNL     1      -0.521  12.185  18.453  0.00  0.00    +0.000 A 
ATOM     18  N   UNL     1       0.720  12.711  18.663  0.00  0.00    +0.000 NA
ATOM     19  C   UNL     1       1.488  11.679  18.932  0.00  0.00    +0.000 A 
ENDBRANCH   9  15
BRANCH   1  20
ATOM     20  N   UNL     1       5.380   5.096  16.911  0.00  0.00    +0.000 N 
ATOM     21  H   UNL     1       5.514   4.091  17.100  0.00  0.00    +0.000 HD
BRANCH  20  23
ATOM     22  C   UNL     1       7.816   4.417  17.778  0.00  0.00    +0.000 C 
ATOM     23  S   UNL     1       6.904   5.826  17.187  0.00  0.00    +0.000 S 
ATOM     24  O   UNL     1       6.718   6.739  18.296  0.00  0.00    +0.000 OA
ATOM     25  O   UNL     1       7.470   6.268  15.937  0.00  0.00    +0.000 OA
ENDBRANCH  20  23
ENDBRANCH   1  20
TORSDOF 3
ENDMDL
MODEL 4
REMARK VINA RESULT:      -6.9      4.286      7.727
REMARK  Name = 
REMARK  4 active torsions:
REMARK  status: ('A' for Active; 'I' for Inactive)
REMARK    1  A    between atoms: C_1  and  S_2
REMARK    2  A    between atoms: S_2  and  N_5
REMARK    3  A    between atoms: N_5  and  N_6
REMARK    4  A    between atoms: C_14  and  N_15
REMARK                            x       y       z     vdW  Elec       q    Type
REMARK                         _______ _______ _______ _____ _____    ______ ____
ROOT
ATOM      1  N   UNL     1       2.726   4.518  19.113  0.00  0.00    +0.000 N 
ATOM      2  C   UNL     1       3.088   4.977  17.846  0.00  0.00    +0.000 A 
ATOM      3  O   UNL     1       3.425   4.273  16.896  0.00  0.00    +0.000 OA
ATOM      4  N   UNL     1       2.954   6.337  17.654  0.00  0.00    +0.000 N 
ATOM      5  C   UNL     1       2.405   7.206  18.600  0.00  0.00    +0.000 A 
ATOM      6  C   UNL     1       2.202   8.546  18.279  0.00  0.00    +0.000 A 
ATOM      7  C   UNL     1       1.573   9.410  19.192  0.00  0.00    +0.000 A 
ATOM      8 CL   UNL     1       1.471  11.063  18.691  0.00  0.00    +0.000 Cl
ATOM      9  C   UNL     1       1.165   8.932  20.452  0.00  0.00    +0.000 A 
ATOM     10  C   UNL     1       1.431   7.590  20.788  0.00  0.00    +0.000 A 
ATOM     11  C   UNL     1       2.017   6.731  19.846  0.00  0.00    +0.000 A 
ATOM     12  C   UNL     1       2.144   5.288  20.118  0.00  0.00    +0.000 A 
ATOM     13  O   UNL     1       1.692   4.804  21.155  0.00  0.00    +0.000 OA
ATOM     14  H   UNL     1       3.202   6.662  16.726  0.00  0.00    +0.000 HD
ENDROOT
BRANCH   9  15
ATOM     15  N   UNL     1       0.441   9.719  21.388  0.00  0.00    +0.000 N 
ATOM     16  C   UNL     1      -0.483  10.711  21.126  0.00  0.00    +0.000 A 
ATOM     17  C   UNL     1      -0.950  11.140  22.347  0.00  0.00    +0.000 A 
ATOM     18  N   UNL     1      -0.368  10.433  23.358  0.00  0.00    +0.000 NA
ATOM     19  C   UNL     1       0.441   9.586  22.761  0.00  0.00    +0.000 A 
ENDBRANCH   9  15
BRANCH   1  20
ATOM     20  N   UNL     1       2.717   3.045  19.383  0.00  0.00    +0.000 N 
ATOM     21  H   UNL     1       2.065   2.891  20.167  0.00  0.00    +0.000 HD
BRANCH  20  23
ATOM     22  C   UNL     1       4.376   0.998  18.929  0.00  0.00    +0.000 C 
ATOM     23  S   UNL     1       4.235   2.466  19.924  0.00  0.00    +0.000 S 
ATOM     24  O   UNL     1       4.044   2.060  21.301  0.00  0.00    +0.000 OA
ATOM     25  O   UNL     1       5.275   3.393  19.552  0.00  0.00    +0.000 OA
ENDBRANCH  20  23
ENDBRANCH   1  20
TORSDOF 3
ENDMDL
MODEL 5
REMARK VINA RESULT:      -6.8      3.626      6.864
REMARK  Name = 
REMARK  4 active torsions:
REMARK  status: ('A' for Active; 'I' for Inactive)
REMARK    1  A    between atoms: C_1  and  S_2
REMARK    2  A    between atoms: S_2  and  N_5
REMARK    3  A    between atoms: N_5  and  N_6
REMARK    4  A    between atoms: C_14  and  N_15
REMARK                            x       y       z     vdW  Elec       q    Type
REMARK                         _______ _______ _______ _____ _____    ______ ____
ROOT
ATOM      1  N   UNL     1       3.856   5.861  18.091  0.00  0.00    +0.000 N 
ATOM      2  C   UNL     1       3.644   5.251  19.328  0.00  0.00    +0.000 A 
ATOM      3  O   UNL     1       4.231   4.255  19.747  0.00  0.00    +0.000 OA
ATOM      4  N   UNL     1       2.760   5.904  20.161  0.00  0.00    +0.000 N 
ATOM      5  C   UNL     1       2.178   7.138  19.863  0.00  0.00    +0.000 A 
ATOM      6  C   UNL     1       1.385   7.781  20.812  0.00  0.00    +0.000 A 
ATOM      7  C   UNL     1       0.864   9.062  20.555  0.00  0.00    +0.000 A 
ATOM      8 CL   UNL     1      -0.174   9.694  21.786  0.00  0.00    +0.000 Cl
ATOM      9  C   UNL     1       1.120   9.696  19.324  0.00  0.00    +0.000 A 
ATOM     10  C   UNL     1       1.872   9.010  18.350  0.00  0.00    +0.000 A 
ATOM     11  C   UNL     1       2.423   7.753  18.642  0.00  0.00    +0.000 A 
ATOM     12  C   UNL     1       3.353   7.100  17.702  0.00  0.00    +0.000 A 
ATOM     13  O   UNL     1       3.700   7.670  16.669  0.00  0.00    +0.000 OA
ATOM     14  H   UNL     1       2.623   5.465  21.064  0.00  0.00    +0.000 HD
ENDROOT
BRANCH   9  15
ATOM     15  N   UNL     1       0.707  11.024  19.030  0.00  0.00    +0.000 N 
ATOM     16  C   UNL     1       1.484  12.164  18.992  0.00  0.00    +0.000 A 
ATOM     17  C   UNL     1       0.652  13.189  18.608  0.00  0.00    +0.000 A 
ATOM     18  N   UNL     1      -0.609  12.723  18.380  0.00  0.00    +0.000 NA
ATOM     19  C   UNL     1      -0.546  11.432  18.622  0.00  0.00    +0.000 A 
ENDBRANCH   9  15
BRANCH   1  20
ATOM     20  N   UNL     1       4.890   5.299  17.165  0.00  0.00    +0.000 N 
ATOM     21  H   UNL     1       4.945   4.288  17.360  0.00  0.00    +0.000 HD
BRANCH  20  23
ATOM     22  C   UNL     1       7.439   4.508  17.006  0.00  0.00    +0.000 C 
ATOM     23  S   UNL     1       6.457   5.915  17.477  0.00  0.00    +0.000 S 
ATOM     24  O   UNL     1       6.551   6.069  18.914  0.00  0.00    +0.000 OA
ATOM     25  O   UNL     1       6.740   7.012  16.584  0.00  0.00    +0.000 OA
ENDBRANCH  20  23
ENDBRANCH   1  20
TORSDOF 3
ENDMDL
MODEL 6
REMARK VINA RESULT:      -6.8      4.071      7.593
REMARK  Name = 
REMARK  4 active torsions:
REMARK  status: ('A' for Active; 'I' for Inactive)
REMARK    1  A    between atoms: C_1  and  S_2
REMARK    2  A    between atoms: S_2  and  N_5
REMARK    3  A    between atoms: N_5  and  N_6
REMARK    4  A    between atoms: C_14  and  N_15
REMARK                            x       y       z     vdW  Elec       q    Type
REMARK                         _______ _______ _______ _____ _____    ______ ____
ROOT
ATOM      1  N   UNL     1       3.236   5.252  18.962  0.00  0.00    +0.000 N 
ATOM      2  C   UNL     1       3.544   5.795  17.714  0.00  0.00    +0.000 A 
ATOM      3  O   UNL     1       3.993   5.175  16.751  0.00  0.00    +0.000 OA
ATOM      4  N   UNL     1       3.218   7.126  17.557  0.00  0.00    +0.000 N 
ATOM      5  C   UNL     1       2.537   7.879  18.516  0.00  0.00    +0.000 A 
ATOM      6  C   UNL     1       2.146   9.185  18.228  0.00  0.00    +0.000 A 
ATOM      7  C   UNL     1       1.387   9.922  19.154  0.00  0.00    +0.000 A 
ATOM      8 CL   UNL     1       1.054  11.557  18.695  0.00  0.00    +0.000 Cl
ATOM      9  C   UNL     1       1.035   9.353  20.393  0.00  0.00    +0.000 A 
ATOM     10  C   UNL     1       1.488   8.055  20.697  0.00  0.00    +0.000 A 
ATOM     11  C   UNL     1       2.205   7.317  19.742  0.00  0.00    +0.000 A 
ATOM     12  C   UNL     1       2.535   5.900  19.977  0.00  0.00    +0.000 A 
ATOM     13  O   UNL     1       2.145   5.326  20.993  0.00  0.00    +0.000 OA
ATOM     14  H   UNL     1       3.429   7.511  16.643  0.00  0.00    +0.000 HD
ENDROOT
BRANCH   9  15
ATOM     15  N   UNL     1       0.193  10.001  21.337  0.00  0.00    +0.000 N 
ATOM     16  C   UNL     1      -0.749  10.982  21.100  0.00  0.00    +0.000 A 
ATOM     17  C   UNL     1      -1.345  11.249  22.310  0.00  0.00    +0.000 A 
ATOM     18  N   UNL     1      -0.825  10.452  23.287  0.00  0.00    +0.000 NA
ATOM     19  C   UNL     1       0.074   9.709  22.680  0.00  0.00    +0.000 A 
ENDBRANCH   9  15
BRANCH   1  20
ATOM     20  N   UNL     1       3.436   3.786  19.192  0.00  0.00    +0.000 N 
ATOM     21  H   UNL     1       4.308   3.526  18.706  0.00  0.00    +0.000 HD
BRANCH  20  23
ATOM     22  C   UNL     1       1.478   2.125  19.936  0.00  0.00    +0.000 C 
ATOM     23  S   UNL     1       2.207   2.833  18.476  0.00  0.00    +0.000 S 
ATOM     24  O   UNL     1       2.885   1.776  17.753  0.00  0.00    +0.000 OA
ATOM     25  O   UNL     1       1.240   3.685  17.828  0.00  0.00    +0.000 OA
ENDBRANCH  20  23
ENDBRANCH   1  20
TORSDOF 3
ENDMDL
MODEL 7
REMARK VINA RESULT:      -6.8      3.964      6.794
REMARK  Name = 
REMARK  4 active torsions:
REMARK  status: ('A' for Active; 'I' for Inactive)
REMARK    1  A    between atoms: C_1  and  S_2
REMARK    2  A    between atoms: S_2  and  N_5
REMARK    3  A    between atoms: N_5  and  N_6
REMARK    4  A    between atoms: C_14  and  N_15
REMARK                            x       y       z     vdW  Elec       q    Type
REMARK                         _______ _______ _______ _____ _____    ______ ____
ROOT
ATOM      1  N   UNL     1       4.672   4.966  17.801  0.00  0.00    +0.000 N 
ATOM      2  C   UNL     1       4.437   4.274  18.989  0.00  0.00    +0.000 A 
ATOM      3  O   UNL     1       5.045   3.275  19.371  0.00  0.00    +0.000 OA
ATOM      4  N   UNL     1       3.498   4.843  19.824  0.00  0.00    +0.000 N 
ATOM      5  C   UNL     1       2.881   6.071  19.579  0.00  0.00    +0.000 A 
ATOM      6  C   UNL     1       2.029   6.626  20.531  0.00  0.00    +0.000 A 
ATOM      7  C   UNL     1       1.470   7.901  20.332  0.00  0.00    +0.000 A 
ATOM      8 CL   UNL     1       0.363   8.418  21.557  0.00  0.00    +0.000 Cl
ATOM      9  C   UNL     1       1.748   8.618  19.152  0.00  0.00    +0.000 A 
ATOM     10  C   UNL     1       2.562   8.021  18.170  0.00  0.00    +0.000 A 
ATOM     11  C   UNL     1       3.148   6.768  18.407  0.00  0.00    +0.000 A 
ATOM     12  C   UNL     1       4.137   6.208  17.468  0.00  0.00    +0.000 A 
ATOM     13  O   UNL     1       4.501   6.852  16.485  0.00  0.00    +0.000 OA
ATOM     14  H   UNL     1       3.343   4.344  20.693  0.00  0.00    +0.000 HD
ENDROOT
BRANCH   9  15
ATOM     15  N   UNL     1       1.297   9.946  18.923  0.00  0.00    +0.000 N 
ATOM     16  C   UNL     1       2.022  11.015  18.437  0.00  0.00    +0.000 A 
ATOM     17  C   UNL     1       1.143  12.068  18.336  0.00  0.00    +0.000 A 
ATOM     18  N   UNL     1      -0.109  11.685  18.718  0.00  0.00    +0.000 NA
ATOM     19  C   UNL     1       0.006  10.417  19.045  0.00  0.00    +0.000 A 
ENDBRANCH   9  15
BRANCH   1  20
ATOM     20  N   UNL     1       5.760   4.499  16.884  0.00  0.00    +0.000 N 
ATOM     21  H   UNL     1       5.861   3.484  17.037  0.00  0.00    +0.000 HD
BRANCH  20  23
ATOM     22  C   UNL     1       6.902   5.903  18.852  0.00  0.00    +0.000 C 
ATOM     23  S   UNL     1       7.283   5.178  17.272  0.00  0.00    +0.000 S 
ATOM     24  O   UNL     1       7.499   6.253  16.325  0.00  0.00    +0.000 OA
ATOM     25  O   UNL     1       8.257   4.130  17.453  0.00  0.00    +0.000 OA
ENDBRANCH  20  23
ENDBRANCH   1  20
TORSDOF 3
ENDMDL
MODEL 8
REMARK VINA RESULT:      -6.8      1.796      2.144
REMARK  Name = 
REMARK  4 active torsions:
REMARK  status: ('A' for Active; 'I' for Inactive)
REMARK    1  A    between atoms: C_1  and  S_2
REMARK    2  A    between atoms: S_2  and  N_5
REMARK    3  A    between atoms: N_5  and  N_6
REMARK    4  A    between atoms: C_14  and  N_15
REMARK                            x       y       z     vdW  Elec       q    Type
REMARK                         _______ _______ _______ _____ _____    ______ ____
ROOT
ATOM      1  N   UNL     1       0.794  10.594  19.238  0.00  0.00    +0.000 N 
ATOM      2  C   UNL     1       0.135  10.318  20.436  0.00  0.00    +0.000 A 
ATOM      3  O   UNL     1      -0.720  11.027  20.966  0.00  0.00    +0.000 OA
ATOM      4  N   UNL     1       0.426   9.093  20.998  0.00  0.00    +0.000 N 
ATOM      5  C   UNL     1       1.237   8.131  20.391  0.00  0.00    +0.000 A 
ATOM      6  C   UNL     1       1.386   6.875  20.975  0.00  0.00    +0.000 A 
ATOM      7  C   UNL     1       2.131   5.873  20.329  0.00  0.00    +0.000 A 
ATOM      8 CL   UNL     1       2.302   4.398  21.217  0.00  0.00    +0.000 Cl
ATOM      9  C   UNL     1       2.755   6.140  19.096  0.00  0.00    +0.000 A 
ATOM     10  C   UNL     1       2.647   7.431  18.545  0.00  0.00    +0.000 A 
ATOM     11  C   UNL     1       1.862   8.405  19.180  0.00  0.00    +0.000 A 
ATOM     12  C   UNL     1       1.598   9.703  18.532  0.00  0.00    +0.000 A 
ATOM     13  O   UNL     1       2.023   9.935  17.401  0.00  0.00    +0.000 OA
ATOM     14  H   UNL     1      -0.069   8.891  21.860  0.00  0.00    +0.000 HD
ENDROOT
BRANCH   9  15
ATOM     15  N   UNL     1       3.444   5.152  18.341  0.00  0.00    +0.000 N 
ATOM     16  C   UNL     1       2.903   4.112  17.612  0.00  0.00    +0.000 A 
ATOM     17  C   UNL     1       3.958   3.465  17.014  0.00  0.00    +0.000 A 
ATOM     18  N   UNL     1       5.136   4.080  17.324  0.00  0.00    +0.000 NA
ATOM     19  C   UNL     1       4.801   5.088  18.099  0.00  0.00    +0.000 A 
ENDBRANCH   9  15
BRANCH   1  20
ATOM     20  N   UNL     1       0.453  11.844  18.486  0.00  0.00    +0.000 N 
ATOM     21  H   UNL     1       0.637  11.649  17.490  0.00  0.00    +0.000 HD
BRANCH  20  23
ATOM     22  C   UNL     1       0.268  14.466  18.971  0.00  0.00    +0.000 C 
ATOM     23  S   UNL     1       1.471  13.157  18.897  0.00  0.00    +0.000 S 
ATOM     24  O   UNL     1       2.317  13.389  17.743  0.00  0.00    +0.000 OA
ATOM     25  O   UNL     1       2.031  12.952  20.210  0.00  0.00    +0.000 OA
ENDBRANCH  20  23
ENDBRANCH   1  20
TORSDOF 3
ENDMDL
MODEL 9
REMARK VINA RESULT:      -6.7      3.950      7.001
REMARK  Name = 
REMARK  4 active torsions:
REMARK  status: ('A' for Active; 'I' for Inactive)
REMARK    1  A    between atoms: C_1  and  S_2
REMARK    2  A    between atoms: S_2  and  N_5
REMARK    3  A    between atoms: N_5  and  N_6
REMARK    4  A    between atoms: C_14  and  N_15
REMARK                            x       y       z     vdW  Elec       q    Type
REMARK                         _______ _______ _______ _____ _____    ______ ____
ROOT
ATOM      1  N   UNL     1       2.845   5.811  19.286  0.00  0.00    +0.000 N 
ATOM      2  C   UNL     1       2.378   5.427  20.543  0.00  0.00    +0.000 A 
ATOM      3  O   UNL     1       2.690   4.399  21.142  0.00  0.00    +0.000 OA
ATOM      4  N   UNL     1       1.571   6.349  21.177  0.00  0.00    +0.000 N 
ATOM      5  C   UNL     1       1.302   7.624  20.673  0.00  0.00    +0.000 A 
ATOM      6  C   UNL     1       0.570   8.533  21.433  0.00  0.00    +0.000 A 
ATOM      7  C   UNL     1       0.365   9.845  20.973  0.00  0.00    +0.000 A 
ATOM      8 CL   UNL     1      -0.638  10.831  21.981  0.00  0.00    +0.000 Cl
ATOM      9  C   UNL     1       0.880  10.245  19.725  0.00  0.00    +0.000 A 
ATOM     10  C   UNL     1       1.567   9.299  18.939  0.00  0.00    +0.000 A 
ATOM     11  C   UNL     1       1.801   8.008  19.434  0.00  0.00    +0.000 A 
ATOM     12  C   UNL     1       2.663   7.063  18.702  0.00  0.00    +0.000 A 
ATOM     13  O   UNL     1       3.232   7.409  17.667  0.00  0.00    +0.000 OA
ATOM     14  H   UNL     1       1.249   6.071  22.097  0.00  0.00    +0.000 HD
ENDROOT
BRANCH   9  15
ATOM     15  N   UNL     1       0.795  11.577  19.236  0.00  0.00    +0.000 N 
ATOM     16  C   UNL     1       1.809  12.508  19.131  0.00  0.00    +0.000 A 
ATOM     17  C   UNL     1       1.254  13.624  18.552  0.00  0.00    +0.000 A 
ATOM     18  N   UNL     1      -0.064  13.413  18.270  0.00  0.00    +0.000 NA
ATOM     19  C   UNL     1      -0.307  12.185  18.671  0.00  0.00    +0.000 A 
ENDBRANCH   9  15
BRANCH   1  20
ATOM     20  N   UNL     1       3.827   4.936  18.570  0.00  0.00    +0.000 N 
ATOM     21  H   UNL     1       4.392   5.554  17.969  0.00  0.00    +0.000 HD
BRANCH  20  23
ATOM     22  C   UNL     1       3.339   2.312  18.403  0.00  0.00    +0.000 C 
ATOM     23  S   UNL     1       3.068   3.827  17.509  0.00  0.00    +0.000 S 
ATOM     24  O   UNL     1       3.882   3.793  16.311  0.00  0.00    +0.000 OA
ATOM     25  O   UNL     1       1.652   4.095  17.449  0.00  0.00    +0.000 OA
ENDBRANCH  20  23
ENDBRANCH   1  20
TORSDOF 3
ENDMDL
