MODEL 1
REMARK VINA RESULT:      -7.4      0.000      0.000
REMARK  Name = 
REMARK  6 active torsions:
REMARK  status: ('A' for Active; 'I' for Inactive)
REMARK    1  A    between atoms: C_1  and  O_2
REMARK    2  A    between atoms: O_2  and  C_3
REMARK    3  A    between atoms: C_7  and  N_8
REMARK    4  A    between atoms: N_8  and  C_9
REMARK    5  A    between atoms: C_9  and  C_10
REMARK    6  A    between atoms: C_16  and  C_17
REMARK                            x       y       z     vdW  Elec       q    Type
REMARK                         _______ _______ _______ _____ _____    ______ ____
ROOT
ATOM      1  N   UNL     1       3.499   4.343  17.489  0.00  0.00    +0.000 NA
ATOM      2  H   UNL     1       3.382   5.133  16.851  0.00  0.00    +0.000 HD
ENDROOT
BRANCH   1   7
ATOM      3  C   UNL     1       2.244   4.007  20.813  0.00  0.00    +0.000 C 
ATOM      4  C   UNL     1       3.026   2.789  20.290  0.00  0.00    +0.000 C 
ATOM      5  C   UNL     1       2.128   2.081  19.259  0.00  0.00    +0.000 C 
ATOM      6  C   UNL     1       2.682   1.972  17.846  0.00  0.00    +0.000 C 
ATOM      7  C   UNL     1       2.464   3.349  17.208  0.00  0.00    +0.000 C 
ATOM      8  C   UNL     1       1.130   3.811  17.840  0.00  0.00    +0.000 C 
ATOM      9  C   UNL     1       0.889   2.957  19.103  0.00  0.00    +0.000 C 
ATOM     10  C   UNL     1       0.796   3.709  20.428  0.00  0.00    +0.000 C 
BRANCH   3  12
ATOM     11  C   UNL     1       1.748   6.333  20.540  0.00  0.00    +0.000 C 
ATOM     12  O   UNL     1       2.596   5.247  20.208  0.00  0.00    +0.000 OA
ENDBRANCH   3  12
ENDBRANCH   1   7
BRANCH   1  13
ATOM     13  C   UNL     1       4.888   3.887  17.425  0.00  0.00    +0.000 C 
BRANCH  13  14
ATOM     14  C   UNL     1       5.769   4.454  18.545  0.00  0.00    +0.000 C 
ATOM     15  O   UNL     1       5.837   3.909  19.649  0.00  0.00    +0.000 OA
ATOM     16  N   UNL     1       6.533   5.565  18.248  0.00  0.00    +0.000 N 
ATOM     17  C   UNL     1       7.488   6.091  19.209  0.00  0.00    +0.000 C 
ATOM     18  C   UNL     1       8.289   7.115  18.421  0.00  0.00    +0.000 C 
ATOM     19  C   UNL     1       7.250   7.670  17.453  0.00  0.00    +0.000 C 
ATOM     20  C   UNL     1       6.432   6.432  17.068  0.00  0.00    +0.000 C 
BRANCH  20  21
ATOM     21  C   UNL     1       6.977   5.799  15.848  0.00  0.00    +0.000 C 
ATOM     22  N   UNL     1       7.419   5.319  14.890  0.00  0.00    +0.000 NA
ENDBRANCH  20  21
ENDBRANCH  13  14
ENDBRANCH   1  13
TORSDOF 5
ENDMDL
MODEL 2
REMARK VINA RESULT:      -7.0      1.920      3.201
REMARK  Name = 
REMARK  6 active torsions:
REMARK  status: ('A' for Active; 'I' for Inactive)
REMARK    1  A    between atoms: C_1  and  O_2
REMARK    2  A    between atoms: O_2  and  C_3
REMARK    3  A    between atoms: C_7  and  N_8
REMARK    4  A    between atoms: N_8  and  C_9
REMARK    5  A    between atoms: C_9  and  C_10
REMARK    6  A    between atoms: C_16  and  C_17
REMARK                            x       y       z     vdW  Elec       q    Type
REMARK                         _______ _______ _______ _____ _____    ______ ____
ROOT
ATOM      1  N   UNL     1       4.027   5.157  19.423  0.00  0.00    +0.000 NA
ATOM      2  H   UNL     1       4.246   4.921  20.393  0.00  0.00    +0.000 HD
ENDROOT
BRANCH   1   7
ATOM      3  C   UNL     1       2.331   2.100  20.145  0.00  0.00    +0.000 C 
ATOM      4  C   UNL     1       2.186   2.596  18.695  0.00  0.00    +0.000 C 
ATOM      5  C   UNL     1       1.233   3.804  18.720  0.00  0.00    +0.000 C 
ATOM      6  C   UNL     1       1.802   5.121  18.213  0.00  0.00    +0.000 C 
ATOM      7  C   UNL     1       2.659   5.672  19.358  0.00  0.00    +0.000 C 
ATOM      8  C   UNL     1       1.883   5.215  20.616  0.00  0.00    +0.000 C 
ATOM      9  C   UNL     1       0.931   4.076  20.192  0.00  0.00    +0.000 C 
ATOM     10  C   UNL     1       1.139   2.724  20.869  0.00  0.00    +0.000 C 
BRANCH   3  12
ATOM     11  C   UNL     1       4.700   1.881  20.418  0.00  0.00    +0.000 C 
ATOM     12  O   UNL     1       3.509   2.544  20.811  0.00  0.00    +0.000 OA
ENDBRANCH   3  12
ENDBRANCH   1   7
BRANCH   1  13
ATOM     13  C   UNL     1       5.083   6.023  18.898  0.00  0.00    +0.000 C 
BRANCH  13  14
ATOM     14  C   UNL     1       4.875   6.418  17.431  0.00  0.00    +0.000 C 
ATOM     15  O   UNL     1       4.287   7.456  17.120  0.00  0.00    +0.000 OA
ATOM     16  N   UNL     1       5.430   5.595  16.469  0.00  0.00    +0.000 N 
ATOM     17  C   UNL     1       5.389   5.961  15.064  0.00  0.00    +0.000 C 
ATOM     18  C   UNL     1       6.313   4.960  14.388  0.00  0.00    +0.000 C 
ATOM     19  C   UNL     1       6.105   3.704  15.227  0.00  0.00    +0.000 C 
ATOM     20  C   UNL     1       5.988   4.251  16.654  0.00  0.00    +0.000 C 
BRANCH  20  21
ATOM     21  C   UNL     1       7.308   4.269  17.321  0.00  0.00    +0.000 C 
ATOM     22  N   UNL     1       8.349   4.269  17.831  0.00  0.00    +0.000 NA
ENDBRANCH  20  21
ENDBRANCH  13  14
ENDBRANCH   1  13
TORSDOF 5
ENDMDL
MODEL 3
REMARK VINA RESULT:      -6.9      3.010      5.690
REMARK  Name = 
REMARK  6 active torsions:
REMARK  status: ('A' for Active; 'I' for Inactive)
REMARK    1  A    between atoms: C_1  and  O_2
REMARK    2  A    between atoms: O_2  and  C_3
REMARK    3  A    between atoms: C_7  and  N_8
REMARK    4  A    between atoms: N_8  and  C_9
REMARK    5  A    between atoms: C_9  and  C_10
REMARK    6  A    between atoms: C_16  and  C_17
REMARK                            x       y       z     vdW  Elec       q    Type
REMARK                         _______ _______ _______ _____ _____    ______ ____
ROOT
ATOM      1  N   UNL     1       2.980   5.377  20.243  0.00  0.00    +0.000 NA
ATOM      2  H   UNL     1       3.949   5.386  20.571  0.00  0.00    +0.000 HD
ENDROOT
BRANCH   1   7
ATOM      3  C   UNL     1       2.825   3.369  17.296  0.00  0.00    +0.000 C 
ATOM      4  C   UNL     1       1.474   3.938  17.765  0.00  0.00    +0.000 C 
ATOM      5  C   UNL     1       1.060   3.153  19.022  0.00  0.00    +0.000 C 
ATOM      6  C   UNL     1       0.878   3.966  20.296  0.00  0.00    +0.000 C 
ATOM      7  C   UNL     1       2.292   4.227  20.827  0.00  0.00    +0.000 C 
ATOM      8  C   UNL     1       3.046   2.933  20.440  0.00  0.00    +0.000 C 
ATOM      9  C   UNL     1       2.225   2.221  19.343  0.00  0.00    +0.000 C 
ATOM     10  C   UNL     1       2.917   2.015  17.998  0.00  0.00    +0.000 C 
BRANCH   3  12
ATOM     11  C   UNL     1       4.773   4.587  16.625  0.00  0.00    +0.000 C 
ATOM     12  O   UNL     1       3.961   4.130  17.693  0.00  0.00    +0.000 OA
ENDBRANCH   3  12
ENDBRANCH   1   7
BRANCH   1  13
ATOM     13  C   UNL     1       2.389   6.694  20.486  0.00  0.00    +0.000 C 
BRANCH  13  14
ATOM     14  C   UNL     1       2.190   7.518  19.208  0.00  0.00    +0.000 C 
ATOM     15  O   UNL     1       2.565   7.102  18.109  0.00  0.00    +0.000 OA
ATOM     16  N   UNL     1       1.515   8.717  19.326  0.00  0.00    +0.000 N 
ATOM     17  C   UNL     1       1.173   9.498  18.150  0.00  0.00    +0.000 C 
ATOM     18  C   UNL     1       0.231  10.572  18.673  0.00  0.00    +0.000 C 
ATOM     19  C   UNL     1       0.776  10.832  20.073  0.00  0.00    +0.000 C 
ATOM     20  C   UNL     1       1.173   9.434  20.560  0.00  0.00    +0.000 C 
BRANCH  20  21
ATOM     21  C   UNL     1       0.061   8.797  21.298  0.00  0.00    +0.000 C 
ATOM     22  N   UNL     1      -0.809   8.281  21.865  0.00  0.00    +0.000 NA
ENDBRANCH  20  21
ENDBRANCH  13  14
ENDBRANCH   1  13
TORSDOF 5
ENDMDL
MODEL 4
REMARK VINA RESULT:      -6.8      1.873      5.813
REMARK  Name = 
REMARK  6 active torsions:
REMARK  status: ('A' for Active; 'I' for Inactive)
REMARK    1  A    between atoms: C_1  and  O_2
REMARK    2  A    between atoms: O_2  and  C_3
REMARK    3  A    between atoms: C_7  and  N_8
REMARK    4  A    between atoms: N_8  and  C_9
REMARK    5  A    between atoms: C_9  and  C_10
REMARK    6  A    between atoms: C_16  and  C_17
REMARK                            x       y       z     vdW  Elec       q    Type
REMARK                         _______ _______ _______ _____ _____    ______ ____
ROOT
ATOM      1  N   UNL     1       5.163   3.437  17.188  0.00  0.00    +0.000 NA
ATOM      2  H   UNL     1       5.647   2.666  17.654  0.00  0.00    +0.000 HD
ENDROOT
BRANCH   1   7
ATOM      3  C   UNL     1       6.179   6.821  17.691  0.00  0.00    +0.000 C 
ATOM      4  C   UNL     1       5.015   6.634  16.702  0.00  0.00    +0.000 C 
ATOM      5  C   UNL     1       5.605   6.039  15.411  0.00  0.00    +0.000 C 
ATOM      6  C   UNL     1       5.064   4.682  14.986  0.00  0.00    +0.000 C 
ATOM      7  C   UNL     1       5.771   3.656  15.877  0.00  0.00    +0.000 C 
ATOM      8  C   UNL     1       7.176   4.275  16.064  0.00  0.00    +0.000 C 
ATOM      9  C   UNL     1       7.079   5.773  15.702  0.00  0.00    +0.000 C 
ATOM     10  C   UNL     1       7.425   6.766  16.809  0.00  0.00    +0.000 C 
BRANCH   3  12
ATOM     11  C   UNL     1       7.541   5.776  19.360  0.00  0.00    +0.000 C 
ATOM     12  O   UNL     1       6.305   5.790  18.665  0.00  0.00    +0.000 OA
ENDBRANCH   3  12
ENDBRANCH   1   7
BRANCH   1  13
ATOM     13  C   UNL     1       3.723   3.173  17.214  0.00  0.00    +0.000 C 
BRANCH  13  14
ATOM     14  C   UNL     1       3.295   2.239  18.352  0.00  0.00    +0.000 C 
ATOM     15  O   UNL     1       3.750   1.097  18.455  0.00  0.00    +0.000 OA
ATOM     16  N   UNL     1       2.426   2.749  19.296  0.00  0.00    +0.000 N 
ATOM     17  C   UNL     1       2.068   1.976  20.474  0.00  0.00    +0.000 C 
ATOM     18  C   UNL     1       1.332   2.966  21.363  0.00  0.00    +0.000 C 
ATOM     19  C   UNL     1       0.624   3.855  20.348  0.00  0.00    +0.000 C 
ATOM     20  C   UNL     1       1.657   3.997  19.224  0.00  0.00    +0.000 C 
BRANCH  20  21
ATOM     21  C   UNL     1       2.498   5.196  19.430  0.00  0.00    +0.000 C 
ATOM     22  N   UNL     1       3.172   6.128  19.578  0.00  0.00    +0.000 NA
ENDBRANCH  20  21
ENDBRANCH  13  14
ENDBRANCH   1  13
TORSDOF 5
ENDMDL
MODEL 5
REMARK VINA RESULT:      -6.8      2.077      5.769
REMARK  Name = 
REMARK  6 active torsions:
REMARK  status: ('A' for Active; 'I' for Inactive)
REMARK    1  A    between atoms: C_1  and  O_2
REMARK    2  A    between atoms: O_2  and  C_3
REMARK    3  A    between atoms: C_7  and  N_8
REMARK    4  A    between atoms: N_8  and  C_9
REMARK    5  A    between atoms: C_9  and  C_10
REMARK    6  A    between atoms: C_16  and  C_17
REMARK                            x       y       z     vdW  Elec       q    Type
REMARK                         _______ _______ _______ _____ _____    ______ ____
ROOT
ATOM      1  N   UNL     1       4.441   3.667  16.340  0.00  0.00    +0.000 NA
ATOM      2  H   UNL     1       4.116   4.626  16.484  0.00  0.00    +0.000 HD
ENDROOT
BRANCH   1   7
ATOM      3  C   UNL     1       5.168   7.060  17.179  0.00  0.00    +0.000 C 
ATOM      4  C   UNL     1       5.030   6.780  15.672  0.00  0.00    +0.000 C 
ATOM      5  C   UNL     1       6.290   6.010  15.235  0.00  0.00    +0.000 C 
ATOM      6  C   UNL     1       6.063   4.625  14.647  0.00  0.00    +0.000 C 
ATOM      7  C   UNL     1       5.816   3.701  15.845  0.00  0.00    +0.000 C 
ATOM      8  C   UNL     1       6.735   4.302  16.935  0.00  0.00    +0.000 C 
ATOM      9  C   UNL     1       7.087   5.743  16.509  0.00  0.00    +0.000 C 
ATOM     10  C   UNL     1       6.657   6.860  17.457  0.00  0.00    +0.000 C 
BRANCH   3  12
ATOM     11  C   UNL     1       3.147   6.577  18.369  0.00  0.00    +0.000 C 
ATOM     12  O   UNL     1       4.456   6.158  18.020  0.00  0.00    +0.000 OA
ENDBRANCH   3  12
ENDBRANCH   1   7
BRANCH   1  13
ATOM     13  C   UNL     1       4.197   2.899  17.562  0.00  0.00    +0.000 C 
BRANCH  13  14
ATOM     14  C   UNL     1       2.718   2.847  17.965  0.00  0.00    +0.000 C 
ATOM     15  O   UNL     1       1.831   2.641  17.134  0.00  0.00    +0.000 OA
ATOM     16  N   UNL     1       2.423   2.978  19.308  0.00  0.00    +0.000 N 
ATOM     17  C   UNL     1       1.062   2.816  19.790  0.00  0.00    +0.000 C 
ATOM     18  C   UNL     1       1.203   2.770  21.304  0.00  0.00    +0.000 C 
ATOM     19  C   UNL     1       2.377   3.711  21.552  0.00  0.00    +0.000 C 
ATOM     20  C   UNL     1       3.323   3.409  20.384  0.00  0.00    +0.000 C 
BRANCH  20  21
ATOM     21  C   UNL     1       4.303   2.366  20.757  0.00  0.00    +0.000 C 
ATOM     22  N   UNL     1       5.087   1.562  21.044  0.00  0.00    +0.000 NA
ENDBRANCH  20  21
ENDBRANCH  13  14
ENDBRANCH   1  13
TORSDOF 5
ENDMDL
MODEL 6
REMARK VINA RESULT:      -6.7      1.288      1.895
REMARK  Name = 
REMARK  6 active torsions:
REMARK  status: ('A' for Active; 'I' for Inactive)
REMARK    1  A    between atoms: C_1  and  O_2
REMARK    2  A    between atoms: O_2  and  C_3
REMARK    3  A    between atoms: C_7  and  N_8
REMARK    4  A    between atoms: N_8  and  C_9
REMARK    5  A    between atoms: C_9  and  C_10
REMARK    6  A    between atoms: C_16  and  C_17
REMARK                            x       y       z     vdW  Elec       q    Type
REMARK                         _______ _______ _______ _____ _____    ______ ____
ROOT
ATOM      1  N   UNL     1       4.527   4.627  19.161  0.00  0.00    +0.000 NA
ATOM      2  H   UNL     1       4.541   5.359  19.875  0.00  0.00    +0.000 HD
ENDROOT
BRANCH   1   7
ATOM      3  C   UNL     1       2.152   1.993  19.562  0.00  0.00    +0.000 C 
ATOM      4  C   UNL     1       3.006   1.907  18.285  0.00  0.00    +0.000 C 
ATOM      5  C   UNL     1       2.501   2.999  17.325  0.00  0.00    +0.000 C 
ATOM      6  C   UNL     1       3.516   4.054  16.910  0.00  0.00    +0.000 C 
ATOM      7  C   UNL     1       3.611   5.025  18.092  0.00  0.00    +0.000 C 
ATOM      8  C   UNL     1       2.165   5.038  18.641  0.00  0.00    +0.000 C 
ATOM      9  C   UNL     1       1.445   3.786  18.096  0.00  0.00    +0.000 C 
ATOM     10  C   UNL     1       0.924   2.793  19.131  0.00  0.00    +0.000 C 
BRANCH   3  12
ATOM     11  C   UNL     1       1.901   2.970  21.734  0.00  0.00    +0.000 C 
ATOM     12  O   UNL     1       2.760   2.700  20.639  0.00  0.00    +0.000 OA
ENDBRANCH   3  12
ENDBRANCH   1   7
BRANCH   1  13
ATOM     13  C   UNL     1       5.904   4.323  18.771  0.00  0.00    +0.000 C 
BRANCH  13  14
ATOM     14  C   UNL     1       6.924   5.349  19.282  0.00  0.00    +0.000 C 
ATOM     15  O   UNL     1       7.552   5.167  20.327  0.00  0.00    +0.000 OA
ATOM     16  N   UNL     1       7.158   6.457  18.491  0.00  0.00    +0.000 N 
ATOM     17  C   UNL     1       8.196   7.413  18.837  0.00  0.00    +0.000 C 
ATOM     18  C   UNL     1       8.308   8.306  17.611  0.00  0.00    +0.000 C 
ATOM     19  C   UNL     1       6.872   8.345  17.101  0.00  0.00    +0.000 C 
ATOM     20  C   UNL     1       6.377   6.913  17.335  0.00  0.00    +0.000 C 
BRANCH  20  21
ATOM     21  C   UNL     1       6.597   6.077  16.135  0.00  0.00    +0.000 C 
ATOM     22  N   UNL     1       6.756   5.408  15.201  0.00  0.00    +0.000 NA
ENDBRANCH  20  21
ENDBRANCH  13  14
ENDBRANCH   1  13
TORSDOF 5
ENDMDL
MODEL 7
REMARK VINA RESULT:      -6.7      1.830      5.563
REMARK  Name = 
REMARK  6 active torsions:
REMARK  status: ('A' for Active; 'I' for Inactive)
REMARK    1  A    between atoms: C_1  and  O_2
REMARK    2  A    between atoms: O_2  and  C_3
REMARK    3  A    between atoms: C_7  and  N_8
REMARK    4  A    between atoms: N_8  and  C_9
REMARK    5  A    between atoms: C_9  and  C_10
REMARK    6  A    between atoms: C_16  and  C_17
REMARK                            x       y       z     vdW  Elec       q    Type
REMARK                         _______ _______ _______ _____ _____    ______ ____
ROOT
ATOM      1  N   UNL     1       4.554   3.497  17.032  0.00  0.00    +0.000 NA
ATOM      2  H   UNL     1       4.604   4.278  17.690  0.00  0.00    +0.000 HD
ENDROOT
BRANCH   1   7
ATOM      3  C   UNL     1       5.353   6.941  17.525  0.00  0.00    +0.000 C 
ATOM      4  C   UNL     1       4.766   6.603  16.143  0.00  0.00    +0.000 C 
ATOM      5  C   UNL     1       5.860   5.864  15.352  0.00  0.00    +0.000 C 
ATOM      6  C   UNL     1       5.524   4.452  14.896  0.00  0.00    +0.000 C 
ATOM      7  C   UNL     1       5.704   3.563  16.131  0.00  0.00    +0.000 C 
ATOM      8  C   UNL     1       6.889   4.234  16.865  0.00  0.00    +0.000 C 
ATOM      9  C   UNL     1       7.026   5.671  16.319  0.00  0.00    +0.000 C 
ATOM     10  C   UNL     1       6.862   6.804  17.329  0.00  0.00    +0.000 C 
BRANCH   3  12
ATOM     11  C   UNL     1       3.668   6.231  19.070  0.00  0.00    +0.000 C 
ATOM     12  O   UNL     1       4.979   6.044  18.567  0.00  0.00    +0.000 OA
ENDBRANCH   3  12
ENDBRANCH   1   7
BRANCH   1  13
ATOM     13  C   UNL     1       4.375   2.255  17.784  0.00  0.00    +0.000 C 
BRANCH  13  14
ATOM     14  C   UNL     1       4.220   2.475  19.295  0.00  0.00    +0.000 C 
ATOM     15  O   UNL     1       5.199   2.513  20.044  0.00  0.00    +0.000 OA
ATOM     16  N   UNL     1       2.943   2.693  19.775  0.00  0.00    +0.000 N 
ATOM     17  C   UNL     1       2.721   3.034  21.170  0.00  0.00    +0.000 C 
ATOM     18  C   UNL     1       1.258   3.443  21.227  0.00  0.00    +0.000 C 
ATOM     19  C   UNL     1       0.622   2.537  20.179  0.00  0.00    +0.000 C 
ATOM     20  C   UNL     1       1.674   2.498  19.064  0.00  0.00    +0.000 C 
BRANCH  20  21
ATOM     21  C   UNL     1       1.417   3.552  18.060  0.00  0.00    +0.000 C 
ATOM     22  N   UNL     1       1.236   4.381  17.269  0.00  0.00    +0.000 NA
ENDBRANCH  20  21
ENDBRANCH  13  14
ENDBRANCH   1  13
TORSDOF 5
ENDMDL
MODEL 8
REMARK VINA RESULT:      -6.7      2.100      6.155
REMARK  Name = 
REMARK  6 active torsions:
REMARK  status: ('A' for Active; 'I' for Inactive)
REMARK    1  A    between atoms: C_1  and  O_2
REMARK    2  A    between atoms: O_2  and  C_3
REMARK    3  A    between atoms: C_7  and  N_8
REMARK    4  A    between atoms: N_8  and  C_9
REMARK    5  A    between atoms: C_9  and  C_10
REMARK    6  A    between atoms: C_16  and  C_17
REMARK                            x       y       z     vdW  Elec       q    Type
REMARK                         _______ _______ _______ _____ _____    ______ ____
ROOT
ATOM      1  N   UNL     1       4.062   4.966  17.072  0.00  0.00    +0.000 NA
ATOM      2  H   UNL     1       3.219   5.355  16.643  0.00  0.00    +0.000 HD
ENDROOT
BRANCH   1   7
ATOM      3  C   UNL     1       7.393   5.237  15.820  0.00  0.00    +0.000 C 
ATOM      4  C   UNL     1       7.262   4.483  17.156  0.00  0.00    +0.000 C 
ATOM      5  C   UNL     1       6.966   5.532  18.243  0.00  0.00    +0.000 C 
ATOM      6  C   UNL     1       5.656   5.367  18.999  0.00  0.00    +0.000 C 
ATOM      7  C   UNL     1       4.568   5.911  18.066  0.00  0.00    +0.000 C 
ATOM      8  C   UNL     1       5.288   7.074  17.342  0.00  0.00    +0.000 C 
ATOM      9  C   UNL     1       6.808   6.864  17.516  0.00  0.00    +0.000 C 
ATOM     10  C   UNL     1       7.623   6.689  16.238  0.00  0.00    +0.000 C 
BRANCH   3  12
ATOM     11  C   UNL     1       6.069   4.035  14.229  0.00  0.00    +0.000 C 
ATOM     12  O   UNL     1       6.227   5.211  15.004  0.00  0.00    +0.000 OA
ENDBRANCH   3  12
ENDBRANCH   1   7
BRANCH   1  13
ATOM     13  C   UNL     1       3.770   3.610  17.538  0.00  0.00    +0.000 C 
BRANCH  13  14
ATOM     14  C   UNL     1       2.340   3.440  18.064  0.00  0.00    +0.000 C 
ATOM     15  O   UNL     1       1.373   3.395  17.299  0.00  0.00    +0.000 OA
ATOM     16  N   UNL     1       2.181   3.274  19.426  0.00  0.00    +0.000 N 
ATOM     17  C   UNL     1       0.876   2.982  19.993  0.00  0.00    +0.000 C 
ATOM     18  C   UNL     1       1.169   2.617  21.441  0.00  0.00    +0.000 C 
ATOM     19  C   UNL     1       2.360   3.510  21.769  0.00  0.00    +0.000 C 
ATOM     20  C   UNL     1       3.184   3.485  20.476  0.00  0.00    +0.000 C 
BRANCH  20  21
ATOM     21  C   UNL     1       4.198   2.410  20.519  0.00  0.00    +0.000 C 
ATOM     22  N   UNL     1       5.008   1.580  20.543  0.00  0.00    +0.000 NA
ENDBRANCH  20  21
ENDBRANCH  13  14
ENDBRANCH   1  13
TORSDOF 5
ENDMDL
MODEL 9
REMARK VINA RESULT:      -6.5      1.933      2.735
REMARK  Name = 
REMARK  6 active torsions:
REMARK  status: ('A' for Active; 'I' for Inactive)
REMARK    1  A    between atoms: C_1  and  O_2
REMARK    2  A    between atoms: O_2  and  C_3
REMARK    3  A    between atoms: C_7  and  N_8
REMARK    4  A    between atoms: N_8  and  C_9
REMARK    5  A    between atoms: C_9  and  C_10
REMARK    6  A    between atoms: C_16  and  C_17
REMARK                            x       y       z     vdW  Elec       q    Type
REMARK                         _______ _______ _______ _____ _____    ______ ____
ROOT
ATOM      1  N   UNL     1       4.178   4.772  19.559  0.00  0.00    +0.000 NA
ATOM      2  H   UNL     1       3.258   5.127  19.290  0.00  0.00    +0.000 HD
ENDROOT
BRANCH   1   7
ATOM      3  C   UNL     1       0.874   3.767  20.460  0.00  0.00    +0.000 C 
ATOM      4  C   UNL     1       1.990   3.201  21.355  0.00  0.00    +0.000 C 
ATOM      5  C   UNL     1       2.721   2.118  20.541  0.00  0.00    +0.000 C 
ATOM      6  C   UNL     1       4.205   2.348  20.294  0.00  0.00    +0.000 C 
ATOM      7  C   UNL     1       4.282   3.370  19.155  0.00  0.00    +0.000 C 
ATOM      8  C   UNL     1       3.060   3.001  18.280  0.00  0.00    +0.000 C 
ATOM      9  C   UNL     1       2.106   2.149  19.145  0.00  0.00    +0.000 C 
ATOM     10  C   UNL     1       0.704   2.711  19.369  0.00  0.00    +0.000 C 
BRANCH   3  12
ATOM     11  C   UNL     1       1.510   6.064  20.690  0.00  0.00    +0.000 C 
ATOM     12  O   UNL     1       1.193   4.995  19.814  0.00  0.00    +0.000 OA
ENDBRANCH   3  12
ENDBRANCH   1   7
BRANCH   1  13
ATOM     13  C   UNL     1       5.203   5.684  19.050  0.00  0.00    +0.000 C 
BRANCH  13  14
ATOM     14  C   UNL     1       4.905   6.210  17.640  0.00  0.00    +0.000 C 
ATOM     15  O   UNL     1       4.245   7.236  17.462  0.00  0.00    +0.000 OA
ATOM     16  N   UNL     1       5.461   5.524  16.578  0.00  0.00    +0.000 N 
ATOM     17  C   UNL     1       5.334   6.025  15.220  0.00  0.00    +0.000 C 
ATOM     18  C   UNL     1       6.281   5.155  14.409  0.00  0.00    +0.000 C 
ATOM     19  C   UNL     1       6.184   3.811  15.122  0.00  0.00    +0.000 C 
ATOM     20  C   UNL     1       6.102   4.204  16.602  0.00  0.00    +0.000 C 
BRANCH  20  21
ATOM     21  C   UNL     1       7.448   4.237  17.214  0.00  0.00    +0.000 C 
ATOM     22  N   UNL     1       8.496   4.250  17.709  0.00  0.00    +0.000 NA
ENDBRANCH  20  21
ENDBRANCH  13  14
ENDBRANCH   1  13
TORSDOF 5
ENDMDL
