MODEL 1
REMARK VINA RESULT:      -6.9      0.000      0.000
REMARK  Name = 
REMARK  13 active torsions:
REMARK  status: ('A' for Active; 'I' for Inactive)
REMARK    1  A    between atoms: C_1  and  O_2
REMARK    2  A    between atoms: O_2  and  C_3
REMARK    3  A    between atoms: C_4  and  C_5
REMARK    4  A    between atoms: C_5  and  N_6
REMARK    5  A    between atoms: N_6  and  C_7
REMARK    6  A    between atoms: N_10  and  C_11
REMARK    7  A    between atoms: C_11  and  C_12
REMARK    8  A    between atoms: C_11  and  C_13
REMARK    9  A    between atoms: C_11  and  C_14
REMARK   10  A    between atoms: C_17  and  C_18
REMARK   11  A    between atoms: C_18  and  C_19
REMARK   12  A    between atoms: C_18  and  C_20
REMARK   13  A    between atoms: N_22  and  C_23
REMARK                            x       y       z     vdW  Elec       q    Type
REMARK                         _______ _______ _______ _____ _____    ______ ____
ROOT
ATOM      1  C   UNL     1       4.986   3.632  15.301  0.00  0.00    +0.000 C 
ENDROOT
BRANCH   1   3
ATOM      2  C   UNL     1       7.085   4.956  14.434  0.00  0.00    +0.000 A 
ATOM      3  C   UNL     1       5.972   4.130  14.277  0.00  0.00    +0.000 A 
ATOM      4  C   UNL     1       6.063   3.711  12.898  0.00  0.00    +0.000 A 
ATOM      5  N   UNL     1       7.057   4.329  12.249  0.00  0.00    +0.000 NA
ATOM      6  N   UNL     1       7.640   5.084  13.185  0.00  0.00    +0.000 N 
ATOM      7  C   UNL     1       8.824   5.836  12.840  0.00  0.00    +0.000 C 
BRANCH   4   8
ATOM      8  C   UNL     1       5.278   2.667  12.137  0.00  0.00    +0.000 C 
ATOM      9  C   UNL     1       4.181   3.296  11.271  0.00  0.00    +0.000 C 
ATOM     10  C   UNL     1       6.203   1.818  11.252  0.00  0.00    +0.000 C 
ENDBRANCH   4   8
BRANCH   2  12
ATOM     11  C   UNL     1       6.992   6.680  16.015  0.00  0.00    +0.000 C 
ATOM     12  O   UNL     1       7.686   5.578  15.454  0.00  0.00    +0.000 OA
ENDBRANCH   2  12
ENDBRANCH   1   3
BRANCH   1  13
ATOM     13  N   UNL     1       5.584   3.468  16.642  0.00  0.00    +0.000 NA
ATOM     14  H   UNL     1       6.594   3.370  16.521  0.00  0.00    +0.000 HD
BRANCH  13  15
ATOM     15  C   UNL     1       5.313   4.634  17.524  0.00  0.00    +0.000 C 
ATOM     16  C   UNL     1       5.555   4.329  19.013  0.00  0.00    +0.000 C 
ATOM     17  C   UNL     1       4.450   3.482  19.664  0.00  0.00    +0.000 C 
ATOM     18  N   UNL     1       3.082   4.018  19.487  0.00  0.00    +0.000 NA
ATOM     19  C   UNL     1       2.829   4.317  18.066  0.00  0.00    +0.000 C 
ATOM     20  C   UNL     1       3.895   5.206  17.418  0.00  0.00    +0.000 C 
BRANCH  18  21
ATOM     21  C   UNL     1       2.014   3.164  20.118  0.00  0.00    +0.000 C 
ATOM     22  C   UNL     1       1.736   1.909  19.253  0.00  0.00    +0.000 C 
ATOM     23  C   UNL     1       2.460   2.616  21.500  0.00  0.00    +0.000 C 
ATOM     24  C   UNL     1       0.670   3.902  20.325  0.00  0.00    +0.000 C 
ENDBRANCH  18  21
ENDBRANCH  13  15
ENDBRANCH   1  13
TORSDOF 6
ENDMDL
MODEL 2
REMARK VINA RESULT:      -6.6      4.131      6.584
REMARK  Name = 
REMARK  13 active torsions:
REMARK  status: ('A' for Active; 'I' for Inactive)
REMARK    1  A    between atoms: C_1  and  O_2
REMARK    2  A    between atoms: O_2  and  C_3
REMARK    3  A    between atoms: C_4  and  C_5
REMARK    4  A    between atoms: C_5  and  N_6
REMARK    5  A    between atoms: N_6  and  C_7
REMARK    6  A    between atoms: N_10  and  C_11
REMARK    7  A    between atoms: C_11  and  C_12
REMARK    8  A    between atoms: C_11  and  C_13
REMARK    9  A    between atoms: C_11  and  C_14
REMARK   10  A    between atoms: C_17  and  C_18
REMARK   11  A    between atoms: C_18  and  C_19
REMARK   12  A    between atoms: C_18  and  C_20
REMARK   13  A    between atoms: N_22  and  C_23
REMARK                            x       y       z     vdW  Elec       q    Type
REMARK                         _______ _______ _______ _____ _____    ______ ____
ROOT
ATOM      1  C   UNL     1       2.377   4.782  17.481  0.00  0.00    +0.000 C 
ENDROOT
BRANCH   1   3
ATOM      2  C   UNL     1       3.105   3.087  19.355  0.00  0.00    +0.000 A 
ATOM      3  C   UNL     1       3.346   4.038  18.364  0.00  0.00    +0.000 A 
ATOM      4  C   UNL     1       4.786   4.041  18.250  0.00  0.00    +0.000 A 
ATOM      5  N   UNL     1       5.364   3.266  19.176  0.00  0.00    +0.000 NA
ATOM      6  N   UNL     1       4.337   2.723  19.837  0.00  0.00    +0.000 N 
ATOM      7  C   UNL     1       4.607   1.751  20.871  0.00  0.00    +0.000 C 
BRANCH   4   8
ATOM      8  C   UNL     1       5.688   4.706  17.236  0.00  0.00    +0.000 C 
ATOM      9  C   UNL     1       7.149   4.728  17.698  0.00  0.00    +0.000 C 
ATOM     10  C   UNL     1       5.594   4.006  15.872  0.00  0.00    +0.000 C 
ENDBRANCH   4   8
BRANCH   2  12
ATOM     11  C   UNL     1       1.201   3.296  20.701  0.00  0.00    +0.000 C 
ATOM     12  O   UNL     1       2.027   2.491  19.876  0.00  0.00    +0.000 OA
ENDBRANCH   2  12
ENDBRANCH   1   3
BRANCH   1  13
ATOM     13  N   UNL     1       1.700   5.893  18.182  0.00  0.00    +0.000 NA
ATOM     14  H   UNL     1       1.161   5.492  18.952  0.00  0.00    +0.000 HD
BRANCH  13  15
ATOM     15  C   UNL     1       2.665   6.883  18.729  0.00  0.00    +0.000 C 
ATOM     16  C   UNL     1       2.262   7.408  20.119  0.00  0.00    +0.000 C 
ATOM     17  C   UNL     1       1.113   8.429  20.091  0.00  0.00    +0.000 C 
ATOM     18  N   UNL     1       1.330   9.572  19.176  0.00  0.00    +0.000 NA
ATOM     19  C   UNL     1       1.718   9.091  17.838  0.00  0.00    +0.000 C 
ATOM     20  C   UNL     1       2.897   8.114  17.846  0.00  0.00    +0.000 C 
BRANCH  18  21
ATOM     21  C   UNL     1       0.186  10.551  19.151  0.00  0.00    +0.000 C 
ATOM     22  C   UNL     1      -0.865  10.135  18.092  0.00  0.00    +0.000 C 
ATOM     23  C   UNL     1      -0.581  10.570  20.502  0.00  0.00    +0.000 C 
ATOM     24  C   UNL     1       0.618  12.004  18.843  0.00  0.00    +0.000 C 
ENDBRANCH  18  21
ENDBRANCH  13  15
ENDBRANCH   1  13
TORSDOF 6
ENDMDL
MODEL 3
REMARK VINA RESULT:      -6.5      0.855      1.301
REMARK  Name = 
REMARK  13 active torsions:
REMARK  status: ('A' for Active; 'I' for Inactive)
REMARK    1  A    between atoms: C_1  and  O_2
REMARK    2  A    between atoms: O_2  and  C_3
REMARK    3  A    between atoms: C_4  and  C_5
REMARK    4  A    between atoms: C_5  and  N_6
REMARK    5  A    between atoms: N_6  and  C_7
REMARK    6  A    between atoms: N_10  and  C_11
REMARK    7  A    between atoms: C_11  and  C_12
REMARK    8  A    between atoms: C_11  and  C_13
REMARK    9  A    between atoms: C_11  and  C_14
REMARK   10  A    between atoms: C_17  and  C_18
REMARK   11  A    between atoms: C_18  and  C_19
REMARK   12  A    between atoms: C_18  and  C_20
REMARK   13  A    between atoms: N_22  and  C_23
REMARK                            x       y       z     vdW  Elec       q    Type
REMARK                         _______ _______ _______ _____ _____    ______ ____
ROOT
ATOM      1  C   UNL     1       4.998   3.542  15.464  0.00  0.00    +0.000 C 
ENDROOT
BRANCH   1   3
ATOM      2  C   UNL     1       7.053   4.934  14.596  0.00  0.00    +0.000 A 
ATOM      3  C   UNL     1       5.948   4.099  14.435  0.00  0.00    +0.000 A 
ATOM      4  C   UNL     1       6.005   3.739  13.037  0.00  0.00    +0.000 A 
ATOM      5  N   UNL     1       6.971   4.399  12.388  0.00  0.00    +0.000 NA
ATOM      6  N   UNL     1       7.570   5.123  13.338  0.00  0.00    +0.000 N 
ATOM      7  C   UNL     1       8.732   5.907  12.992  0.00  0.00    +0.000 C 
BRANCH   4   8
ATOM      8  C   UNL     1       5.213   2.716  12.255  0.00  0.00    +0.000 C 
ATOM      9  C   UNL     1       4.162   3.374  11.355  0.00  0.00    +0.000 C 
ATOM     10  C   UNL     1       6.140   1.837  11.401  0.00  0.00    +0.000 C 
ENDBRANCH   4   8
BRANCH   2  12
ATOM     11  C   UNL     1       7.013   6.634  16.205  0.00  0.00    +0.000 C 
ATOM     12  O   UNL     1       7.674   5.522  15.624  0.00  0.00    +0.000 OA
ENDBRANCH   2  12
ENDBRANCH   1   3
BRANCH   1  13
ATOM     13  N   UNL     1       4.669   4.515  16.527  0.00  0.00    +0.000 NA
ATOM     14  H   UNL     1       3.651   4.558  16.604  0.00  0.00    +0.000 HD
BRANCH  13  15
ATOM     15  C   UNL     1       5.239   4.123  17.843  0.00  0.00    +0.000 C 
ATOM     16  C   UNL     1       4.820   2.707  18.280  0.00  0.00    +0.000 C 
ATOM     17  C   UNL     1       3.374   2.616  18.792  0.00  0.00    +0.000 C 
ATOM     18  N   UNL     1       3.039   3.581  19.863  0.00  0.00    +0.000 NA
ATOM     19  C   UNL     1       3.433   4.944  19.465  0.00  0.00    +0.000 C 
ATOM     20  C   UNL     1       4.889   5.061  19.003  0.00  0.00    +0.000 C 
BRANCH  18  21
ATOM     21  C   UNL     1       1.613   3.485  20.337  0.00  0.00    +0.000 C 
ATOM     22  C   UNL     1       1.011   4.897  20.546  0.00  0.00    +0.000 C 
ATOM     23  C   UNL     1       0.702   2.804  19.280  0.00  0.00    +0.000 C 
ATOM     24  C   UNL     1       1.450   2.702  21.662  0.00  0.00    +0.000 C 
ENDBRANCH  18  21
ENDBRANCH  13  15
ENDBRANCH   1  13
TORSDOF 6
ENDMDL
MODEL 4
REMARK VINA RESULT:      -6.4      4.375      6.913
REMARK  Name = 
REMARK  13 active torsions:
REMARK  status: ('A' for Active; 'I' for Inactive)
REMARK    1  A    between atoms: C_1  and  O_2
REMARK    2  A    between atoms: O_2  and  C_3
REMARK    3  A    between atoms: C_4  and  C_5
REMARK    4  A    between atoms: C_5  and  N_6
REMARK    5  A    between atoms: N_6  and  C_7
REMARK    6  A    between atoms: N_10  and  C_11
REMARK    7  A    between atoms: C_11  and  C_12
REMARK    8  A    between atoms: C_11  and  C_13
REMARK    9  A    between atoms: C_11  and  C_14
REMARK   10  A    between atoms: C_17  and  C_18
REMARK   11  A    between atoms: C_18  and  C_19
REMARK   12  A    between atoms: C_18  and  C_20
REMARK   13  A    between atoms: N_22  and  C_23
REMARK                            x       y       z     vdW  Elec       q    Type
REMARK                         _______ _______ _______ _____ _____    ______ ____
ROOT
ATOM      1  C   UNL     1       2.233   5.232  17.875  0.00  0.00    +0.000 C 
ENDROOT
BRANCH   1   3
ATOM      2  C   UNL     1       3.161   3.235  19.311  0.00  0.00    +0.000 A 
ATOM      3  C   UNL     1       3.284   4.420  18.586  0.00  0.00    +0.000 A 
ATOM      4  C   UNL     1       4.712   4.624  18.525  0.00  0.00    +0.000 A 
ATOM      5  N   UNL     1       5.380   3.724  19.256  0.00  0.00    +0.000 NA
ATOM      6  N   UNL     1       4.428   2.916  19.732  0.00  0.00    +0.000 N 
ATOM      7  C   UNL     1       4.813   1.763  20.512  0.00  0.00    +0.000 C 
BRANCH   4   8
ATOM      8  C   UNL     1       5.528   5.619  17.731  0.00  0.00    +0.000 C 
ATOM      9  C   UNL     1       6.980   5.684  18.216  0.00  0.00    +0.000 C 
ATOM     10  C   UNL     1       5.504   5.281  16.233  0.00  0.00    +0.000 C 
ENDBRANCH   4   8
BRANCH   2  12
ATOM     11  C   UNL     1       1.255   2.869  20.621  0.00  0.00    +0.000 C 
ATOM     12  O   UNL     1       2.164   2.404  19.637  0.00  0.00    +0.000 OA
ENDBRANCH   2  12
ENDBRANCH   1   3
BRANCH   1  13
ATOM     13  N   UNL     1       1.552   6.195  18.766  0.00  0.00    +0.000 NA
ATOM     14  H   UNL     1       1.256   5.688  19.602  0.00  0.00    +0.000 HD
BRANCH  13  15
ATOM     15  C   UNL     1       2.444   7.314  19.169  0.00  0.00    +0.000 C 
ATOM     16  C   UNL     1       1.983   8.015  20.459  0.00  0.00    +0.000 C 
ATOM     17  C   UNL     1       0.776   8.946  20.265  0.00  0.00    +0.000 C 
ATOM     18  N   UNL     1       0.942   9.950  19.191  0.00  0.00    +0.000 NA
ATOM     19  C   UNL     1       1.384   9.300  17.945  0.00  0.00    +0.000 C 
ATOM     20  C   UNL     1       2.620   8.411  18.113  0.00  0.00    +0.000 C 
BRANCH  18  21
ATOM     21  C   UNL     1      -0.259  10.841  19.007  0.00  0.00    +0.000 C 
ATOM     22  C   UNL     1      -1.006  11.035  20.350  0.00  0.00    +0.000 C 
ATOM     23  C   UNL     1       0.150  12.269  18.557  0.00  0.00    +0.000 C 
ATOM     24  C   UNL     1      -1.278  10.304  17.974  0.00  0.00    +0.000 C 
ENDBRANCH  18  21
ENDBRANCH  13  15
ENDBRANCH   1  13
TORSDOF 6
ENDMDL
MODEL 5
REMARK VINA RESULT:      -6.3      0.995      1.357
REMARK  Name = 
REMARK  13 active torsions:
REMARK  status: ('A' for Active; 'I' for Inactive)
REMARK    1  A    between atoms: C_1  and  O_2
REMARK    2  A    between atoms: O_2  and  C_3
REMARK    3  A    between atoms: C_4  and  C_5
REMARK    4  A    between atoms: C_5  and  N_6
REMARK    5  A    between atoms: N_6  and  C_7
REMARK    6  A    between atoms: N_10  and  C_11
REMARK    7  A    between atoms: C_11  and  C_12
REMARK    8  A    between atoms: C_11  and  C_13
REMARK    9  A    between atoms: C_11  and  C_14
REMARK   10  A    between atoms: C_17  and  C_18
REMARK   11  A    between atoms: C_18  and  C_19
REMARK   12  A    between atoms: C_18  and  C_20
REMARK   13  A    between atoms: N_22  and  C_23
REMARK                            x       y       z     vdW  Elec       q    Type
REMARK                         _______ _______ _______ _____ _____    ______ ____
ROOT
ATOM      1  C   UNL     1       4.657   3.734  15.195  0.00  0.00    +0.000 C 
ENDROOT
BRANCH   1   3
ATOM      2  C   UNL     1       6.845   5.001  14.474  0.00  0.00    +0.000 A 
ATOM      3  C   UNL     1       5.740   4.180  14.248  0.00  0.00    +0.000 A 
ATOM      4  C   UNL     1       5.952   3.704  12.901  0.00  0.00    +0.000 A 
ATOM      5  N   UNL     1       7.010   4.285  12.323  0.00  0.00    +0.000 NA
ATOM      6  N   UNL     1       7.514   5.072  13.278  0.00  0.00    +0.000 N 
ATOM      7  C   UNL     1       8.735   5.798  13.013  0.00  0.00    +0.000 C 
BRANCH   4   8
ATOM      8  C   UNL     1       5.225   2.638  12.113  0.00  0.00    +0.000 C 
ATOM      9  C   UNL     1       4.141   3.234  11.209  0.00  0.00    +0.000 C 
ATOM     10  C   UNL     1       6.206   1.818  11.260  0.00  0.00    +0.000 C 
ENDBRANCH   4   8
BRANCH   2  12
ATOM     11  C   UNL     1       7.833   4.861  16.592  0.00  0.00    +0.000 C 
ATOM     12  O   UNL     1       7.358   5.658  15.519  0.00  0.00    +0.000 OA
ENDBRANCH   2  12
ENDBRANCH   1   3
BRANCH   1  13
ATOM     13  N   UNL     1       4.609   4.541  16.433  0.00  0.00    +0.000 NA
ATOM     14  H   UNL     1       3.632   4.793  16.600  0.00  0.00    +0.000 HD
BRANCH  13  15
ATOM     15  C   UNL     1       5.125   3.795  17.610  0.00  0.00    +0.000 C 
ATOM     16  C   UNL     1       4.419   2.444  17.821  0.00  0.00    +0.000 C 
ATOM     17  C   UNL     1       3.009   2.564  18.420  0.00  0.00    +0.000 C 
ATOM     18  N   UNL     1       2.937   3.357  19.667  0.00  0.00    +0.000 NA
ATOM     19  C   UNL     1       3.609   4.657  19.487  0.00  0.00    +0.000 C 
ATOM     20  C   UNL     1       5.036   4.549  18.941  0.00  0.00    +0.000 C 
BRANCH  18  21
ATOM     21  C   UNL     1       1.544   3.477  20.227  0.00  0.00    +0.000 C 
ATOM     22  C   UNL     1       1.433   2.728  21.578  0.00  0.00    +0.000 C 
ATOM     23  C   UNL     1       1.179   4.952  20.546  0.00  0.00    +0.000 C 
ATOM     24  C   UNL     1       0.447   2.922  19.287  0.00  0.00    +0.000 C 
ENDBRANCH  18  21
ENDBRANCH  13  15
ENDBRANCH   1  13
TORSDOF 6
ENDMDL
MODEL 6
REMARK VINA RESULT:      -6.3      3.855      6.317
REMARK  Name = 
REMARK  13 active torsions:
REMARK  status: ('A' for Active; 'I' for Inactive)
REMARK    1  A    between atoms: C_1  and  O_2
REMARK    2  A    between atoms: O_2  and  C_3
REMARK    3  A    between atoms: C_4  and  C_5
REMARK    4  A    between atoms: C_5  and  N_6
REMARK    5  A    between atoms: N_6  and  C_7
REMARK    6  A    between atoms: N_10  and  C_11
REMARK    7  A    between atoms: C_11  and  C_12
REMARK    8  A    between atoms: C_11  and  C_13
REMARK    9  A    between atoms: C_11  and  C_14
REMARK   10  A    between atoms: C_17  and  C_18
REMARK   11  A    between atoms: C_18  and  C_19
REMARK   12  A    between atoms: C_18  and  C_20
REMARK   13  A    between atoms: N_22  and  C_23
REMARK                            x       y       z     vdW  Elec       q    Type
REMARK                         _______ _______ _______ _____ _____    ______ ____
ROOT
ATOM      1  C   UNL     1       2.369   4.798  17.505  0.00  0.00    +0.000 C 
ENDROOT
BRANCH   1   3
ATOM      2  C   UNL     1       4.980   5.086  17.613  0.00  0.00    +0.000 A 
ATOM      3  C   UNL     1       3.765   4.525  18.003  0.00  0.00    +0.000 A 
ATOM      4  C   UNL     1       4.126   3.709  19.139  0.00  0.00    +0.000 A 
ATOM      5  N   UNL     1       5.450   3.677  19.332  0.00  0.00    +0.000 NA
ATOM      6  N   UNL     1       5.939   4.492  18.394  0.00  0.00    +0.000 N 
ATOM      7  C   UNL     1       7.359   4.756  18.368  0.00  0.00    +0.000 C 
BRANCH   4   8
ATOM      8  C   UNL     1       3.257   2.980  20.138  0.00  0.00    +0.000 C 
ATOM      9  C   UNL     1       2.528   3.949  21.075  0.00  0.00    +0.000 C 
ATOM     10  C   UNL     1       2.230   2.086  19.427  0.00  0.00    +0.000 C 
ENDBRANCH   4   8
BRANCH   2  12
ATOM     11  C   UNL     1       5.451   5.603  15.378  0.00  0.00    +0.000 C 
ATOM     12  O   UNL     1       5.374   6.014  16.733  0.00  0.00    +0.000 OA
ENDBRANCH   2  12
ENDBRANCH   1   3
BRANCH   1  13
ATOM     13  N   UNL     1       1.695   5.881  18.252  0.00  0.00    +0.000 NA
ATOM     14  H   UNL     1       1.236   5.460  19.062  0.00  0.00    +0.000 HD
BRANCH  13  15
ATOM     15  C   UNL     1       2.652   6.918  18.721  0.00  0.00    +0.000 C 
ATOM     16  C   UNL     1       2.294   7.480  20.109  0.00  0.00    +0.000 C 
ATOM     17  C   UNL     1       1.114   8.465  20.097  0.00  0.00    +0.000 C 
ATOM     18  N   UNL     1       1.255   9.580  19.135  0.00  0.00    +0.000 NA
ATOM     19  C   UNL     1       1.598   9.064  17.798  0.00  0.00    +0.000 C 
ATOM     20  C   UNL     1       2.807   8.123  17.786  0.00  0.00    +0.000 C 
BRANCH  18  21
ATOM     21  C   UNL     1       0.080  10.523  19.128  0.00  0.00    +0.000 C 
ATOM     22  C   UNL     1      -0.600  10.559  20.520  0.00  0.00    +0.000 C 
ATOM     23  C   UNL     1       0.521  11.986  18.851  0.00  0.00    +0.000 C 
ATOM     24  C   UNL     1      -1.002  10.160  18.083  0.00  0.00    +0.000 C 
ENDBRANCH  18  21
ENDBRANCH  13  15
ENDBRANCH   1  13
TORSDOF 6
ENDMDL
MODEL 7
REMARK VINA RESULT:      -6.2      3.413      5.280
REMARK  Name = 
REMARK  13 active torsions:
REMARK  status: ('A' for Active; 'I' for Inactive)
REMARK    1  A    between atoms: C_1  and  O_2
REMARK    2  A    between atoms: O_2  and  C_3
REMARK    3  A    between atoms: C_4  and  C_5
REMARK    4  A    between atoms: C_5  and  N_6
REMARK    5  A    between atoms: N_6  and  C_7
REMARK    6  A    between atoms: N_10  and  C_11
REMARK    7  A    between atoms: C_11  and  C_12
REMARK    8  A    between atoms: C_11  and  C_13
REMARK    9  A    between atoms: C_11  and  C_14
REMARK   10  A    between atoms: C_17  and  C_18
REMARK   11  A    between atoms: C_18  and  C_19
REMARK   12  A    between atoms: C_18  and  C_20
REMARK   13  A    between atoms: N_22  and  C_23
REMARK                            x       y       z     vdW  Elec       q    Type
REMARK                         _______ _______ _______ _____ _____    ______ ____
ROOT
ATOM      1  C   UNL     1       5.157   5.227  19.397  0.00  0.00    +0.000 C 
ENDROOT
BRANCH   1   3
ATOM      2  C   UNL     1       6.476   5.306  17.124  0.00  0.00    +0.000 A 
ATOM      3  C   UNL     1       5.464   4.853  17.970  0.00  0.00    +0.000 A 
ATOM      4  C   UNL     1       4.848   3.791  17.210  0.00  0.00    +0.000 A 
ATOM      5  N   UNL     1       5.351   3.702  15.973  0.00  0.00    +0.000 NA
ATOM      6  N   UNL     1       6.309   4.632  15.940  0.00  0.00    +0.000 N 
ATOM      7  C   UNL     1       7.126   4.754  14.755  0.00  0.00    +0.000 C 
BRANCH   4   8
ATOM      8  C   UNL     1       3.814   2.766  17.617  0.00  0.00    +0.000 C 
ATOM      9  C   UNL     1       3.883   2.449  19.115  0.00  0.00    +0.000 C 
ATOM     10  C   UNL     1       2.397   3.240  17.261  0.00  0.00    +0.000 C 
ENDBRANCH   4   8
BRANCH   2  12
ATOM     11  C   UNL     1       7.155   7.534  17.367  0.00  0.00    +0.000 C 
ATOM     12  O   UNL     1       7.497   6.165  17.218  0.00  0.00    +0.000 OA
ENDBRANCH   2  12
ENDBRANCH   1   3
BRANCH   1  13
ATOM     13  N   UNL     1       4.288   6.418  19.503  0.00  0.00    +0.000 NA
ATOM     14  H   UNL     1       4.615   7.102  18.819  0.00  0.00    +0.000 HD
BRANCH  13  15
ATOM     15  C   UNL     1       2.863   6.099  19.226  0.00  0.00    +0.000 C 
ATOM     16  C   UNL     1       2.348   6.735  17.922  0.00  0.00    +0.000 C 
ATOM     17  C   UNL     1       2.069   8.243  18.032  0.00  0.00    +0.000 C 
ATOM     18  N   UNL     1       1.178   8.622  19.150  0.00  0.00    +0.000 NA
ATOM     19  C   UNL     1       1.652   8.023  20.410  0.00  0.00    +0.000 C 
ATOM     20  C   UNL     1       1.883   6.511  20.331  0.00  0.00    +0.000 C 
BRANCH  18  21
ATOM     21  C   UNL     1       0.932  10.105  19.248  0.00  0.00    +0.000 C 
ATOM     22  C   UNL     1       1.069  10.585  20.715  0.00  0.00    +0.000 C 
ATOM     23  C   UNL     1       1.991  10.916  18.454  0.00  0.00    +0.000 C 
ATOM     24  C   UNL     1      -0.462  10.539  18.737  0.00  0.00    +0.000 C 
ENDBRANCH  18  21
ENDBRANCH  13  15
ENDBRANCH   1  13
TORSDOF 6
ENDMDL
MODEL 8
REMARK VINA RESULT:      -6.2      3.719      5.642
REMARK  Name = 
REMARK  13 active torsions:
REMARK  status: ('A' for Active; 'I' for Inactive)
REMARK    1  A    between atoms: C_1  and  O_2
REMARK    2  A    between atoms: O_2  and  C_3
REMARK    3  A    between atoms: C_4  and  C_5
REMARK    4  A    between atoms: C_5  and  N_6
REMARK    5  A    between atoms: N_6  and  C_7
REMARK    6  A    between atoms: N_10  and  C_11
REMARK    7  A    between atoms: C_11  and  C_12
REMARK    8  A    between atoms: C_11  and  C_13
REMARK    9  A    between atoms: C_11  and  C_14
REMARK   10  A    between atoms: C_17  and  C_18
REMARK   11  A    between atoms: C_18  and  C_19
REMARK   12  A    between atoms: C_18  and  C_20
REMARK   13  A    between atoms: N_22  and  C_23
REMARK                            x       y       z     vdW  Elec       q    Type
REMARK                         _______ _______ _______ _____ _____    ______ ____
ROOT
ATOM      1  C   UNL     1       4.603   5.266  19.546  0.00  0.00    +0.000 C 
ENDROOT
BRANCH   1   3
ATOM      2  C   UNL     1       6.127   5.385  17.407  0.00  0.00    +0.000 A 
ATOM      3  C   UNL     1       5.059   4.896  18.158  0.00  0.00    +0.000 A 
ATOM      4  C   UNL     1       4.559   3.806  17.353  0.00  0.00    +0.000 A 
ATOM      5  N   UNL     1       5.180   3.730  16.170  0.00  0.00    +0.000 NA
ATOM      6  N   UNL     1       6.100   4.698  16.219  0.00  0.00    +0.000 N 
ATOM      7  C   UNL     1       7.020   4.845  15.116  0.00  0.00    +0.000 C 
BRANCH   4   8
ATOM      8  C   UNL     1       3.533   2.743  17.671  0.00  0.00    +0.000 C 
ATOM      9  C   UNL     1       3.808   2.067  19.019  0.00  0.00    +0.000 C 
ATOM     10  C   UNL     1       2.113   3.330  17.675  0.00  0.00    +0.000 C 
ENDBRANCH   4   8
BRANCH   2  12
ATOM     11  C   UNL     1       7.836   6.180  18.797  0.00  0.00    +0.000 C 
ATOM     12  O   UNL     1       7.100   6.285  17.589  0.00  0.00    +0.000 OA
ENDBRANCH   2  12
ENDBRANCH   1   3
BRANCH   1  13
ATOM     13  N   UNL     1       3.890   6.560  19.590  0.00  0.00    +0.000 NA
ATOM     14  H   UNL     1       4.295   7.161  18.871  0.00  0.00    +0.000 HD
BRANCH  13  15
ATOM     15  C   UNL     1       2.434   6.407  19.331  0.00  0.00    +0.000 C 
ATOM     16  C   UNL     1       1.988   7.063  18.012  0.00  0.00    +0.000 C 
ATOM     17  C   UNL     1       1.893   8.596  18.079  0.00  0.00    +0.000 C 
ATOM     18  N   UNL     1       1.064   9.111  19.190  0.00  0.00    +0.000 NA
ATOM     19  C   UNL     1       1.475   8.495  20.465  0.00  0.00    +0.000 C 
ATOM     20  C   UNL     1       1.521   6.964  20.429  0.00  0.00    +0.000 C 
BRANCH  18  21
ATOM     21  C   UNL     1       0.999  10.615  19.247  0.00  0.00    +0.000 C 
ATOM     22  C   UNL     1       2.110  11.243  18.369  0.00  0.00    +0.000 C 
ATOM     23  C   UNL     1      -0.336  11.153  18.664  0.00  0.00    +0.000 C 
ATOM     24  C   UNL     1       1.145  11.190  20.676  0.00  0.00    +0.000 C 
ENDBRANCH  18  21
ENDBRANCH  13  15
ENDBRANCH   1  13
TORSDOF 6
ENDMDL
MODEL 9
REMARK VINA RESULT:      -6.1      3.082      4.844
REMARK  Name = 
REMARK  13 active torsions:
REMARK  status: ('A' for Active; 'I' for Inactive)
REMARK    1  A    between atoms: C_1  and  O_2
REMARK    2  A    between atoms: O_2  and  C_3
REMARK    3  A    between atoms: C_4  and  C_5
REMARK    4  A    between atoms: C_5  and  N_6
REMARK    5  A    between atoms: N_6  and  C_7
REMARK    6  A    between atoms: N_10  and  C_11
REMARK    7  A    between atoms: C_11  and  C_12
REMARK    8  A    between atoms: C_11  and  C_13
REMARK    9  A    between atoms: C_11  and  C_14
REMARK   10  A    between atoms: C_17  and  C_18
REMARK   11  A    between atoms: C_18  and  C_19
REMARK   12  A    between atoms: C_18  and  C_20
REMARK   13  A    between atoms: N_22  and  C_23
REMARK                            x       y       z     vdW  Elec       q    Type
REMARK                         _______ _______ _______ _____ _____    ______ ____
ROOT
ATOM      1  C   UNL     1       5.295   4.996  19.306  0.00  0.00    +0.000 C 
ENDROOT
BRANCH   1   3
ATOM      2  C   UNL     1       6.517   5.182  16.986  0.00  0.00    +0.000 A 
ATOM      3  C   UNL     1       5.526   4.709  17.845  0.00  0.00    +0.000 A 
ATOM      4  C   UNL     1       4.836   3.724  17.045  0.00  0.00    +0.000 A 
ATOM      5  N   UNL     1       5.282   3.701  15.784  0.00  0.00    +0.000 NA
ATOM      6  N   UNL     1       6.274   4.596  15.769  0.00  0.00    +0.000 N 
ATOM      7  C   UNL     1       7.043   4.768  14.559  0.00  0.00    +0.000 C 
BRANCH   4   8
ATOM      8  C   UNL     1       3.782   2.711  17.431  0.00  0.00    +0.000 C 
ATOM      9  C   UNL     1       3.919   2.272  18.892  0.00  0.00    +0.000 C 
ATOM     10  C   UNL     1       2.370   3.269  17.195  0.00  0.00    +0.000 C 
ENDBRANCH   4   8
BRANCH   2  12
ATOM     11  C   UNL     1       7.295   7.352  17.397  0.00  0.00    +0.000 C 
ATOM     12  O   UNL     1       7.574   5.995  17.090  0.00  0.00    +0.000 OA
ENDBRANCH   2  12
ENDBRANCH   1   3
BRANCH   1  13
ATOM     13  N   UNL     1       4.428   6.173  19.530  0.00  0.00    +0.000 NA
ATOM     14  H   UNL     1       4.848   6.964  19.039  0.00  0.00    +0.000 HD
BRANCH  13  15
ATOM     15  C   UNL     1       3.050   5.960  19.015  0.00  0.00    +0.000 C 
ATOM     16  C   UNL     1       2.486   7.190  18.281  0.00  0.00    +0.000 C 
ATOM     17  C   UNL     1       2.044   8.326  19.218  0.00  0.00    +0.000 C 
ATOM     18  N   UNL     1       1.102   7.913  20.281  0.00  0.00    +0.000 NA
ATOM     19  C   UNL     1       1.622   6.734  20.998  0.00  0.00    +0.000 C 
ATOM     20  C   UNL     1       2.017   5.573  20.080  0.00  0.00    +0.000 C 
BRANCH  18  21
ATOM     21  C   UNL     1       0.695   9.038  21.197  0.00  0.00    +0.000 C 
ATOM     22  C   UNL     1      -0.650   8.714  21.894  0.00  0.00    +0.000 C 
ATOM     23  C   UNL     1       1.716   9.235  22.350  0.00  0.00    +0.000 C 
ATOM     24  C   UNL     1       0.539  10.399  20.478  0.00  0.00    +0.000 C 
ENDBRANCH  18  21
ENDBRANCH  13  15
ENDBRANCH   1  13
TORSDOF 6
ENDMDL
