MODEL 1
REMARK VINA RESULT:      -8.2      0.000      0.000
REMARK  Name = 
REMARK  4 active torsions:
REMARK  status: ('A' for Active; 'I' for Inactive)
REMARK    1  A    between atoms: C_1  and  C_2
REMARK    2  A    between atoms: C_4  and  C_5
REMARK    3  A    between atoms: C_8  and  C_9
REMARK    4  A    between atoms: C_14  and  C_15
REMARK                            x       y       z     vdW  Elec       q    Type
REMARK                         _______ _______ _______ _____ _____    ______ ____
ROOT
ATOM      1  C   UNL     1       3.072   6.782  18.680  0.00  0.00    +0.000 A 
ATOM      2  C   UNL     1       3.406   5.521  19.418  0.00  0.00    +0.000 A 
ATOM      3  C   UNL     1       4.186   4.659  18.747  0.00  0.00    +0.000 A 
ATOM      4  N   UNL     1       4.627   4.994  17.475  0.00  0.00    +0.000 N 
ATOM      5  C   UNL     1       5.402   4.287  16.598  0.00  0.00    +0.000 A 
ATOM      6  C   UNL     1       5.545   5.105  15.497  0.00  0.00    +0.000 A 
ATOM      7  N   UNL     1       4.868   6.290  15.684  0.00  0.00    +0.000 NA
ATOM      8  C   UNL     1       4.304   6.205  16.870  0.00  0.00    +0.000 A 
ATOM      9  N   UNL     1       3.498   7.109  17.493  0.00  0.00    +0.000 NA
ENDROOT
BRANCH   1  17
ATOM     10  C   UNL     1      -0.980  10.415  23.388  0.00  0.00    +0.000 C 
ATOM     11  C   UNL     1      -0.291   9.993  22.113  0.00  0.00    +0.000 A 
ATOM     12  C   UNL     1      -0.426  10.912  20.936  0.00  0.00    +0.000 A 
ATOM     13  C   UNL     1       0.217  10.542  19.815  0.00  0.00    +0.000 A 
ATOM     14  C   UNL     1       0.192  11.341  18.549  0.00  0.00    +0.000 C 
ATOM     15  N   UNL     1       0.951   9.352  19.825  0.00  0.00    +0.000 N 
ATOM     16  N   UNL     1       1.683   8.806  18.837  0.00  0.00    +0.000 NA
ATOM     17  C   UNL     1       2.178   7.695  19.400  0.00  0.00    +0.000 A 
ATOM     18  N   UNL     1       1.770   7.496  20.702  0.00  0.00    +0.000 NA
ATOM     19  C   UNL     1       1.015   8.542  20.962  0.00  0.00    +0.000 A 
ATOM     20  N   UNL     1       0.377   8.878  22.122  0.00  0.00    +0.000 NA
ENDBRANCH   1  17
BRANCH   6  21
ATOM     21  C   UNL     1       6.285   4.784  14.286  0.00  0.00    +0.000 A 
ATOM     22  C   UNL     1       5.817   3.791  13.428  0.00  0.00    +0.000 A 
ATOM     23  C   UNL     1       6.552   3.490  12.285  0.00  0.00    +0.000 A 
ATOM     24  C   UNL     1       7.727   4.185  12.034  0.00  0.00    +0.000 A 
ATOM     25  C   UNL     1       8.119   5.160  12.936  0.00  0.00    +0.000 A 
ATOM     26  N   UNL     1       7.428   5.478  14.054  0.00  0.00    +0.000 NA
ENDBRANCH   6  21
TORSDOF 2
ENDMDL
MODEL 2
REMARK VINA RESULT:      -8.1      2.360      9.805
REMARK  Name = 
REMARK  4 active torsions:
REMARK  status: ('A' for Active; 'I' for Inactive)
REMARK    1  A    between atoms: C_1  and  C_2
REMARK    2  A    between atoms: C_4  and  C_5
REMARK    3  A    between atoms: C_8  and  C_9
REMARK    4  A    between atoms: C_14  and  C_15
REMARK                            x       y       z     vdW  Elec       q    Type
REMARK                         _______ _______ _______ _____ _____    ______ ____
ROOT
ATOM      1  C   UNL     1       1.889   8.468  19.178  0.00  0.00    +0.000 A 
ATOM      2  C   UNL     1       2.043   9.513  18.114  0.00  0.00    +0.000 A 
ATOM      3  C   UNL     1       1.488  10.700  18.400  0.00  0.00    +0.000 A 
ATOM      4  N   UNL     1       0.854  10.875  19.621  0.00  0.00    +0.000 N 
ATOM      5  C   UNL     1       0.206  11.968  20.128  0.00  0.00    +0.000 A 
ATOM      6  C   UNL     1      -0.213  11.592  21.387  0.00  0.00    +0.000 A 
ATOM      7  N   UNL     1       0.160  10.292  21.652  0.00  0.00    +0.000 NA
ATOM      8  C   UNL     1       0.784   9.864  20.576  0.00  0.00    +0.000 A 
ATOM      9  N   UNL     1       1.310   8.633  20.333  0.00  0.00    +0.000 NA
ENDROOT
BRANCH   1  17
ATOM     10  C   UNL     1       3.641   1.526  18.452  0.00  0.00    +0.000 C 
ATOM     11  C   UNL     1       3.613   3.025  18.277  0.00  0.00    +0.000 A 
ATOM     12  C   UNL     1       4.475   3.595  17.190  0.00  0.00    +0.000 A 
ATOM     13  C   UNL     1       4.419   4.928  17.024  0.00  0.00    +0.000 A 
ATOM     14  C   UNL     1       5.210   5.661  15.986  0.00  0.00    +0.000 C 
ATOM     15  N   UNL     1       3.579   5.672  17.856  0.00  0.00    +0.000 N 
ATOM     16  N   UNL     1       3.350   6.998  17.853  0.00  0.00    +0.000 NA
ATOM     17  C   UNL     1       2.453   7.158  18.836  0.00  0.00    +0.000 A 
ATOM     18  N   UNL     1       2.118   5.988  19.485  0.00  0.00    +0.000 NA
ATOM     19  C   UNL     1       2.817   5.065  18.859  0.00  0.00    +0.000 A 
ATOM     20  N   UNL     1       2.843   3.716  19.064  0.00  0.00    +0.000 NA
ENDBRANCH   1  17
BRANCH   6  21
ATOM     21  C   UNL     1      -0.960  12.420  22.320  0.00  0.00    +0.000 A 
ATOM     22  C   UNL     1      -2.247  12.049  22.703  0.00  0.00    +0.000 A 
ATOM     23  C   UNL     1      -2.949  12.867  23.583  0.00  0.00    +0.000 A 
ATOM     24  C   UNL     1      -2.348  14.028  24.053  0.00  0.00    +0.000 A 
ATOM     25  C   UNL     1      -1.064  14.322  23.625  0.00  0.00    +0.000 A 
ATOM     26  N   UNL     1      -0.355  13.548  22.774  0.00  0.00    +0.000 NA
ENDBRANCH   6  21
TORSDOF 2
ENDMDL
MODEL 3
REMARK VINA RESULT:      -8.0      2.768     10.234
REMARK  Name = 
REMARK  4 active torsions:
REMARK  status: ('A' for Active; 'I' for Inactive)
REMARK    1  A    between atoms: C_1  and  C_2
REMARK    2  A    between atoms: C_4  and  C_5
REMARK    3  A    between atoms: C_8  and  C_9
REMARK    4  A    between atoms: C_14  and  C_15
REMARK                            x       y       z     vdW  Elec       q    Type
REMARK                         _______ _______ _______ _____ _____    ______ ____
ROOT
ATOM      1  C   UNL     1       1.276   8.766  19.886  0.00  0.00    +0.000 A 
ATOM      2  C   UNL     1       1.138   9.696  18.718  0.00  0.00    +0.000 A 
ATOM      3  C   UNL     1       0.402  10.793  18.949  0.00  0.00    +0.000 A 
ATOM      4  N   UNL     1      -0.140  10.992  20.210  0.00  0.00    +0.000 N 
ATOM      5  C   UNL     1      -0.929  12.007  20.680  0.00  0.00    +0.000 A 
ATOM      6  C   UNL     1      -1.155  11.708  22.007  0.00  0.00    +0.000 A 
ATOM      7  N   UNL     1      -0.527  10.531  22.352  0.00  0.00    +0.000 NA
ATOM      8  C   UNL     1       0.065  10.099  21.258  0.00  0.00    +0.000 A 
ATOM      9  N   UNL     1       0.784   8.958  21.077  0.00  0.00    +0.000 NA
ENDROOT
BRANCH   1  17
ATOM     10  C   UNL     1       4.204   2.198  19.636  0.00  0.00    +0.000 C 
ATOM     11  C   UNL     1       3.884   3.639  19.322  0.00  0.00    +0.000 A 
ATOM     12  C   UNL     1       4.521   4.222  18.097  0.00  0.00    +0.000 A 
ATOM     13  C   UNL     1       4.204   5.497  17.811  0.00  0.00    +0.000 A 
ATOM     14  C   UNL     1       4.746   6.234  16.626  0.00  0.00    +0.000 C 
ATOM     15  N   UNL     1       3.323   6.175  18.657  0.00  0.00    +0.000 N 
ATOM     16  N   UNL     1       2.854   7.432  18.553  0.00  0.00    +0.000 NA
ATOM     17  C   UNL     1       2.038   7.544  19.610  0.00  0.00    +0.000 A 
ATOM     18  N   UNL     1       1.987   6.416  20.401  0.00  0.00    +0.000 NA
ATOM     19  C   UNL     1       2.782   5.563  19.792  0.00  0.00    +0.000 A 
ATOM     20  N   UNL     1       3.076   4.271  20.122  0.00  0.00    +0.000 NA
ENDBRANCH   1  17
BRANCH   6  21
ATOM     21  C   UNL     1      -1.954  12.494  22.934  0.00  0.00    +0.000 A 
ATOM     22  C   UNL     1      -1.490  13.731  23.377  0.00  0.00    +0.000 A 
ATOM     23  C   UNL     1      -2.264  14.456  24.278  0.00  0.00    +0.000 A 
ATOM     24  C   UNL     1      -3.474  13.927  24.709  0.00  0.00    +0.000 A 
ATOM     25  C   UNL     1      -3.864  12.693  24.216  0.00  0.00    +0.000 A 
ATOM     26  N   UNL     1      -3.137  11.964  23.340  0.00  0.00    +0.000 NA
ENDBRANCH   6  21
TORSDOF 2
ENDMDL
MODEL 4
REMARK VINA RESULT:      -7.9      2.907     10.301
REMARK  Name = 
REMARK  4 active torsions:
REMARK  status: ('A' for Active; 'I' for Inactive)
REMARK    1  A    between atoms: C_1  and  C_2
REMARK    2  A    between atoms: C_4  and  C_5
REMARK    3  A    between atoms: C_8  and  C_9
REMARK    4  A    between atoms: C_14  and  C_15
REMARK                            x       y       z     vdW  Elec       q    Type
REMARK                         _______ _______ _______ _____ _____    ______ ____
ROOT
ATOM      1  C   UNL     1       1.105   9.085  19.977  0.00  0.00    +0.000 A 
ATOM      2  C   UNL     1       0.593   9.804  18.764  0.00  0.00    +0.000 A 
ATOM      3  C   UNL     1      -0.160  10.884  19.019  0.00  0.00    +0.000 A 
ATOM      4  N   UNL     1      -0.386  11.257  20.336  0.00  0.00    +0.000 N 
ATOM      5  C   UNL     1      -1.123  12.291  20.845  0.00  0.00    +0.000 A 
ATOM      6  C   UNL     1      -0.982  12.201  22.214  0.00  0.00    +0.000 A 
ATOM      7  N   UNL     1      -0.181  11.130  22.548  0.00  0.00    +0.000 NA
ATOM      8  C   UNL     1       0.157  10.558  21.412  0.00  0.00    +0.000 A 
ATOM      9  N   UNL     1       0.910   9.442  21.215  0.00  0.00    +0.000 NA
ENDROOT
BRANCH   1  17
ATOM     10  C   UNL     1       4.123   2.561  19.666  0.00  0.00    +0.000 C 
ATOM     11  C   UNL     1       3.783   4.000  19.366  0.00  0.00    +0.000 A 
ATOM     12  C   UNL     1       4.413   4.604  18.147  0.00  0.00    +0.000 A 
ATOM     13  C   UNL     1       4.079   5.877  17.872  0.00  0.00    +0.000 A 
ATOM     14  C   UNL     1       4.612   6.632  16.695  0.00  0.00    +0.000 C 
ATOM     15  N   UNL     1       3.188   6.534  18.725  0.00  0.00    +0.000 N 
ATOM     16  N   UNL     1       2.702   7.786  18.632  0.00  0.00    +0.000 NA
ATOM     17  C   UNL     1       1.884   7.877  19.690  0.00  0.00    +0.000 A 
ATOM     18  N   UNL     1       1.847   6.741  20.470  0.00  0.00    +0.000 NA
ATOM     19  C   UNL     1       2.655   5.904  19.854  0.00  0.00    +0.000 A 
ATOM     20  N   UNL     1       2.966   4.613  20.171  0.00  0.00    +0.000 NA
ENDBRANCH   1  17
BRANCH   6  21
ATOM     21  C   UNL     1      -1.593  13.084  23.195  0.00  0.00    +0.000 A 
ATOM     22  C   UNL     1      -2.931  12.916  23.543  0.00  0.00    +0.000 A 
ATOM     23  C   UNL     1      -3.498  13.785  24.470  0.00  0.00    +0.000 A 
ATOM     24  C   UNL     1      -2.716  14.793  25.020  0.00  0.00    +0.000 A 
ATOM     25  C   UNL     1      -1.393  14.888  24.621  0.00  0.00    +0.000 A 
ATOM     26  N   UNL     1      -0.811  14.060  23.725  0.00  0.00    +0.000 NA
ENDBRANCH   6  21
TORSDOF 2
ENDMDL
MODEL 5
REMARK VINA RESULT:      -7.8      2.564     10.414
REMARK  Name = 
REMARK  4 active torsions:
REMARK  status: ('A' for Active; 'I' for Inactive)
REMARK    1  A    between atoms: C_1  and  C_2
REMARK    2  A    between atoms: C_4  and  C_5
REMARK    3  A    between atoms: C_8  and  C_9
REMARK    4  A    between atoms: C_14  and  C_15
REMARK                            x       y       z     vdW  Elec       q    Type
REMARK                         _______ _______ _______ _____ _____    ______ ____
ROOT
ATOM      1  C   UNL     1       1.227   9.306  19.817  0.00  0.00    +0.000 A 
ATOM      2  C   UNL     1       1.103  10.276  18.680  0.00  0.00    +0.000 A 
ATOM      3  C   UNL     1       0.485  11.428  18.981  0.00  0.00    +0.000 A 
ATOM      4  N   UNL     1       0.040  11.639  20.278  0.00  0.00    +0.000 N 
ATOM      5  C   UNL     1      -0.624  12.706  20.818  0.00  0.00    +0.000 A 
ATOM      6  C   UNL     1      -0.796  12.392  22.150  0.00  0.00    +0.000 A 
ATOM      7  N   UNL     1      -0.257  11.155  22.428  0.00  0.00    +0.000 NA
ATOM      8  C   UNL     1       0.227  10.703  21.291  0.00  0.00    +0.000 A 
ATOM      9  N   UNL     1       0.827   9.507  21.040  0.00  0.00    +0.000 NA
ENDROOT
BRANCH   1  17
ATOM     10  C   UNL     1       4.891   3.810  16.962  0.00  0.00    +0.000 C 
ATOM     11  C   UNL     1       4.020   4.630  17.882  0.00  0.00    +0.000 A 
ATOM     12  C   UNL     1       3.573   3.973  19.153  0.00  0.00    +0.000 A 
ATOM     13  C   UNL     1       2.823   4.723  19.979  0.00  0.00    +0.000 A 
ATOM     14  C   UNL     1       2.294   4.228  21.289  0.00  0.00    +0.000 C 
ATOM     15  N   UNL     1       2.519   6.034  19.603  0.00  0.00    +0.000 N 
ATOM     16  N   UNL     1       1.813   6.962  20.276  0.00  0.00    +0.000 NA
ATOM     17  C   UNL     1       1.858   8.029  19.467  0.00  0.00    +0.000 A 
ATOM     18  N   UNL     1       2.544   7.813  18.291  0.00  0.00    +0.000 NA
ATOM     19  C   UNL     1       2.963   6.569  18.390  0.00  0.00    +0.000 A 
ATOM     20  N   UNL     1       3.726   5.844  17.521  0.00  0.00    +0.000 NA
ENDBRANCH   1  17
BRANCH   6  21
ATOM     21  C   UNL     1      -1.463  13.221  23.142  0.00  0.00    +0.000 A 
ATOM     22  C   UNL     1      -2.780  12.946  23.505  0.00  0.00    +0.000 A 
ATOM     23  C   UNL     1      -3.403  13.764  24.443  0.00  0.00    +0.000 A 
ATOM     24  C   UNL     1      -2.696  14.828  24.989  0.00  0.00    +0.000 A 
ATOM     25  C   UNL     1      -1.389  15.029  24.575  0.00  0.00    +0.000 A 
ATOM     26  N   UNL     1      -0.755  14.253  23.668  0.00  0.00    +0.000 NA
ENDBRANCH   6  21
TORSDOF 2
ENDMDL
MODEL 6
REMARK VINA RESULT:      -7.8      1.823      3.162
REMARK  Name = 
REMARK  4 active torsions:
REMARK  status: ('A' for Active; 'I' for Inactive)
REMARK    1  A    between atoms: C_1  and  C_2
REMARK    2  A    between atoms: C_4  and  C_5
REMARK    3  A    between atoms: C_8  and  C_9
REMARK    4  A    between atoms: C_14  and  C_15
REMARK                            x       y       z     vdW  Elec       q    Type
REMARK                         _______ _______ _______ _____ _____    ______ ____
ROOT
ATOM      1  C   UNL     1       1.275   8.433  20.273  0.00  0.00    +0.000 A 
ATOM      2  C   UNL     1       1.191   7.229  21.163  0.00  0.00    +0.000 A 
ATOM      3  C   UNL     1       1.866   6.154  20.731  0.00  0.00    +0.000 A 
ATOM      4  N   UNL     1       2.584   6.236  19.546  0.00  0.00    +0.000 N 
ATOM      5  C   UNL     1       3.324   5.287  18.897  0.00  0.00    +0.000 A 
ATOM      6  C   UNL     1       3.832   5.919  17.782  0.00  0.00    +0.000 A 
ATOM      7  N   UNL     1       3.410   7.230  17.735  0.00  0.00    +0.000 NA
ATOM      8  C   UNL     1       2.644   7.405  18.791  0.00  0.00    +0.000 A 
ATOM      9  N   UNL     1       1.962   8.520  19.169  0.00  0.00    +0.000 NA
ENDROOT
BRANCH   1  17
ATOM     10  C   UNL     1      -1.638  14.072  23.662  0.00  0.00    +0.000 C 
ATOM     11  C   UNL     1      -1.359  13.005  22.633  0.00  0.00    +0.000 A 
ATOM     12  C   UNL     1      -2.125  13.088  21.347  0.00  0.00    +0.000 A 
ATOM     13  C   UNL     1      -1.845  12.149  20.426  0.00  0.00    +0.000 A 
ATOM     14  C   UNL     1      -2.514  12.084  19.088  0.00  0.00    +0.000 C 
ATOM     15  N   UNL     1      -0.881  11.183  20.725  0.00  0.00    +0.000 N 
ATOM     16  N   UNL     1      -0.431  10.175  19.955  0.00  0.00    +0.000 NA
ATOM     17  C   UNL     1       0.493   9.587  20.727  0.00  0.00    +0.000 A 
ATOM     18  N   UNL     1       0.632  10.163  21.972  0.00  0.00    +0.000 NA
ATOM     19  C   UNL     1      -0.221  11.165  21.957  0.00  0.00    +0.000 A 
ATOM     20  N   UNL     1      -0.472  12.097  22.922  0.00  0.00    +0.000 NA
ENDBRANCH   1  17
BRANCH   6  21
ATOM     21  C   UNL     1       4.682   5.311  16.769  0.00  0.00    +0.000 A 
ATOM     22  C   UNL     1       5.251   6.102  15.774  0.00  0.00    +0.000 A 
ATOM     23  C   UNL     1       6.045   5.495  14.806  0.00  0.00    +0.000 A 
ATOM     24  C   UNL     1       6.246   4.122  14.859  0.00  0.00    +0.000 A 
ATOM     25  C   UNL     1       5.646   3.409  15.884  0.00  0.00    +0.000 A 
ATOM     26  N   UNL     1       4.871   3.968  16.840  0.00  0.00    +0.000 NA
ENDBRANCH   6  21
TORSDOF 2
ENDMDL
MODEL 7
REMARK VINA RESULT:      -7.8      1.112      1.971
REMARK  Name = 
REMARK  4 active torsions:
REMARK  status: ('A' for Active; 'I' for Inactive)
REMARK    1  A    between atoms: C_1  and  C_2
REMARK    2  A    between atoms: C_4  and  C_5
REMARK    3  A    between atoms: C_8  and  C_9
REMARK    4  A    between atoms: C_14  and  C_15
REMARK                            x       y       z     vdW  Elec       q    Type
REMARK                         _______ _______ _______ _____ _____    ______ ____
ROOT
ATOM      1  C   UNL     1       2.511   7.509  18.954  0.00  0.00    +0.000 A 
ATOM      2  C   UNL     1       2.605   6.231  19.733  0.00  0.00    +0.000 A 
ATOM      3  C   UNL     1       3.330   5.264  19.151  0.00  0.00    +0.000 A 
ATOM      4  N   UNL     1       3.935   5.513  17.927  0.00  0.00    +0.000 N 
ATOM      5  C   UNL     1       4.695   4.695  17.138  0.00  0.00    +0.000 A 
ATOM      6  C   UNL     1       5.051   5.464  16.051  0.00  0.00    +0.000 A 
ATOM      7  N   UNL     1       4.517   6.730  16.158  0.00  0.00    +0.000 NA
ATOM      8  C   UNL     1       3.832   6.742  17.282  0.00  0.00    +0.000 A 
ATOM      9  N   UNL     1       3.091   7.754  17.813  0.00  0.00    +0.000 NA
ENDROOT
BRANCH   1  17
ATOM     10  C   UNL     1      -1.813  13.023  20.588  0.00  0.00    +0.000 C 
ATOM     11  C   UNL     1      -0.925  11.810  20.715  0.00  0.00    +0.000 A 
ATOM     12  C   UNL     1      -0.816  11.191  22.077  0.00  0.00    +0.000 A 
ATOM     13  C   UNL     1      -0.046  10.093  22.171  0.00  0.00    +0.000 A 
ATOM     14  C   UNL     1       0.171   9.349  23.452  0.00  0.00    +0.000 C 
ATOM     15  N   UNL     1       0.585   9.616  21.020  0.00  0.00    +0.000 N 
ATOM     16  N   UNL     1       1.372   8.534  20.878  0.00  0.00    +0.000 NA
ATOM     17  C   UNL     1       1.675   8.543  19.572  0.00  0.00    +0.000 A 
ATOM     18  N   UNL     1       1.132   9.604  18.878  0.00  0.00    +0.000 NA
ATOM     19  C   UNL     1       0.444  10.261  19.787  0.00  0.00    +0.000 A 
ATOM     20  N   UNL     1      -0.327  11.378  19.644  0.00  0.00    +0.000 NA
ENDBRANCH   1  17
BRANCH   6  21
ATOM     21  C   UNL     1       5.860   5.027  14.923  0.00  0.00    +0.000 A 
ATOM     22  C   UNL     1       5.368   4.062  14.047  0.00  0.00    +0.000 A 
ATOM     23  C   UNL     1       6.167   3.646  12.987  0.00  0.00    +0.000 A 
ATOM     24  C   UNL     1       7.430   4.203  12.833  0.00  0.00    +0.000 A 
ATOM     25  C   UNL     1       7.841   5.160  13.746  0.00  0.00    +0.000 A 
ATOM     26  N   UNL     1       7.089   5.587  14.785  0.00  0.00    +0.000 NA
ENDBRANCH   6  21
TORSDOF 2
ENDMDL
MODEL 8
REMARK VINA RESULT:      -7.7      1.929      9.525
REMARK  Name = 
REMARK  4 active torsions:
REMARK  status: ('A' for Active; 'I' for Inactive)
REMARK    1  A    between atoms: C_1  and  C_2
REMARK    2  A    between atoms: C_4  and  C_5
REMARK    3  A    between atoms: C_8  and  C_9
REMARK    4  A    between atoms: C_14  and  C_15
REMARK                            x       y       z     vdW  Elec       q    Type
REMARK                         _______ _______ _______ _____ _____    ______ ____
ROOT
ATOM      1  C   UNL     1       2.198   7.813  18.998  0.00  0.00    +0.000 A 
ATOM      2  C   UNL     1       1.918   7.266  20.366  0.00  0.00    +0.000 A 
ATOM      3  C   UNL     1       1.175   8.058  21.153  0.00  0.00    +0.000 A 
ATOM      4  N   UNL     1       0.719   9.271  20.657  0.00  0.00    +0.000 N 
ATOM      5  C   UNL     1      -0.026  10.245  21.263  0.00  0.00    +0.000 A 
ATOM      6  C   UNL     1      -0.204  11.218  20.301  0.00  0.00    +0.000 A 
ATOM      7  N   UNL     1       0.422  10.858  19.128  0.00  0.00    +0.000 NA
ATOM      8  C   UNL     1       0.991   9.694  19.359  0.00  0.00    +0.000 A 
ATOM      9  N   UNL     1       1.758   8.943  18.522  0.00  0.00    +0.000 NA
ENDROOT
BRANCH   1  17
ATOM     10  C   UNL     1       7.043   4.933  14.524  0.00  0.00    +0.000 C 
ATOM     11  C   UNL     1       5.917   5.080  15.518  0.00  0.00    +0.000 A 
ATOM     12  C   UNL     1       5.348   3.815  16.087  0.00  0.00    +0.000 A 
ATOM     13  C   UNL     1       4.366   3.959  16.994  0.00  0.00    +0.000 A 
ATOM     14  C   UNL     1       3.689   2.804  17.664  0.00  0.00    +0.000 C 
ATOM     15  N   UNL     1       3.953   5.249  17.335  0.00  0.00    +0.000 N 
ATOM     16  N   UNL     1       3.016   5.627  18.225  0.00  0.00    +0.000 NA
ATOM     17  C   UNL     1       3.053   6.965  18.162  0.00  0.00    +0.000 A 
ATOM     18  N   UNL     1       3.961   7.458  17.248  0.00  0.00    +0.000 NA
ATOM     19  C   UNL     1       4.525   6.381  16.746  0.00  0.00    +0.000 A 
ATOM     20  N   UNL     1       5.525   6.283  15.821  0.00  0.00    +0.000 NA
ENDBRANCH   1  17
BRANCH   6  21
ATOM     21  C   UNL     1      -0.931  12.466  20.475  0.00  0.00    +0.000 A 
ATOM     22  C   UNL     1      -2.168  12.468  21.113  0.00  0.00    +0.000 A 
ATOM     23  C   UNL     1      -2.852  13.671  21.251  0.00  0.00    +0.000 A 
ATOM     24  C   UNL     1      -2.283  14.834  20.749  0.00  0.00    +0.000 A 
ATOM     25  C   UNL     1      -1.046  14.746  20.131  0.00  0.00    +0.000 A 
ATOM     26  N   UNL     1      -0.355  13.594  19.983  0.00  0.00    +0.000 NA
ENDBRANCH   6  21
TORSDOF 2
ENDMDL
MODEL 9
REMARK VINA RESULT:      -7.7      2.399     10.463
REMARK  Name = 
REMARK  4 active torsions:
REMARK  status: ('A' for Active; 'I' for Inactive)
REMARK    1  A    between atoms: C_1  and  C_2
REMARK    2  A    between atoms: C_4  and  C_5
REMARK    3  A    between atoms: C_8  and  C_9
REMARK    4  A    between atoms: C_14  and  C_15
REMARK                            x       y       z     vdW  Elec       q    Type
REMARK                         _______ _______ _______ _____ _____    ______ ____
ROOT
ATOM      1  C   UNL     1       1.190   9.162  19.775  0.00  0.00    +0.000 A 
ATOM      2  C   UNL     1       1.163  10.227  18.720  0.00  0.00    +0.000 A 
ATOM      3  C   UNL     1       0.459  11.324  19.037  0.00  0.00    +0.000 A 
ATOM      4  N   UNL     1      -0.152  11.400  20.280  0.00  0.00    +0.000 N 
ATOM      5  C   UNL     1      -0.927  12.390  20.820  0.00  0.00    +0.000 A 
ATOM      6  C   UNL     1      -1.248  11.950  22.087  0.00  0.00    +0.000 A 
ATOM      7  N   UNL     1      -0.692  10.712  22.325  0.00  0.00    +0.000 NA
ATOM      8  C   UNL     1      -0.050  10.383  21.224  0.00  0.00    +0.000 A 
ATOM      9  N   UNL     1       0.632   9.237  20.950  0.00  0.00    +0.000 NA
ENDROOT
BRANCH   1  17
ATOM     10  C   UNL     1       5.332   4.050  16.863  0.00  0.00    +0.000 C 
ATOM     11  C   UNL     1       4.367   4.768  17.774  0.00  0.00    +0.000 A 
ATOM     12  C   UNL     1       3.905   4.024  18.991  0.00  0.00    +0.000 A 
ATOM     13  C   UNL     1       3.069   4.686  19.811  0.00  0.00    +0.000 A 
ATOM     14  C   UNL     1       2.513   4.096  21.069  0.00  0.00    +0.000 C 
ATOM     15  N   UNL     1       2.700   5.992  19.480  0.00  0.00    +0.000 N 
ATOM     16  N   UNL     1       1.904   6.840  20.157  0.00  0.00    +0.000 NA
ATOM     17  C   UNL     1       1.917   7.946  19.400  0.00  0.00    +0.000 A 
ATOM     18  N   UNL     1       2.671   7.829  18.251  0.00  0.00    +0.000 NA
ATOM     19  C   UNL     1       3.164   6.611  18.315  0.00  0.00    +0.000 A 
ATOM     20  N   UNL     1       4.013   5.978  17.454  0.00  0.00    +0.000 NA
ENDBRANCH   1  17
BRANCH   6  21
ATOM     21  C   UNL     1      -2.072  12.660  23.054  0.00  0.00    +0.000 A 
ATOM     22  C   UNL     1      -1.670  13.907  23.526  0.00  0.00    +0.000 A 
ATOM     23  C   UNL     1      -2.465  14.559  24.464  0.00  0.00    +0.000 A 
ATOM     24  C   UNL     1      -3.633  13.948  24.901  0.00  0.00    +0.000 A 
ATOM     25  C   UNL     1      -3.962  12.709  24.378  0.00  0.00    +0.000 A 
ATOM     26  N   UNL     1      -3.213  12.050  23.466  0.00  0.00    +0.000 NA
ENDBRANCH   6  21
TORSDOF 2
ENDMDL
