MODEL 1
REMARK VINA RESULT:      -7.8      0.000      0.000
REMARK  Name = 
REMARK  6 active torsions:
REMARK  status: ('A' for Active; 'I' for Inactive)
REMARK    1  A    between atoms: C_1  and  C_2
REMARK    2  A    between atoms: C_2  and  C_3
REMARK    3  A    between atoms: C_2  and  C_4
REMARK    4  A    between atoms: C_2  and  C_5
REMARK    5  A    between atoms: C_8  and  C_9
REMARK    6  A    between atoms: C_9  and  C_10
REMARK                            x       y       z     vdW  Elec       q    Type
REMARK                         _______ _______ _______ _____ _____    ______ ____
ROOT
ATOM      1  C   UNL     1       3.738   5.148  18.312  0.00  0.00    +0.000 C 
ATOM      2  C   UNL     1       4.604   4.365  19.393  0.00  0.00    +0.000 C 
ATOM      3  O   UNL     1       5.078   4.738  20.450  0.00  0.00    +0.000 OA
ATOM      4  N   UNL     1       4.697   3.032  18.911  0.00  0.00    +0.000 N 
ATOM      5  C   UNL     1       3.486   2.781  18.220  0.00  0.00    +0.000 A 
ATOM      6  C   UNL     1       2.970   1.493  18.246  0.00  0.00    +0.000 A 
ATOM      7  C   UNL     1       1.630   1.380  18.574  0.00  0.00    +0.000 A 
ATOM      8  C   UNL     1       0.868   2.543  18.793  0.00  0.00    +0.000 A 
ATOM      9  C   UNL     1       1.392   3.843  18.566  0.00  0.00    +0.000 A 
ATOM     10  C   UNL     1       2.728   3.973  18.199  0.00  0.00    +0.000 A 
ATOM     11  H   UNL     1       5.499   2.876  18.304  0.00  0.00    +0.000 HD
ENDROOT
BRANCH   1  15
ATOM     12  C   UNL     1       1.520   8.938  18.781  0.00  0.00    +0.000 A 
ATOM     13  C   UNL     1       1.834   8.130  19.894  0.00  0.00    +0.000 A 
ATOM     14  C   UNL     1       2.713   7.006  19.801  0.00  0.00    +0.000 A 
ATOM     15  C   UNL     1       3.316   6.623  18.583  0.00  0.00    +0.000 A 
ATOM     16  C   UNL     1       3.073   7.495  17.505  0.00  0.00    +0.000 A 
ATOM     17  C   UNL     1       2.191   8.593  17.593  0.00  0.00    +0.000 A 
BRANCH  12  19
ATOM     18  C   UNL     1      -0.609   9.953  17.751  0.00  0.00    +0.000 C 
ATOM     19  C   UNL     1       0.501  10.110  18.818  0.00  0.00    +0.000 C 
ATOM     20  C   UNL     1       1.180  11.478  18.574  0.00  0.00    +0.000 C 
ATOM     21  C   UNL     1      -0.225  10.221  20.185  0.00  0.00    +0.000 C 
ENDBRANCH  12  19
ENDBRANCH   1  15
BRANCH   1  22
ATOM     22  C   UNL     1       4.784   5.281  17.127  0.00  0.00    +0.000 A 
ATOM     23  C   UNL     1       5.990   5.982  17.403  0.00  0.00    +0.000 A 
ATOM     24  C   UNL     1       6.973   6.171  16.440  0.00  0.00    +0.000 A 
ATOM     25  C   UNL     1       6.764   5.675  15.166  0.00  0.00    +0.000 A 
ATOM     26  C   UNL     1       5.583   4.987  14.868  0.00  0.00    +0.000 A 
ATOM     27  C   UNL     1       4.590   4.786  15.836  0.00  0.00    +0.000 A 
ENDBRANCH   1  22
TORSDOF 3
ENDMDL
MODEL 2
REMARK VINA RESULT:      -7.6      3.367      8.212
REMARK  Name = 
REMARK  6 active torsions:
REMARK  status: ('A' for Active; 'I' for Inactive)
REMARK    1  A    between atoms: C_1  and  C_2
REMARK    2  A    between atoms: C_2  and  C_3
REMARK    3  A    between atoms: C_2  and  C_4
REMARK    4  A    between atoms: C_2  and  C_5
REMARK    5  A    between atoms: C_8  and  C_9
REMARK    6  A    between atoms: C_9  and  C_10
REMARK                            x       y       z     vdW  Elec       q    Type
REMARK                         _______ _______ _______ _____ _____    ______ ____
ROOT
ATOM      1  C   UNL     1      -0.154  10.509  19.061  0.00  0.00    +0.000 C 
ATOM      2  C   UNL     1      -0.099  12.052  18.679  0.00  0.00    +0.000 C 
ATOM      3  O   UNL     1       0.839  12.753  18.347  0.00  0.00    +0.000 OA
ATOM      4  N   UNL     1      -1.443  12.507  18.741  0.00  0.00    +0.000 N 
ATOM      5  C   UNL     1      -2.246  11.404  18.357  0.00  0.00    +0.000 A 
ATOM      6  C   UNL     1      -3.424  11.657  17.667  0.00  0.00    +0.000 A 
ATOM      7  C   UNL     1      -3.629  10.915  16.518  0.00  0.00    +0.000 A 
ATOM      8  C   UNL     1      -2.695   9.927  16.153  0.00  0.00    +0.000 A 
ATOM      9  C   UNL     1      -1.606   9.572  16.991  0.00  0.00    +0.000 A 
ATOM     10  C   UNL     1      -1.407  10.283  18.171  0.00  0.00    +0.000 A 
ATOM     11  H   UNL     1      -1.713  12.848  19.661  0.00  0.00    +0.000 HD
ENDROOT
BRANCH   1  15
ATOM     12  C   UNL     1       2.779   7.270  18.420  0.00  0.00    +0.000 A 
ATOM     13  C   UNL     1       2.608   8.302  17.474  0.00  0.00    +0.000 A 
ATOM     14  C   UNL     1       1.814   9.461  17.739  0.00  0.00    +0.000 A 
ATOM     15  C   UNL     1       1.138   9.644  18.965  0.00  0.00    +0.000 A 
ATOM     16  C   UNL     1       1.398   8.657  19.935  0.00  0.00    +0.000 A 
ATOM     17  C   UNL     1       2.166   7.504  19.666  0.00  0.00    +0.000 A 
BRANCH  12  19
ATOM     18  C   UNL     1       2.611   4.786  17.769  0.00  0.00    +0.000 C 
ATOM     19  C   UNL     1       3.556   5.954  18.141  0.00  0.00    +0.000 C 
ATOM     20  C   UNL     1       4.388   5.499  19.363  0.00  0.00    +0.000 C 
ATOM     21  C   UNL     1       4.555   6.095  16.962  0.00  0.00    +0.000 C 
ENDBRANCH  12  19
ENDBRANCH   1  15
BRANCH   1  22
ATOM     22  C   UNL     1      -0.418  10.595  20.623  0.00  0.00    +0.000 A 
ATOM     23  C   UNL     1      -0.563   9.368  21.325  0.00  0.00    +0.000 A 
ATOM     24  C   UNL     1      -0.809   9.321  22.692  0.00  0.00    +0.000 A 
ATOM     25  C   UNL     1      -0.931  10.509  23.389  0.00  0.00    +0.000 A 
ATOM     26  C   UNL     1      -0.799  11.730  22.719  0.00  0.00    +0.000 A 
ATOM     27  C   UNL     1      -0.545  11.786  21.343  0.00  0.00    +0.000 A 
ENDBRANCH   1  22
TORSDOF 3
ENDMDL
MODEL 3
REMARK VINA RESULT:      -7.4      3.318      8.147
REMARK  Name = 
REMARK  6 active torsions:
REMARK  status: ('A' for Active; 'I' for Inactive)
REMARK    1  A    between atoms: C_1  and  C_2
REMARK    2  A    between atoms: C_2  and  C_3
REMARK    3  A    between atoms: C_2  and  C_4
REMARK    4  A    between atoms: C_2  and  C_5
REMARK    5  A    between atoms: C_8  and  C_9
REMARK    6  A    between atoms: C_9  and  C_10
REMARK                            x       y       z     vdW  Elec       q    Type
REMARK                         _______ _______ _______ _____ _____    ______ ____
ROOT
ATOM      1  C   UNL     1      -0.121  10.374  19.087  0.00  0.00    +0.000 C 
ATOM      2  C   UNL     1      -0.069  11.936  18.791  0.00  0.00    +0.000 C 
ATOM      3  O   UNL     1       0.871  12.659  18.514  0.00  0.00    +0.000 OA
ATOM      4  N   UNL     1      -1.417  12.379  18.854  0.00  0.00    +0.000 N 
ATOM      5  C   UNL     1      -2.206  11.296  18.396  0.00  0.00    +0.000 A 
ATOM      6  C   UNL     1      -3.373  11.580  17.701  0.00  0.00    +0.000 A 
ATOM      7  C   UNL     1      -3.554  10.901  16.509  0.00  0.00    +0.000 A 
ATOM      8  C   UNL     1      -2.607   9.940  16.106  0.00  0.00    +0.000 A 
ATOM      9  C   UNL     1      -1.531   9.545  16.943  0.00  0.00    +0.000 A 
ATOM     10  C   UNL     1      -1.357  10.190  18.163  0.00  0.00    +0.000 A 
ATOM     11  H   UNL     1      -1.705  12.668  19.787  0.00  0.00    +0.000 HD
ENDROOT
BRANCH   1  15
ATOM     12  C   UNL     1       2.833   7.166  18.384  0.00  0.00    +0.000 A 
ATOM     13  C   UNL     1       2.637   8.201  17.445  0.00  0.00    +0.000 A 
ATOM     14  C   UNL     1       1.836   9.351  17.728  0.00  0.00    +0.000 A 
ATOM     15  C   UNL     1       1.178   9.521  18.966  0.00  0.00    +0.000 A 
ATOM     16  C   UNL     1       1.463   8.533  19.926  0.00  0.00    +0.000 A 
ATOM     17  C   UNL     1       2.238   7.389  19.640  0.00  0.00    +0.000 A 
BRANCH  12  19
ATOM     18  C   UNL     1       4.604   6.027  16.904  0.00  0.00    +0.000 C 
ATOM     19  C   UNL     1       3.618   5.860  18.086  0.00  0.00    +0.000 C 
ATOM     20  C   UNL     1       2.677   4.683  17.736  0.00  0.00    +0.000 C 
ATOM     21  C   UNL     1       4.470   5.391  19.296  0.00  0.00    +0.000 C 
ENDBRANCH  12  19
ENDBRANCH   1  15
BRANCH   1  22
ATOM     22  C   UNL     1      -0.412  10.372  20.646  0.00  0.00    +0.000 A 
ATOM     23  C   UNL     1      -0.525  11.636  21.286  0.00  0.00    +0.000 A 
ATOM     24  C   UNL     1      -0.767  11.758  22.649  0.00  0.00    +0.000 A 
ATOM     25  C   UNL     1      -0.886  10.608  23.410  0.00  0.00    +0.000 A 
ATOM     26  C   UNL     1      -0.773   9.353  22.804  0.00  0.00    +0.000 A 
ATOM     27  C   UNL     1      -0.535   9.222  21.430  0.00  0.00    +0.000 A 
ENDBRANCH   1  22
TORSDOF 3
ENDMDL
MODEL 4
REMARK VINA RESULT:      -7.4      1.696      6.529
REMARK  Name = 
REMARK  6 active torsions:
REMARK  status: ('A' for Active; 'I' for Inactive)
REMARK    1  A    between atoms: C_1  and  C_2
REMARK    2  A    between atoms: C_2  and  C_3
REMARK    3  A    between atoms: C_2  and  C_4
REMARK    4  A    between atoms: C_2  and  C_5
REMARK    5  A    between atoms: C_8  and  C_9
REMARK    6  A    between atoms: C_9  and  C_10
REMARK                            x       y       z     vdW  Elec       q    Type
REMARK                         _______ _______ _______ _____ _____    ______ ____
ROOT
ATOM      1  C   UNL     1       4.057   5.253  17.913  0.00  0.00    +0.000 C 
ATOM      2  C   UNL     1       4.705   5.572  19.331  0.00  0.00    +0.000 C 
ATOM      3  O   UNL     1       5.868   5.577  19.688  0.00  0.00    +0.000 OA
ATOM      4  N   UNL     1       3.618   5.932  20.171  0.00  0.00    +0.000 N 
ATOM      5  C   UNL     1       2.670   6.569  19.333  0.00  0.00    +0.000 A 
ATOM      6  C   UNL     1       1.901   7.593  19.870  0.00  0.00    +0.000 A 
ATOM      7  C   UNL     1       1.838   8.760  19.130  0.00  0.00    +0.000 A 
ATOM      8  C   UNL     1       2.483   8.827  17.880  0.00  0.00    +0.000 A 
ATOM      9  C   UNL     1       3.095   7.692  17.286  0.00  0.00    +0.000 A 
ATOM     10  C   UNL     1       3.134   6.499  18.000  0.00  0.00    +0.000 A 
ATOM     11  H   UNL     1       3.199   5.139  20.654  0.00  0.00    +0.000 HD
ENDROOT
BRANCH   1  15
ATOM     12  C   UNL     1       5.682   4.176  13.950  0.00  0.00    +0.000 A 
ATOM     13  C   UNL     1       5.531   5.523  14.339  0.00  0.00    +0.000 A 
ATOM     14  C   UNL     1       5.195   5.902  15.676  0.00  0.00    +0.000 A 
ATOM     15  C   UNL     1       4.980   4.949  16.694  0.00  0.00    +0.000 A 
ATOM     16  C   UNL     1       5.231   3.616  16.318  0.00  0.00    +0.000 A 
ATOM     17  C   UNL     1       5.544   3.242  14.994  0.00  0.00    +0.000 A 
BRANCH  12  19
ATOM     18  C   UNL     1       7.092   4.532  11.827  0.00  0.00    +0.000 C 
ATOM     19  C   UNL     1       5.956   3.717  12.492  0.00  0.00    +0.000 C 
ATOM     20  C   UNL     1       4.705   3.858  11.593  0.00  0.00    +0.000 C 
ATOM     21  C   UNL     1       6.387   2.228  12.409  0.00  0.00    +0.000 C 
ENDBRANCH  12  19
ENDBRANCH   1  15
BRANCH   1  22
ATOM     22  C   UNL     1       3.368   3.855  18.204  0.00  0.00    +0.000 A 
ATOM     23  C   UNL     1       1.978   3.746  17.925  0.00  0.00    +0.000 A 
ATOM     24  C   UNL     1       1.267   2.574  18.151  0.00  0.00    +0.000 A 
ATOM     25  C   UNL     1       1.930   1.482  18.682  0.00  0.00    +0.000 A 
ATOM     26  C   UNL     1       3.296   1.567  18.971  0.00  0.00    +0.000 A 
ATOM     27  C   UNL     1       4.022   2.742  18.739  0.00  0.00    +0.000 A 
ENDBRANCH   1  22
TORSDOF 3
ENDMDL
MODEL 5
REMARK VINA RESULT:      -7.3      1.908      4.235
REMARK  Name = 
REMARK  6 active torsions:
REMARK  status: ('A' for Active; 'I' for Inactive)
REMARK    1  A    between atoms: C_1  and  C_2
REMARK    2  A    between atoms: C_2  and  C_3
REMARK    3  A    between atoms: C_2  and  C_4
REMARK    4  A    between atoms: C_2  and  C_5
REMARK    5  A    between atoms: C_8  and  C_9
REMARK    6  A    between atoms: C_9  and  C_10
REMARK                            x       y       z     vdW  Elec       q    Type
REMARK                         _______ _______ _______ _____ _____    ______ ____
ROOT
ATOM      1  C   UNL     1       2.943   5.194  18.564  0.00  0.00    +0.000 C 
ATOM      2  C   UNL     1       1.973   4.648  17.428  0.00  0.00    +0.000 C 
ATOM      3  O   UNL     1       0.935   5.105  16.985  0.00  0.00    +0.000 OA
ATOM      4  N   UNL     1       2.592   3.470  16.934  0.00  0.00    +0.000 N 
ATOM      5  C   UNL     1       3.988   3.686  17.045  0.00  0.00    +0.000 A 
ATOM      6  C   UNL     1       4.819   3.120  16.088  0.00  0.00    +0.000 A 
ATOM      7  C   UNL     1       5.754   3.964  15.516  0.00  0.00    +0.000 A 
ATOM      8  C   UNL     1       5.855   5.295  15.964  0.00  0.00    +0.000 A 
ATOM      9  C   UNL     1       5.116   5.774  17.076  0.00  0.00    +0.000 A 
ATOM     10  C   UNL     1       4.198   4.926  17.689  0.00  0.00    +0.000 A 
ATOM     11  H   UNL     1       2.316   2.627  17.433  0.00  0.00    +0.000 HD
ENDROOT
BRANCH   1  15
ATOM     12  C   UNL     1       1.052   8.886  20.081  0.00  0.00    +0.000 A 
ATOM     13  C   UNL     1       1.256   7.769  20.918  0.00  0.00    +0.000 A 
ATOM     14  C   UNL     1       2.035   6.640  20.514  0.00  0.00    +0.000 A 
ATOM     15  C   UNL     1       2.643   6.565  19.243  0.00  0.00    +0.000 A 
ATOM     16  C   UNL     1       2.515   7.725  18.457  0.00  0.00    +0.000 A 
ATOM     17  C   UNL     1       1.730   8.831  18.848  0.00  0.00    +0.000 A 
BRANCH  12  19
ATOM     18  C   UNL     1      -0.506   9.932  21.841  0.00  0.00    +0.000 C 
ATOM     19  C   UNL     1       0.140  10.090  20.443  0.00  0.00    +0.000 C 
ATOM     20  C   UNL     1      -1.010  10.276  19.425  0.00  0.00    +0.000 C 
ATOM     21  C   UNL     1       0.916  11.433  20.475  0.00  0.00    +0.000 C 
ENDBRANCH  12  19
ENDBRANCH   1  15
BRANCH   1  22
ATOM     22  C   UNL     1       2.668   4.147  19.724  0.00  0.00    +0.000 A 
ATOM     23  C   UNL     1       1.314   3.943  20.106  0.00  0.00    +0.000 A 
ATOM     24  C   UNL     1       0.954   3.060  21.116  0.00  0.00    +0.000 A 
ATOM     25  C   UNL     1       1.950   2.368  21.783  0.00  0.00    +0.000 A 
ATOM     26  C   UNL     1       3.290   2.557  21.430  0.00  0.00    +0.000 A 
ATOM     27  C   UNL     1       3.660   3.440  20.407  0.00  0.00    +0.000 A 
ENDBRANCH   1  22
TORSDOF 3
ENDMDL
MODEL 6
REMARK VINA RESULT:      -7.2      1.935      4.172
REMARK  Name = 
REMARK  6 active torsions:
REMARK  status: ('A' for Active; 'I' for Inactive)
REMARK    1  A    between atoms: C_1  and  C_2
REMARK    2  A    between atoms: C_2  and  C_3
REMARK    3  A    between atoms: C_2  and  C_4
REMARK    4  A    between atoms: C_2  and  C_5
REMARK    5  A    between atoms: C_8  and  C_9
REMARK    6  A    between atoms: C_9  and  C_10
REMARK                            x       y       z     vdW  Elec       q    Type
REMARK                         _______ _______ _______ _____ _____    ______ ____
ROOT
ATOM      1  C   UNL     1       2.869   5.216  18.604  0.00  0.00    +0.000 C 
ATOM      2  C   UNL     1       1.908   4.689  17.450  0.00  0.00    +0.000 C 
ATOM      3  O   UNL     1       0.891   5.169  16.986  0.00  0.00    +0.000 OA
ATOM      4  N   UNL     1       2.510   3.495  16.972  0.00  0.00    +0.000 N 
ATOM      5  C   UNL     1       3.908   3.679  17.109  0.00  0.00    +0.000 A 
ATOM      6  C   UNL     1       4.744   3.091  16.171  0.00  0.00    +0.000 A 
ATOM      7  C   UNL     1       5.709   3.911  15.614  0.00  0.00    +0.000 A 
ATOM      8  C   UNL     1       5.833   5.241  16.060  0.00  0.00    +0.000 A 
ATOM      9  C   UNL     1       5.083   5.741  17.157  0.00  0.00    +0.000 A 
ATOM     10  C   UNL     1       4.135   4.916  17.754  0.00  0.00    +0.000 A 
ATOM     11  H   UNL     1       2.204   2.660  17.468  0.00  0.00    +0.000 HD
ENDROOT
BRANCH   1  15
ATOM     12  C   UNL     1       1.028   8.943  20.097  0.00  0.00    +0.000 A 
ATOM     13  C   UNL     1       1.221   7.830  20.942  0.00  0.00    +0.000 A 
ATOM     14  C   UNL     1       1.985   6.688  20.545  0.00  0.00    +0.000 A 
ATOM     15  C   UNL     1       2.588   6.596  19.272  0.00  0.00    +0.000 A 
ATOM     16  C   UNL     1       2.472   7.752  18.478  0.00  0.00    +0.000 A 
ATOM     17  C   UNL     1       1.701   8.870  18.863  0.00  0.00    +0.000 A 
BRANCH  12  19
ATOM     18  C   UNL     1       0.921  11.492  20.432  0.00  0.00    +0.000 C 
ATOM     19  C   UNL     1       0.132  10.160  20.453  0.00  0.00    +0.000 C 
ATOM     20  C   UNL     1      -0.503  10.025  21.857  0.00  0.00    +0.000 C 
ATOM     21  C   UNL     1      -1.046  10.340  19.458  0.00  0.00    +0.000 C 
ENDBRANCH  12  19
ENDBRANCH   1  15
BRANCH   1  22
ATOM     22  C   UNL     1       2.547   4.180  19.760  0.00  0.00    +0.000 A 
ATOM     23  C   UNL     1       3.639   3.442  20.293  0.00  0.00    +0.000 A 
ATOM     24  C   UNL     1       3.475   2.499  21.300  0.00  0.00    +0.000 A 
ATOM     25  C   UNL     1       2.203   2.259  21.789  0.00  0.00    +0.000 A 
ATOM     26  C   UNL     1       1.112   2.967  21.276  0.00  0.00    +0.000 A 
ATOM     27  C   UNL     1       1.270   3.925  20.266  0.00  0.00    +0.000 A 
ENDBRANCH   1  22
TORSDOF 3
ENDMDL
MODEL 7
REMARK VINA RESULT:      -7.2      3.541      8.393
REMARK  Name = 
REMARK  6 active torsions:
REMARK  status: ('A' for Active; 'I' for Inactive)
REMARK    1  A    between atoms: C_1  and  C_2
REMARK    2  A    between atoms: C_2  and  C_3
REMARK    3  A    between atoms: C_2  and  C_4
REMARK    4  A    between atoms: C_2  and  C_5
REMARK    5  A    between atoms: C_8  and  C_9
REMARK    6  A    between atoms: C_9  and  C_10
REMARK                            x       y       z     vdW  Elec       q    Type
REMARK                         _______ _______ _______ _____ _____    ______ ____
ROOT
ATOM      1  C   UNL     1      -0.443  10.725  19.008  0.00  0.00    +0.000 C 
ATOM      2  C   UNL     1      -0.403  12.231  18.497  0.00  0.00    +0.000 C 
ATOM      3  O   UNL     1       0.525  12.905  18.089  0.00  0.00    +0.000 OA
ATOM      4  N   UNL     1      -1.748  12.684  18.546  0.00  0.00    +0.000 N 
ATOM      5  C   UNL     1      -2.552  11.551  18.271  0.00  0.00    +0.000 A 
ATOM      6  C   UNL     1      -3.744  11.741  17.585  0.00  0.00    +0.000 A 
ATOM      7  C   UNL     1      -3.966  10.904  16.507  0.00  0.00    +0.000 A 
ATOM      8  C   UNL     1      -3.034   9.892  16.207  0.00  0.00    +0.000 A 
ATOM      9  C   UNL     1      -1.928   9.613  17.052  0.00  0.00    +0.000 A 
ATOM     10  C   UNL     1      -1.711  10.421  18.164  0.00  0.00    +0.000 A 
ATOM     11  H   UNL     1      -2.003  13.101  19.439  0.00  0.00    +0.000 HD
ENDROOT
BRANCH   1  15
ATOM     12  C   UNL     1       2.496   7.456  18.575  0.00  0.00    +0.000 A 
ATOM     13  C   UNL     1       2.308   8.414  17.556  0.00  0.00    +0.000 A 
ATOM     14  C   UNL     1       1.512   9.587  17.743  0.00  0.00    +0.000 A 
ATOM     15  C   UNL     1       0.852   9.859  18.961  0.00  0.00    +0.000 A 
ATOM     16  C   UNL     1       1.128   8.949  19.998  0.00  0.00    +0.000 A 
ATOM     17  C   UNL     1       1.897   7.781  19.807  0.00  0.00    +0.000 A 
BRANCH  12  19
ATOM     18  C   UNL     1       3.843   5.587  19.720  0.00  0.00    +0.000 C 
ATOM     19  C   UNL     1       3.274   6.126  18.385  0.00  0.00    +0.000 C 
ATOM     20  C   UNL     1       4.464   6.283  17.410  0.00  0.00    +0.000 C 
ATOM     21  C   UNL     1       2.382   4.995  17.807  0.00  0.00    +0.000 C 
ENDBRANCH  12  19
ENDBRANCH   1  15
BRANCH   1  22
ATOM     22  C   UNL     1      -0.678  10.941  20.562  0.00  0.00    +0.000 A 
ATOM     23  C   UNL     1      -0.592  12.273  21.052  0.00  0.00    +0.000 A 
ATOM     24  C   UNL     1      -0.769  12.580  22.395  0.00  0.00    +0.000 A 
ATOM     25  C   UNL     1      -1.020  11.553  23.288  0.00  0.00    +0.000 A 
ATOM     26  C   UNL     1      -1.103  10.234  22.831  0.00  0.00    +0.000 A 
ATOM     27  C   UNL     1      -0.933   9.917  21.477  0.00  0.00    +0.000 A 
ENDBRANCH   1  22
TORSDOF 3
ENDMDL
MODEL 8
REMARK VINA RESULT:      -7.0      3.452      8.790
REMARK  Name = 
REMARK  6 active torsions:
REMARK  status: ('A' for Active; 'I' for Inactive)
REMARK    1  A    between atoms: C_1  and  C_2
REMARK    2  A    between atoms: C_2  and  C_3
REMARK    3  A    between atoms: C_2  and  C_4
REMARK    4  A    between atoms: C_2  and  C_5
REMARK    5  A    between atoms: C_8  and  C_9
REMARK    6  A    between atoms: C_9  and  C_10
REMARK                            x       y       z     vdW  Elec       q    Type
REMARK                         _______ _______ _______ _____ _____    ______ ____
ROOT
ATOM      1  C   UNL     1       0.447  11.446  19.350  0.00  0.00    +0.000 C 
ATOM      2  C   UNL     1       0.591  12.046  20.816  0.00  0.00    +0.000 C 
ATOM      3  O   UNL     1       0.837  11.499  21.875  0.00  0.00    +0.000 OA
ATOM      4  N   UNL     1       0.426  13.449  20.670  0.00  0.00    +0.000 N 
ATOM      5  C   UNL     1       0.952  13.774  19.395  0.00  0.00    +0.000 A 
ATOM      6  C   UNL     1       1.564  15.009  19.232  0.00  0.00    +0.000 A 
ATOM      7  C   UNL     1       2.807  14.997  18.625  0.00  0.00    +0.000 A 
ATOM      8  C   UNL     1       3.343  13.781  18.160  0.00  0.00    +0.000 A 
ATOM      9  C   UNL     1       2.597  12.574  18.176  0.00  0.00    +0.000 A 
ATOM     10  C   UNL     1       1.329  12.575  18.748  0.00  0.00    +0.000 A 
ATOM     11  H   UNL     1      -0.542  13.753  20.750  0.00  0.00    +0.000 HD
ENDROOT
BRANCH   1  15
ATOM     12  C   UNL     1       2.270   7.476  18.702  0.00  0.00    +0.000 A 
ATOM     13  C   UNL     1       1.794   7.866  19.971  0.00  0.00    +0.000 A 
ATOM     14  C   UNL     1       1.028   9.057  20.170  0.00  0.00    +0.000 A 
ATOM     15  C   UNL     1       0.708   9.929  19.107  0.00  0.00    +0.000 A 
ATOM     16  C   UNL     1       1.102   9.478  17.834  0.00  0.00    +0.000 A 
ATOM     17  C   UNL     1       1.874   8.312  17.641  0.00  0.00    +0.000 A 
BRANCH  12  19
ATOM     18  C   UNL     1       4.383   6.576  17.541  0.00  0.00    +0.000 C 
ATOM     19  C   UNL     1       3.180   6.241  18.456  0.00  0.00    +0.000 C 
ATOM     20  C   UNL     1       2.410   5.074  17.795  0.00  0.00    +0.000 C 
ATOM     21  C   UNL     1       3.781   5.678  19.772  0.00  0.00    +0.000 C 
ENDBRANCH  12  19
ENDBRANCH   1  15
BRANCH   1  22
ATOM     22  C   UNL     1      -1.116  11.588  19.119  0.00  0.00    +0.000 A 
ATOM     23  C   UNL     1      -1.612  11.276  17.823  0.00  0.00    +0.000 A 
ATOM     24  C   UNL     1      -2.959  11.374  17.503  0.00  0.00    +0.000 A 
ATOM     25  C   UNL     1      -3.847  11.806  18.473  0.00  0.00    +0.000 A 
ATOM     26  C   UNL     1      -3.382  12.126  19.753  0.00  0.00    +0.000 A 
ATOM     27  C   UNL     1      -2.026  12.022  20.086  0.00  0.00    +0.000 A 
ENDBRANCH   1  22
TORSDOF 3
ENDMDL
MODEL 9
REMARK VINA RESULT:      -6.8      3.870      8.803
REMARK  Name = 
REMARK  6 active torsions:
REMARK  status: ('A' for Active; 'I' for Inactive)
REMARK    1  A    between atoms: C_1  and  C_2
REMARK    2  A    between atoms: C_2  and  C_3
REMARK    3  A    between atoms: C_2  and  C_4
REMARK    4  A    between atoms: C_2  and  C_5
REMARK    5  A    between atoms: C_8  and  C_9
REMARK    6  A    between atoms: C_9  and  C_10
REMARK                            x       y       z     vdW  Elec       q    Type
REMARK                         _______ _______ _______ _____ _____    ______ ____
ROOT
ATOM      1  C   UNL     1       0.089  11.538  19.225  0.00  0.00    +0.000 C 
ATOM      2  C   UNL     1      -0.670  12.006  20.543  0.00  0.00    +0.000 C 
ATOM      3  O   UNL     1      -0.658  11.547  21.669  0.00  0.00    +0.000 OA
ATOM      4  N   UNL     1      -1.382  13.179  20.174  0.00  0.00    +0.000 N 
ATOM      5  C   UNL     1      -0.594  13.819  19.186  0.00  0.00    +0.000 A 
ATOM      6  C   UNL     1      -0.607  15.206  19.132  0.00  0.00    +0.000 A 
ATOM      7  C   UNL     1       0.628  15.826  19.078  0.00  0.00    +0.000 A 
ATOM      8  C   UNL     1       1.797  15.043  19.017  0.00  0.00    +0.000 A 
ATOM      9  C   UNL     1       1.752  13.631  18.880  0.00  0.00    +0.000 A 
ATOM     10  C   UNL     1       0.515  12.994  18.894  0.00  0.00    +0.000 A 
ATOM     11  H   UNL     1      -2.319  12.990  19.823  0.00  0.00    +0.000 HD
ENDROOT
BRANCH   1  15
ATOM     12  C   UNL     1       1.974   7.543  19.241  0.00  0.00    +0.000 A 
ATOM     13  C   UNL     1       2.014   8.369  18.098  0.00  0.00    +0.000 A 
ATOM     14  C   UNL     1       1.588   9.734  18.122  0.00  0.00    +0.000 A 
ATOM     15  C   UNL     1       1.086  10.342  19.293  0.00  0.00    +0.000 A 
ATOM     16  C   UNL     1       1.144   9.539  20.447  0.00  0.00    +0.000 A 
ATOM     17  C   UNL     1       1.547   8.187  20.418  0.00  0.00    +0.000 A 
BRANCH  12  19
ATOM     18  C   UNL     1       3.868   5.804  19.338  0.00  0.00    +0.000 C 
ATOM     19  C   UNL     1       2.340   6.034  19.237  0.00  0.00    +0.000 C 
ATOM     20  C   UNL     1       1.853   5.321  17.955  0.00  0.00    +0.000 C 
ATOM     21  C   UNL     1       1.708   5.268  20.430  0.00  0.00    +0.000 C 
ENDBRANCH  12  19
ENDBRANCH   1  15
BRANCH   1  22
ATOM     22  C   UNL     1      -1.117  10.956  18.374  0.00  0.00    +0.000 A 
ATOM     23  C   UNL     1      -1.393  11.582  17.128  0.00  0.00    +0.000 A 
ATOM     24  C   UNL     1      -2.431  11.166  16.304  0.00  0.00    +0.000 A 
ATOM     25  C   UNL     1      -3.233  10.118  16.719  0.00  0.00    +0.000 A 
ATOM     26  C   UNL     1      -2.986   9.490  17.944  0.00  0.00    +0.000 A 
ATOM     27  C   UNL     1      -1.937   9.899  18.777  0.00  0.00    +0.000 A 
ENDBRANCH   1  22
TORSDOF 3
ENDMDL
