MODEL 1
REMARK VINA RESULT:      -8.3      0.000      0.000
REMARK  Name = 
REMARK  6 active torsions:
REMARK  status: ('A' for Active; 'I' for Inactive)
REMARK    1  A    between atoms: C_1  and  C_2
REMARK    2  A    between atoms: C_5  and  C_6
REMARK    3  A    between atoms: C_11  and  C_12
REMARK    4  A    between atoms: C_12  and  C_13
REMARK    5  A    between atoms: C_21  and  C_22
REMARK    6  A    between atoms: C_26  and  C_27
REMARK                            x       y       z     vdW  Elec       q    Type
REMARK                         _______ _______ _______ _____ _____    ______ ____
ROOT
ATOM      1  C   UNL     1       5.229   3.462  16.623  0.00  0.00    +0.000 C 
ATOM      2  C   UNL     1       4.597   4.622  17.286  0.00  0.00    +0.000 A 
ATOM      3  O   UNL     1       3.989   4.408  18.492  0.00  0.00    +0.000 OA
ATOM      4  C   UNL     1       3.390   5.582  18.863  0.00  0.00    +0.000 A 
ATOM      5  C   UNL     1       2.602   5.805  19.999  0.00  0.00    +0.000 A 
ATOM      6  C   UNL     1       2.374   4.777  21.062  0.00  0.00    +0.000 C 
ATOM      7  C   UNL     1       1.996   7.090  20.043  0.00  0.00    +0.000 A 
ATOM      8  O   UNL     1       1.066   7.328  21.082  0.00  0.00    +0.000 OA
ATOM      9  C   UNL     1       0.241   8.446  21.098  0.00  0.00    +0.000 A 
ATOM     10  O   UNL     1      -0.688   8.526  21.895  0.00  0.00    +0.000 OA
ATOM     11  C   UNL     1       0.515   9.523  20.102  0.00  0.00    +0.000 A 
ATOM     12  C   UNL     1       1.473   9.366  19.167  0.00  0.00    +0.000 A 
ATOM     13  C   UNL     1       1.792  10.397  18.110  0.00  0.00    +0.000 C 
ATOM     14  C   UNL     1       2.222   8.096  19.099  0.00  0.00    +0.000 A 
ATOM     15  C   UNL     1       3.108   7.829  18.057  0.00  0.00    +0.000 A 
ATOM     16  C   UNL     1       3.654   6.549  17.900  0.00  0.00    +0.000 A 
ATOM     17  C   UNL     1       4.452   5.938  16.894  0.00  0.00    +0.000 A 
ATOM     18  C   UNL     1       4.951   6.567  15.645  0.00  0.00    +0.000 C 
ENDROOT
BRANCH  11  19
ATOM     19  C   UNL     1      -0.441  10.702  20.159  0.00  0.00    +0.000 C 
BRANCH  19  20
ATOM     20  C   UNL     1      -0.046  11.855  21.092  0.00  0.00    +0.000 C 
ATOM     21  O   UNL     1       1.114  12.017  21.475  0.00  0.00    +0.000 OA
ATOM     22  N   UNL     1      -1.064  12.762  21.406  0.00  0.00    +0.000 N 
ATOM     23  C   UNL     1      -0.736  14.002  22.105  0.00  0.00    +0.000 C 
ATOM     24  C   UNL     1      -1.209  13.948  23.556  0.00  0.00    +0.000 C 
ATOM     25  C   UNL     1      -2.698  13.602  23.632  0.00  0.00    +0.000 C 
ATOM     26  C   UNL     1      -3.013  12.335  22.832  0.00  0.00    +0.000 C 
ATOM     27  C   UNL     1      -2.492  12.439  21.397  0.00  0.00    +0.000 C 
ENDBRANCH  19  20
ENDBRANCH  11  19
TORSDOF 2
ENDMDL
MODEL 2
REMARK VINA RESULT:      -8.2      2.924      8.270
REMARK  Name = 
REMARK  6 active torsions:
REMARK  status: ('A' for Active; 'I' for Inactive)
REMARK    1  A    between atoms: C_1  and  C_2
REMARK    2  A    between atoms: C_5  and  C_6
REMARK    3  A    between atoms: C_11  and  C_12
REMARK    4  A    between atoms: C_12  and  C_13
REMARK    5  A    between atoms: C_21  and  C_22
REMARK    6  A    between atoms: C_26  and  C_27
REMARK                            x       y       z     vdW  Elec       q    Type
REMARK                         _______ _______ _______ _____ _____    ______ ____
ROOT
ATOM      1  C   UNL     1       0.635  13.999  20.645  0.00  0.00    +0.000 C 
ATOM      2  C   UNL     1       0.832  12.588  20.251  0.00  0.00    +0.000 A 
ATOM      3  O   UNL     1       0.364  11.623  21.099  0.00  0.00    +0.000 OA
ATOM      4  C   UNL     1       0.745  10.410  20.591  0.00  0.00    +0.000 A 
ATOM      5  C   UNL     1       0.535   9.150  21.165  0.00  0.00    +0.000 A 
ATOM      6  C   UNL     1      -0.253   8.935  22.418  0.00  0.00    +0.000 C 
ATOM      7  C   UNL     1       1.171   8.083  20.475  0.00  0.00    +0.000 A 
ATOM      8  O   UNL     1       1.129   6.807  21.084  0.00  0.00    +0.000 OA
ATOM      9  C   UNL     1       1.903   5.744  20.633  0.00  0.00    +0.000 A 
ATOM     10  O   UNL     1       1.999   4.716  21.296  0.00  0.00    +0.000 OA
ATOM     11  C   UNL     1       2.622   5.911  19.336  0.00  0.00    +0.000 A 
ATOM     12  C   UNL     1       2.587   7.088  18.679  0.00  0.00    +0.000 A 
ATOM     13  C   UNL     1       3.309   7.344  17.377  0.00  0.00    +0.000 C 
ATOM     14  C   UNL     1       1.873   8.233  19.275  0.00  0.00    +0.000 A 
ATOM     15  C   UNL     1       1.941   9.507  18.711  0.00  0.00    +0.000 A 
ATOM     16  C   UNL     1       1.426  10.614  19.397  0.00  0.00    +0.000 A 
ATOM     17  C   UNL     1       1.463  12.016  19.164  0.00  0.00    +0.000 A 
ATOM     18  C   UNL     1       2.116  12.717  18.030  0.00  0.00    +0.000 C 
ENDROOT
BRANCH  11  19
ATOM     19  C   UNL     1       3.469   4.722  18.919  0.00  0.00    +0.000 C 
BRANCH  19  20
ATOM     20  C   UNL     1       4.976   4.977  18.774  0.00  0.00    +0.000 C 
ATOM     21  O   UNL     1       5.618   5.596  19.624  0.00  0.00    +0.000 OA
ATOM     22  N   UNL     1       5.592   4.384  17.666  0.00  0.00    +0.000 N 
ATOM     23  C   UNL     1       7.049   4.388  17.561  0.00  0.00    +0.000 C 
ATOM     24  C   UNL     1       7.513   5.373  16.490  0.00  0.00    +0.000 C 
ATOM     25  C   UNL     1       6.824   5.089  15.153  0.00  0.00    +0.000 C 
ATOM     26  C   UNL     1       5.304   5.026  15.316  0.00  0.00    +0.000 C 
ATOM     27  C   UNL     1       4.903   4.043  16.420  0.00  0.00    +0.000 C 
ENDBRANCH  19  20
ENDBRANCH  11  19
TORSDOF 2
ENDMDL
MODEL 3
REMARK VINA RESULT:      -7.9      1.500      1.900
REMARK  Name = 
REMARK  6 active torsions:
REMARK  status: ('A' for Active; 'I' for Inactive)
REMARK    1  A    between atoms: C_1  and  C_2
REMARK    2  A    between atoms: C_5  and  C_6
REMARK    3  A    between atoms: C_11  and  C_12
REMARK    4  A    between atoms: C_12  and  C_13
REMARK    5  A    between atoms: C_21  and  C_22
REMARK    6  A    between atoms: C_26  and  C_27
REMARK                            x       y       z     vdW  Elec       q    Type
REMARK                         _______ _______ _______ _____ _____    ______ ____
ROOT
ATOM      1  C   UNL     1       5.180   3.322  16.648  0.00  0.00    +0.000 C 
ATOM      2  C   UNL     1       4.578   4.509  17.291  0.00  0.00    +0.000 A 
ATOM      3  O   UNL     1       3.951   4.329  18.492  0.00  0.00    +0.000 OA
ATOM      4  C   UNL     1       3.385   5.525  18.843  0.00  0.00    +0.000 A 
ATOM      5  C   UNL     1       2.593   5.787  19.968  0.00  0.00    +0.000 A 
ATOM      6  C   UNL     1       2.322   4.779  21.040  0.00  0.00    +0.000 C 
ATOM      7  C   UNL     1       2.027   7.090  19.991  0.00  0.00    +0.000 A 
ATOM      8  O   UNL     1       1.095   7.369  21.017  0.00  0.00    +0.000 OA
ATOM      9  C   UNL     1       0.306   8.513  21.011  0.00  0.00    +0.000 A 
ATOM     10  O   UNL     1      -0.629   8.631  21.797  0.00  0.00    +0.000 OA
ATOM     11  C   UNL     1       0.624   9.570  20.006  0.00  0.00    +0.000 A 
ATOM     12  C   UNL     1       1.586   9.371  19.083  0.00  0.00    +0.000 A 
ATOM     13  C   UNL     1       1.949  10.379  18.018  0.00  0.00    +0.000 C 
ATOM     14  C   UNL     1       2.295   8.078  19.038  0.00  0.00    +0.000 A 
ATOM     15  C   UNL     1       3.183   7.770  18.008  0.00  0.00    +0.000 A 
ATOM     16  C   UNL     1       3.690   6.472  17.872  0.00  0.00    +0.000 A 
ATOM     17  C   UNL     1       4.478   5.824  16.882  0.00  0.00    +0.000 A 
ATOM     18  C   UNL     1       5.010   6.423  15.632  0.00  0.00    +0.000 C 
ENDROOT
BRANCH  11  19
ATOM     19  C   UNL     1      -0.295  10.778  20.039  0.00  0.00    +0.000 C 
BRANCH  19  20
ATOM     20  C   UNL     1       0.126  11.929  20.963  0.00  0.00    +0.000 C 
ATOM     21  O   UNL     1      -0.013  11.869  22.186  0.00  0.00    +0.000 OA
ATOM     22  N   UNL     1       0.759  13.011  20.342  0.00  0.00    +0.000 N 
ATOM     23  C   UNL     1       1.386  14.047  21.158  0.00  0.00    +0.000 C 
ATOM     24  C   UNL     1       0.563  15.333  21.127  0.00  0.00    +0.000 C 
ATOM     25  C   UNL     1       0.312  15.786  19.687  0.00  0.00    +0.000 C 
ATOM     26  C   UNL     1      -0.281  14.653  18.846  0.00  0.00    +0.000 C 
ATOM     27  C   UNL     1       0.572  13.385  18.939  0.00  0.00    +0.000 C 
ENDBRANCH  19  20
ENDBRANCH  11  19
TORSDOF 2
ENDMDL
MODEL 4
REMARK VINA RESULT:      -7.8      2.786      7.952
REMARK  Name = 
REMARK  6 active torsions:
REMARK  status: ('A' for Active; 'I' for Inactive)
REMARK    1  A    between atoms: C_1  and  C_2
REMARK    2  A    between atoms: C_5  and  C_6
REMARK    3  A    between atoms: C_11  and  C_12
REMARK    4  A    between atoms: C_12  and  C_13
REMARK    5  A    between atoms: C_21  and  C_22
REMARK    6  A    between atoms: C_26  and  C_27
REMARK                            x       y       z     vdW  Elec       q    Type
REMARK                         _______ _______ _______ _____ _____    ______ ____
ROOT
ATOM      1  C   UNL     1       0.710  14.408  21.371  0.00  0.00    +0.000 C 
ATOM      2  C   UNL     1       0.825  13.033  20.842  0.00  0.00    +0.000 A 
ATOM      3  O   UNL     1       0.483  12.004  21.675  0.00  0.00    +0.000 OA
ATOM      4  C   UNL     1       0.764  10.835  21.020  0.00  0.00    +0.000 A 
ATOM      5  C   UNL     1       0.630   9.533  21.520  0.00  0.00    +0.000 A 
ATOM      6  C   UNL     1       0.045   9.220  22.860  0.00  0.00    +0.000 C 
ATOM      7  C   UNL     1       1.137   8.524  20.657  0.00  0.00    +0.000 A 
ATOM      8  O   UNL     1       1.174   7.204  21.164  0.00  0.00    +0.000 OA
ATOM      9  C   UNL     1       1.854   6.180  20.516  0.00  0.00    +0.000 A 
ATOM     10  O   UNL     1       2.040   5.103  21.073  0.00  0.00    +0.000 OA
ATOM     11  C   UNL     1       2.364   6.449  19.139  0.00  0.00    +0.000 A 
ATOM     12  C   UNL     1       2.242   7.674  18.590  0.00  0.00    +0.000 A 
ATOM     13  C   UNL     1       2.754   8.032  17.215  0.00  0.00    +0.000 C 
ATOM     14  C   UNL     1       1.644   8.768  19.378  0.00  0.00    +0.000 A 
ATOM     15  C   UNL     1       1.640  10.083  18.912  0.00  0.00    +0.000 A 
ATOM     16  C   UNL     1       1.253  11.133  19.754  0.00  0.00    +0.000 A 
ATOM     17  C   UNL     1       1.271  12.549  19.628  0.00  0.00    +0.000 A 
ATOM     18  C   UNL     1       1.748  13.337  18.464  0.00  0.00    +0.000 C 
ENDROOT
BRANCH  11  19
ATOM     19  C   UNL     1       3.120   5.296  18.502  0.00  0.00    +0.000 C 
BRANCH  19  20
ATOM     20  C   UNL     1       4.561   5.079  18.984  0.00  0.00    +0.000 C 
ATOM     21  O   UNL     1       4.815   4.603  20.091  0.00  0.00    +0.000 OA
ATOM     22  N   UNL     1       5.566   5.368  18.054  0.00  0.00    +0.000 N 
ATOM     23  C   UNL     1       6.947   4.991  18.341  0.00  0.00    +0.000 C 
ATOM     24  C   UNL     1       7.787   6.221  18.675  0.00  0.00    +0.000 C 
ATOM     25  C   UNL     1       7.680   7.273  17.569  0.00  0.00    +0.000 C 
ATOM     26  C   UNL     1       6.217   7.592  17.250  0.00  0.00    +0.000 C 
ATOM     27  C   UNL     1       5.422   6.319  16.949  0.00  0.00    +0.000 C 
ENDBRANCH  19  20
ENDBRANCH  11  19
TORSDOF 2
ENDMDL
MODEL 5
REMARK VINA RESULT:      -7.8      2.662      8.420
REMARK  Name = 
REMARK  6 active torsions:
REMARK  status: ('A' for Active; 'I' for Inactive)
REMARK    1  A    between atoms: C_1  and  C_2
REMARK    2  A    between atoms: C_5  and  C_6
REMARK    3  A    between atoms: C_11  and  C_12
REMARK    4  A    between atoms: C_12  and  C_13
REMARK    5  A    between atoms: C_21  and  C_22
REMARK    6  A    between atoms: C_26  and  C_27
REMARK                            x       y       z     vdW  Elec       q    Type
REMARK                         _______ _______ _______ _____ _____    ______ ____
ROOT
ATOM      1  C   UNL     1      -0.715  14.632  22.594  0.00  0.00    +0.000 C 
ATOM      2  C   UNL     1      -0.399  13.380  21.875  0.00  0.00    +0.000 A 
ATOM      3  O   UNL     1      -0.492  12.208  22.574  0.00  0.00    +0.000 OA
ATOM      4  C   UNL     1      -0.058  11.204  21.751  0.00  0.00    +0.000 A 
ATOM      5  C   UNL     1       0.077   9.847  22.072  0.00  0.00    +0.000 A 
ATOM      6  C   UNL     1      -0.344   9.264  23.384  0.00  0.00    +0.000 C 
ATOM      7  C   UNL     1       0.689   9.067  21.055  0.00  0.00    +0.000 A 
ATOM      8  O   UNL     1       0.996   7.723  21.372  0.00  0.00    +0.000 OA
ATOM      9  C   UNL     1       1.797   6.932  20.556  0.00  0.00    +0.000 A 
ATOM     10  O   UNL     1       2.210   5.846  20.950  0.00  0.00    +0.000 OA
ATOM     11  C   UNL     1       2.149   7.463  19.206  0.00  0.00    +0.000 A 
ATOM     12  C   UNL     1       1.773   8.705  18.838  0.00  0.00    +0.000 A 
ATOM     13  C   UNL     1       2.112   9.322  17.502  0.00  0.00    +0.000 C 
ATOM     14  C   UNL     1       1.051   9.561  19.798  0.00  0.00    +0.000 A 
ATOM     15  C   UNL     1       0.781  10.900  19.518  0.00  0.00    +0.000 A 
ATOM     16  C   UNL     1       0.277  11.745  20.515  0.00  0.00    +0.000 A 
ATOM     17  C   UNL     1       0.035  13.144  20.585  0.00  0.00    +0.000 A 
ATOM     18  C   UNL     1       0.279  14.148  19.519  0.00  0.00    +0.000 C 
ENDROOT
BRANCH  11  19
ATOM     19  C   UNL     1       3.048   6.560  18.380  0.00  0.00    +0.000 C 
BRANCH  19  20
ATOM     20  C   UNL     1       2.441   5.224  17.929  0.00  0.00    +0.000 C 
ATOM     21  O   UNL     1       1.257   5.121  17.603  0.00  0.00    +0.000 OA
ATOM     22  N   UNL     1       3.335   4.153  17.822  0.00  0.00    +0.000 N 
ATOM     23  C   UNL     1       2.898   2.907  17.197  0.00  0.00    +0.000 C 
ATOM     24  C   UNL     1       2.706   1.813  18.246  0.00  0.00    +0.000 C 
ATOM     25  C   UNL     1       3.970   1.639  19.091  0.00  0.00    +0.000 C 
ATOM     26  C   UNL     1       4.435   2.977  19.673  0.00  0.00    +0.000 C 
ATOM     27  C   UNL     1       4.583   4.038  18.579  0.00  0.00    +0.000 C 
ENDBRANCH  19  20
ENDBRANCH  11  19
TORSDOF 2
ENDMDL
MODEL 6
REMARK VINA RESULT:      -7.5      2.063      3.714
REMARK  Name = 
REMARK  6 active torsions:
REMARK  status: ('A' for Active; 'I' for Inactive)
REMARK    1  A    between atoms: C_1  and  C_2
REMARK    2  A    between atoms: C_5  and  C_6
REMARK    3  A    between atoms: C_11  and  C_12
REMARK    4  A    between atoms: C_12  and  C_13
REMARK    5  A    between atoms: C_21  and  C_22
REMARK    6  A    between atoms: C_26  and  C_27
REMARK                            x       y       z     vdW  Elec       q    Type
REMARK                         _______ _______ _______ _____ _____    ______ ____
ROOT
ATOM      1  C   UNL     1       4.393   2.369  19.703  0.00  0.00    +0.000 C 
ATOM      2  C   UNL     1       3.623   3.630  19.669  0.00  0.00    +0.000 A 
ATOM      3  O   UNL     1       3.880   4.502  18.648  0.00  0.00    +0.000 OA
ATOM      4  C   UNL     1       3.139   5.631  18.875  0.00  0.00    +0.000 A 
ATOM      5  C   UNL     1       3.138   6.808  18.116  0.00  0.00    +0.000 A 
ATOM      6  C   UNL     1       3.905   6.969  16.842  0.00  0.00    +0.000 C 
ATOM      7  C   UNL     1       2.371   7.863  18.680  0.00  0.00    +0.000 A 
ATOM      8  O   UNL     1       2.451   9.125  18.047  0.00  0.00    +0.000 OA
ATOM      9  C   UNL     1       1.941  10.280  18.628  0.00  0.00    +0.000 A 
ATOM     10  O   UNL     1       2.199  11.383  18.157  0.00  0.00    +0.000 OA
ATOM     11  C   UNL     1       1.096  10.127  19.849  0.00  0.00    +0.000 A 
ATOM     12  C   UNL     1       0.915   8.914  20.410  0.00  0.00    +0.000 A 
ATOM     13  C   UNL     1       0.097   8.681  21.658  0.00  0.00    +0.000 C 
ATOM     14  C   UNL     1       1.600   7.739  19.839  0.00  0.00    +0.000 A 
ATOM     15  C   UNL     1       1.569   6.498  20.475  0.00  0.00    +0.000 A 
ATOM     16  C   UNL     1       2.385   5.451  20.029  0.00  0.00    +0.000 A 
ATOM     17  C   UNL     1       2.678   4.153  20.530  0.00  0.00    +0.000 A 
ATOM     18  C   UNL     1       2.139   3.529  21.764  0.00  0.00    +0.000 C 
ENDROOT
BRANCH  11  19
ATOM     19  C   UNL     1       0.596  11.430  20.446  0.00  0.00    +0.000 C 
BRANCH  19  20
ATOM     20  C   UNL     1      -0.923  11.561  20.621  0.00  0.00    +0.000 C 
ATOM     21  O   UNL     1      -1.490  11.246  21.669  0.00  0.00    +0.000 OA
ATOM     22  N   UNL     1      -1.613  12.144  19.552  0.00  0.00    +0.000 N 
ATOM     23  C   UNL     1      -3.019  12.507  19.711  0.00  0.00    +0.000 C 
ATOM     24  C   UNL     1      -3.917  11.547  18.935  0.00  0.00    +0.000 C 
ATOM     25  C   UNL     1      -3.490  11.465  17.467  0.00  0.00    +0.000 C 
ATOM     26  C   UNL     1      -1.997  11.150  17.343  0.00  0.00    +0.000 C 
ATOM     27  C   UNL     1      -1.151  12.128  18.162  0.00  0.00    +0.000 C 
ENDBRANCH  19  20
ENDBRANCH  11  19
TORSDOF 2
ENDMDL
MODEL 7
REMARK VINA RESULT:      -7.5      1.791      3.175
REMARK  Name = 
REMARK  6 active torsions:
REMARK  status: ('A' for Active; 'I' for Inactive)
REMARK    1  A    between atoms: C_1  and  C_2
REMARK    2  A    between atoms: C_5  and  C_6
REMARK    3  A    between atoms: C_11  and  C_12
REMARK    4  A    between atoms: C_12  and  C_13
REMARK    5  A    between atoms: C_21  and  C_22
REMARK    6  A    between atoms: C_26  and  C_27
REMARK                            x       y       z     vdW  Elec       q    Type
REMARK                         _______ _______ _______ _____ _____    ______ ____
ROOT
ATOM      1  C   UNL     1       4.434   2.312  19.693  0.00  0.00    +0.000 C 
ATOM      2  C   UNL     1       3.671   3.577  19.649  0.00  0.00    +0.000 A 
ATOM      3  O   UNL     1       3.938   4.441  18.624  0.00  0.00    +0.000 OA
ATOM      4  C   UNL     1       3.203   5.576  18.842  0.00  0.00    +0.000 A 
ATOM      5  C   UNL     1       3.213   6.749  18.076  0.00  0.00    +0.000 A 
ATOM      6  C   UNL     1       3.986   6.898  16.804  0.00  0.00    +0.000 C 
ATOM      7  C   UNL     1       2.450   7.812  18.631  0.00  0.00    +0.000 A 
ATOM      8  O   UNL     1       2.540   9.070  17.991  0.00  0.00    +0.000 OA
ATOM      9  C   UNL     1       2.035  10.231  18.564  0.00  0.00    +0.000 A 
ATOM     10  O   UNL     1       2.302  11.330  18.088  0.00  0.00    +0.000 OA
ATOM     11  C   UNL     1       1.184  10.090  19.782  0.00  0.00    +0.000 A 
ATOM     12  C   UNL     1       0.993   8.881  20.349  0.00  0.00    +0.000 A 
ATOM     13  C   UNL     1       0.168   8.660  21.594  0.00  0.00    +0.000 C 
ATOM     14  C   UNL     1       1.673   7.699  19.787  0.00  0.00    +0.000 A 
ATOM     15  C   UNL     1       1.631   6.462  20.430  0.00  0.00    +0.000 A 
ATOM     16  C   UNL     1       2.442   5.408  19.993  0.00  0.00    +0.000 A 
ATOM     17  C   UNL     1       2.726   4.111  20.502  0.00  0.00    +0.000 A 
ATOM     18  C   UNL     1       2.178   3.497  21.738  0.00  0.00    +0.000 C 
ENDROOT
BRANCH  11  19
ATOM     19  C   UNL     1       0.690  11.400  20.370  0.00  0.00    +0.000 C 
BRANCH  19  20
ATOM     20  C   UNL     1      -0.707  11.860  19.930  0.00  0.00    +0.000 C 
ATOM     21  O   UNL     1      -1.041  11.891  18.744  0.00  0.00    +0.000 OA
ATOM     22  N   UNL     1      -1.606  12.153  20.961  0.00  0.00    +0.000 N 
ATOM     23  C   UNL     1      -3.014  12.388  20.648  0.00  0.00    +0.000 C 
ATOM     24  C   UNL     1      -3.360  13.869  20.786  0.00  0.00    +0.000 C 
ATOM     25  C   UNL     1      -2.966  14.395  22.169  0.00  0.00    +0.000 C 
ATOM     26  C   UNL     1      -1.505  14.070  22.488  0.00  0.00    +0.000 C 
ATOM     27  C   UNL     1      -1.213  12.579  22.306  0.00  0.00    +0.000 C 
ENDBRANCH  19  20
ENDBRANCH  11  19
TORSDOF 2
ENDMDL
MODEL 8
REMARK VINA RESULT:      -7.4      2.141      2.419
REMARK  Name = 
REMARK  6 active torsions:
REMARK  status: ('A' for Active; 'I' for Inactive)
REMARK    1  A    between atoms: C_1  and  C_2
REMARK    2  A    between atoms: C_5  and  C_6
REMARK    3  A    between atoms: C_11  and  C_12
REMARK    4  A    between atoms: C_12  and  C_13
REMARK    5  A    between atoms: C_21  and  C_22
REMARK    6  A    between atoms: C_26  and  C_27
REMARK                            x       y       z     vdW  Elec       q    Type
REMARK                         _______ _______ _______ _____ _____    ______ ____
ROOT
ATOM      1  C   UNL     1       4.326   1.580  17.447  0.00  0.00    +0.000 C 
ATOM      2  C   UNL     1       3.967   2.943  17.893  0.00  0.00    +0.000 A 
ATOM      3  O   UNL     1       3.399   3.075  19.129  0.00  0.00    +0.000 OA
ATOM      4  C   UNL     1       3.058   4.392  19.286  0.00  0.00    +0.000 A 
ATOM      5  C   UNL     1       2.393   4.969  20.375  0.00  0.00    +0.000 A 
ATOM      6  C   UNL     1       2.033   4.216  21.616  0.00  0.00    +0.000 C 
ATOM      7  C   UNL     1       2.049   6.335  20.189  0.00  0.00    +0.000 A 
ATOM      8  O   UNL     1       1.243   6.937  21.183  0.00  0.00    +0.000 OA
ATOM      9  C   UNL     1       0.651   8.182  21.005  0.00  0.00    +0.000 A 
ATOM     10  O   UNL     1      -0.200   8.587  21.791  0.00  0.00    +0.000 OA
ATOM     11  C   UNL     1       1.070   8.985  19.819  0.00  0.00    +0.000 A 
ATOM     12  C   UNL     1       1.925   8.474  18.912  0.00  0.00    +0.000 A 
ATOM     13  C   UNL     1       2.376   9.213  17.674  0.00  0.00    +0.000 C 
ATOM     14  C   UNL     1       2.411   7.090  19.069  0.00  0.00    +0.000 A 
ATOM     15  C   UNL     1       3.169   6.468  18.077  0.00  0.00    +0.000 A 
ATOM     16  C   UNL     1       3.448   5.097  18.153  0.00  0.00    +0.000 A 
ATOM     17  C   UNL     1       4.055   4.169  17.264  0.00  0.00    +0.000 A 
ATOM     18  C   UNL     1       4.595   4.450  15.910  0.00  0.00    +0.000 C 
ENDROOT
BRANCH  11  19
ATOM     19  C   UNL     1       0.363  10.321  19.673  0.00  0.00    +0.000 C 
BRANCH  19  20
ATOM     20  C   UNL     1       0.999  11.512  20.403  0.00  0.00    +0.000 C 
ATOM     21  O   UNL     1       1.265  11.475  21.606  0.00  0.00    +0.000 OA
ATOM     22  N   UNL     1       1.342  12.608  19.603  0.00  0.00    +0.000 N 
ATOM     23  C   UNL     1       2.143  13.692  20.166  0.00  0.00    +0.000 C 
ATOM     24  C   UNL     1       1.288  14.936  20.392  0.00  0.00    +0.000 C 
ATOM     25  C   UNL     1       0.563  15.343  19.107  0.00  0.00    +0.000 C 
ATOM     26  C   UNL     1      -0.210  14.163  18.511  0.00  0.00    +0.000 C 
ATOM     27  C   UNL     1       0.693  12.940  18.333  0.00  0.00    +0.000 C 
ENDBRANCH  19  20
ENDBRANCH  11  19
TORSDOF 2
ENDMDL
MODEL 9
REMARK VINA RESULT:      -7.3      1.035      1.116
REMARK  Name = 
REMARK  6 active torsions:
REMARK  status: ('A' for Active; 'I' for Inactive)
REMARK    1  A    between atoms: C_1  and  C_2
REMARK    2  A    between atoms: C_5  and  C_6
REMARK    3  A    between atoms: C_11  and  C_12
REMARK    4  A    between atoms: C_12  and  C_13
REMARK    5  A    between atoms: C_21  and  C_22
REMARK    6  A    between atoms: C_26  and  C_27
REMARK                            x       y       z     vdW  Elec       q    Type
REMARK                         _______ _______ _______ _____ _____    ______ ____
ROOT
ATOM      1  C   UNL     1       5.752   3.691  15.821  0.00  0.00    +0.000 C 
ATOM      2  C   UNL     1       5.059   4.731  16.611  0.00  0.00    +0.000 A 
ATOM      3  O   UNL     1       4.479   4.348  17.789  0.00  0.00    +0.000 OA
ATOM      4  C   UNL     1       3.815   5.435  18.291  0.00  0.00    +0.000 A 
ATOM      5  C   UNL     1       3.028   5.484  19.449  0.00  0.00    +0.000 A 
ATOM      6  C   UNL     1       2.876   4.333  20.392  0.00  0.00    +0.000 C 
ATOM      7  C   UNL     1       2.347   6.716  19.638  0.00  0.00    +0.000 A 
ATOM      8  O   UNL     1       1.417   6.781  20.701  0.00  0.00    +0.000 OA
ATOM      9  C   UNL     1       0.526   7.838  20.845  0.00  0.00    +0.000 A 
ATOM     10  O   UNL     1      -0.397   7.772  21.651  0.00  0.00    +0.000 OA
ATOM     11  C   UNL     1       0.723   9.033  19.973  0.00  0.00    +0.000 A 
ATOM     12  C   UNL     1       1.678   9.038  19.021  0.00  0.00    +0.000 A 
ATOM     13  C   UNL     1       1.921  10.197  18.084  0.00  0.00    +0.000 C 
ATOM     14  C   UNL     1       2.500   7.832  18.810  0.00  0.00    +0.000 A 
ATOM     15  C   UNL     1       3.389   7.736  17.739  0.00  0.00    +0.000 A 
ATOM     16  C   UNL     1       4.009   6.517  17.439  0.00  0.00    +0.000 A 
ATOM     17  C   UNL     1       4.830   6.071  16.368  0.00  0.00    +0.000 A 
ATOM     18  C   UNL     1       5.275   6.863  15.194  0.00  0.00    +0.000 C 
ENDROOT
BRANCH  11  19
ATOM     19  C   UNL     1      -0.302  10.138  20.165  0.00  0.00    +0.000 C 
BRANCH  19  20
ATOM     20  C   UNL     1       0.063  11.237  21.172  0.00  0.00    +0.000 C 
ATOM     21  O   UNL     1       0.643  10.988  22.230  0.00  0.00    +0.000 OA
ATOM     22  N   UNL     1      -0.224  12.548  20.776  0.00  0.00    +0.000 N 
ATOM     23  C   UNL     1       0.280  13.668  21.566  0.00  0.00    +0.000 C 
ATOM     24  C   UNL     1      -0.853  14.335  22.344  0.00  0.00    +0.000 C 
ATOM     25  C   UNL     1      -1.995  14.738  21.408  0.00  0.00    +0.000 C 
ATOM     26  C   UNL     1      -2.449  13.555  20.549  0.00  0.00    +0.000 C 
ATOM     27  C   UNL     1      -1.268  12.913  19.816  0.00  0.00    +0.000 C 
ENDBRANCH  19  20
ENDBRANCH  11  19
TORSDOF 2
ENDMDL
