MODEL 1
REMARK VINA RESULT:      -8.8      0.000      0.000
REMARK  Name = 
REMARK  7 active torsions:
REMARK  status: ('A' for Active; 'I' for Inactive)
REMARK    1  A    between atoms: C_1  and  N_2
REMARK    2  A    between atoms: N_2  and  C_3
REMARK    3  A    between atoms: N_2  and  C_4
REMARK    4  A    between atoms: C_4  and  C_5
REMARK    5  A    between atoms: C_5  and  N_6
REMARK    6  A    between atoms: C_14  and  N_15
REMARK    7  A    between atoms: C_17  and  C_18
REMARK                            x       y       z     vdW  Elec       q    Type
REMARK                         _______ _______ _______ _____ _____    ______ ____
ROOT
ATOM      1  N   UNL     1       4.850   4.753  16.866  0.00  0.00    +0.000 N 
ATOM      2  C   UNL     1       4.204   3.933  17.781  0.00  0.00    +0.000 C 
ATOM      3  O   UNL     1       4.312   2.708  17.812  0.00  0.00    +0.000 OA
ATOM      4  C   UNL     1       3.322   4.597  18.767  0.00  0.00    +0.000 A 
ATOM      5  C   UNL     1       2.745   3.817  19.776  0.00  0.00    +0.000 A 
ATOM      6  C   UNL     1       1.926   4.403  20.722  0.00  0.00    +0.000 A 
ATOM      7  C   UNL     1       1.686   5.777  20.646  0.00  0.00    +0.000 A 
ATOM      8  C   UNL     1       2.252   6.610  19.642  0.00  0.00    +0.000 A 
ATOM      9  C   UNL     1       2.011   8.015  19.493  0.00  0.00    +0.000 A 
ATOM     10  C   UNL     1       2.549   8.734  18.411  0.00  0.00    +0.000 A 
ATOM     11  C   UNL     1       3.380   8.098  17.503  0.00  0.00    +0.000 A 
ATOM     12  C   UNL     1       3.651   6.734  17.649  0.00  0.00    +0.000 A 
ATOM     13  C   UNL     1       3.085   5.978  18.682  0.00  0.00    +0.000 A 
ATOM     14  C   UNL     1       4.577   6.104  16.685  0.00  0.00    +0.000 C 
ATOM     15  O   UNL     1       5.057   6.789  15.784  0.00  0.00    +0.000 OA
ENDROOT
BRANCH   9  16
ATOM     16  N   UNL     1       1.233   8.742  20.437  0.00  0.00    +0.000 N 
ATOM     17  C   UNL     1       0.435   9.837  20.188  0.00  0.00    +0.000 A 
ATOM     18  C   UNL     1      -0.133  10.199  21.386  0.00  0.00    +0.000 A 
ATOM     19  C   UNL     1       0.416   9.301  22.315  0.00  0.00    +0.000 A 
ATOM     20  N   UNL     1       1.251   8.434  21.752  0.00  0.00    +0.000 NA
BRANCH  18  21
ATOM     21  C   UNL     1      -1.096  11.262  21.575  0.00  0.00    +0.000 A 
ATOM     22  C   UNL     1      -1.419  11.685  22.874  0.00  0.00    +0.000 A 
ATOM     23  C   UNL     1      -2.303  12.746  23.070  0.00  0.00    +0.000 A 
ATOM     24  C   UNL     1      -2.875  13.379  21.968  0.00  0.00    +0.000 A 
ATOM     25 BR   UNL     1      -4.062  14.823  22.231  0.00  0.00    +0.000 Br
ATOM     26  C   UNL     1      -2.575  12.958  20.675  0.00  0.00    +0.000 A 
ATOM     27  C   UNL     1      -1.690  11.898  20.479  0.00  0.00    +0.000 A 
ENDBRANCH  18  21
ENDBRANCH   9  16
BRANCH   1  28
ATOM     28  C   UNL     1       5.891   4.167  16.025  0.00  0.00    +0.000 C 
BRANCH  28  29
ATOM     29  C   UNL     1       5.391   3.900  14.583  0.00  0.00    +0.000 C 
BRANCH  29  31
ATOM     30  C   UNL     1       5.940   3.421  12.269  0.00  0.00    +0.000 C 
ATOM     31  N   UNL     1       6.479   3.720  13.596  0.00  0.00    +0.000 NA
ATOM     32  C   UNL     1       7.309   4.925  13.533  0.00  0.00    +0.000 C 
ENDBRANCH  29  31
ENDBRANCH  28  29
ENDBRANCH   1  28
TORSDOF 5
ENDMDL
MODEL 2
REMARK VINA RESULT:      -8.7      0.223      1.065
REMARK  Name = 
REMARK  7 active torsions:
REMARK  status: ('A' for Active; 'I' for Inactive)
REMARK    1  A    between atoms: C_1  and  N_2
REMARK    2  A    between atoms: N_2  and  C_3
REMARK    3  A    between atoms: N_2  and  C_4
REMARK    4  A    between atoms: C_4  and  C_5
REMARK    5  A    between atoms: C_5  and  N_6
REMARK    6  A    between atoms: C_14  and  N_15
REMARK    7  A    between atoms: C_17  and  C_18
REMARK                            x       y       z     vdW  Elec       q    Type
REMARK                         _______ _______ _______ _____ _____    ______ ____
ROOT
ATOM      1  N   UNL     1       4.953   4.782  16.857  0.00  0.00    +0.000 N 
ATOM      2  C   UNL     1       4.323   3.957  17.780  0.00  0.00    +0.000 C 
ATOM      3  O   UNL     1       4.460   2.736  17.825  0.00  0.00    +0.000 OA
ATOM      4  C   UNL     1       3.424   4.611  18.756  0.00  0.00    +0.000 A 
ATOM      5  C   UNL     1       2.862   3.830  19.772  0.00  0.00    +0.000 A 
ATOM      6  C   UNL     1       2.027   4.407  20.710  0.00  0.00    +0.000 A 
ATOM      7  C   UNL     1       1.755   5.774  20.618  0.00  0.00    +0.000 A 
ATOM      8  C   UNL     1       2.306   6.608  19.606  0.00  0.00    +0.000 A 
ATOM      9  C   UNL     1       2.032   8.006  19.441  0.00  0.00    +0.000 A 
ATOM     10  C   UNL     1       2.556   8.725  18.352  0.00  0.00    +0.000 A 
ATOM     11  C   UNL     1       3.404   8.098  17.453  0.00  0.00    +0.000 A 
ATOM     12  C   UNL     1       3.706   6.743  17.615  0.00  0.00    +0.000 A 
ATOM     13  C   UNL     1       3.155   5.986  18.655  0.00  0.00    +0.000 A 
ATOM     14  C   UNL     1       4.649   6.123  16.661  0.00  0.00    +0.000 C 
ATOM     15  O   UNL     1       5.115   6.810  15.753  0.00  0.00    +0.000 OA
ENDROOT
BRANCH   9  16
ATOM     16  N   UNL     1       1.235   8.725  20.375  0.00  0.00    +0.000 N 
ATOM     17  C   UNL     1       0.431   9.815  20.115  0.00  0.00    +0.000 A 
ATOM     18  C   UNL     1      -0.156  10.169  21.305  0.00  0.00    +0.000 A 
ATOM     19  C   UNL     1       0.387   9.275  22.241  0.00  0.00    +0.000 A 
ATOM     20  N   UNL     1       1.237   8.416  21.689  0.00  0.00    +0.000 NA
BRANCH  18  21
ATOM     21  C   UNL     1      -1.130  11.225  21.483  0.00  0.00    +0.000 A 
ATOM     22  C   UNL     1      -1.638  11.899  20.361  0.00  0.00    +0.000 A 
ATOM     23  C   UNL     1      -2.618  12.879  20.513  0.00  0.00    +0.000 A 
ATOM     24  C   UNL     1      -3.085  13.197  21.786  0.00  0.00    +0.000 A 
ATOM     25 BR   UNL     1      -4.420  14.515  21.993  0.00  0.00    +0.000 Br
ATOM     26  C   UNL     1      -2.576  12.548  22.909  0.00  0.00    +0.000 A 
ATOM     27  C   UNL     1      -1.597  11.566  22.757  0.00  0.00    +0.000 A 
ENDBRANCH  18  21
ENDBRANCH   9  16
BRANCH   1  28
ATOM     28  C   UNL     1       6.009   4.211  16.026  0.00  0.00    +0.000 C 
BRANCH  28  29
ATOM     29  C   UNL     1       5.459   3.653  14.688  0.00  0.00    +0.000 C 
BRANCH  29  31
ATOM     30  C   UNL     1       7.342   4.883  13.780  0.00  0.00    +0.000 C 
ATOM     31  N   UNL     1       6.030   4.305  13.488  0.00  0.00    +0.000 NA
ATOM     32  C   UNL     1       6.148   3.336  12.395  0.00  0.00    +0.000 C 
ENDBRANCH  29  31
ENDBRANCH  28  29
ENDBRANCH   1  28
TORSDOF 5
ENDMDL
MODEL 3
REMARK VINA RESULT:      -8.5      0.898      1.128
REMARK  Name = 
REMARK  7 active torsions:
REMARK  status: ('A' for Active; 'I' for Inactive)
REMARK    1  A    between atoms: C_1  and  N_2
REMARK    2  A    between atoms: N_2  and  C_3
REMARK    3  A    between atoms: N_2  and  C_4
REMARK    4  A    between atoms: C_4  and  C_5
REMARK    5  A    between atoms: C_5  and  N_6
REMARK    6  A    between atoms: C_14  and  N_15
REMARK    7  A    between atoms: C_17  and  C_18
REMARK                            x       y       z     vdW  Elec       q    Type
REMARK                         _______ _______ _______ _____ _____    ______ ____
ROOT
ATOM      1  N   UNL     1       4.929   4.912  17.058  0.00  0.00    +0.000 N 
ATOM      2  C   UNL     1       4.344   4.082  18.005  0.00  0.00    +0.000 C 
ATOM      3  O   UNL     1       4.544   2.870  18.083  0.00  0.00    +0.000 OA
ATOM      4  C   UNL     1       3.414   4.714  18.966  0.00  0.00    +0.000 A 
ATOM      5  C   UNL     1       2.895   3.933  20.005  0.00  0.00    +0.000 A 
ATOM      6  C   UNL     1       2.033   4.491  20.929  0.00  0.00    +0.000 A 
ATOM      7  C   UNL     1       1.691   5.840  20.800  0.00  0.00    +0.000 A 
ATOM      8  C   UNL     1       2.195   6.673  19.765  0.00  0.00    +0.000 A 
ATOM      9  C   UNL     1       1.849   8.050  19.563  0.00  0.00    +0.000 A 
ATOM     10  C   UNL     1       2.334   8.765  18.453  0.00  0.00    +0.000 A 
ATOM     11  C   UNL     1       3.212   8.159  17.569  0.00  0.00    +0.000 A 
ATOM     12  C   UNL     1       3.584   6.826  17.767  0.00  0.00    +0.000 A 
ATOM     13  C   UNL     1       3.074   6.070  18.828  0.00  0.00    +0.000 A 
ATOM     14  C   UNL     1       4.556   6.230  16.827  0.00  0.00    +0.000 C 
ATOM     15  O   UNL     1       4.984   6.915  15.899  0.00  0.00    +0.000 OA
ENDROOT
BRANCH   9  16
ATOM     16  N   UNL     1       1.017   8.752  20.479  0.00  0.00    +0.000 N 
ATOM     17  C   UNL     1       0.926  10.118  20.639  0.00  0.00    +0.000 A 
ATOM     18  C   UNL     1      -0.007  10.343  21.622  0.00  0.00    +0.000 A 
ATOM     19  C   UNL     1      -0.393   9.058  22.036  0.00  0.00    +0.000 A 
ATOM     20  N   UNL     1       0.234   8.098  21.363  0.00  0.00    +0.000 NA
BRANCH  18  21
ATOM     21  C   UNL     1      -0.467  11.641  22.067  0.00  0.00    +0.000 A 
ATOM     22  C   UNL     1       0.138  12.803  21.564  0.00  0.00    +0.000 A 
ATOM     23  C   UNL     1      -0.331  14.061  21.941  0.00  0.00    +0.000 A 
ATOM     24  C   UNL     1      -1.398  14.161  22.831  0.00  0.00    +0.000 A 
ATOM     25 BR   UNL     1      -2.042  15.862  23.333  0.00  0.00    +0.000 Br
ATOM     26  C   UNL     1      -1.996  13.016  23.350  0.00  0.00    +0.000 A 
ATOM     27  C   UNL     1      -1.527  11.757  22.972  0.00  0.00    +0.000 A 
ENDBRANCH  18  21
ENDBRANCH   9  16
BRANCH   1  28
ATOM     28  C   UNL     1       6.012   4.374  16.239  0.00  0.00    +0.000 C 
BRANCH  28  29
ATOM     29  C   UNL     1       5.501   3.843  14.876  0.00  0.00    +0.000 C 
BRANCH  29  31
ATOM     30  C   UNL     1       5.959   3.488  12.520  0.00  0.00    +0.000 C 
ATOM     31  N   UNL     1       6.545   3.781  13.829  0.00  0.00    +0.000 NA
ATOM     32  C   UNL     1       7.278   5.049  13.770  0.00  0.00    +0.000 C 
ENDBRANCH  29  31
ENDBRANCH  28  29
ENDBRANCH   1  28
TORSDOF 5
ENDMDL
MODEL 4
REMARK VINA RESULT:      -8.4      1.547      2.171
REMARK  Name = 
REMARK  7 active torsions:
REMARK  status: ('A' for Active; 'I' for Inactive)
REMARK    1  A    between atoms: C_1  and  N_2
REMARK    2  A    between atoms: N_2  and  C_3
REMARK    3  A    between atoms: N_2  and  C_4
REMARK    4  A    between atoms: C_4  and  C_5
REMARK    5  A    between atoms: C_5  and  N_6
REMARK    6  A    between atoms: C_14  and  N_15
REMARK    7  A    between atoms: C_17  and  C_18
REMARK                            x       y       z     vdW  Elec       q    Type
REMARK                         _______ _______ _______ _____ _____    ______ ____
ROOT
ATOM      1  N   UNL     1       4.729   5.224  17.095  0.00  0.00    +0.000 N 
ATOM      2  C   UNL     1       4.233   4.369  18.071  0.00  0.00    +0.000 C 
ATOM      3  O   UNL     1       4.500   3.171  18.142  0.00  0.00    +0.000 OA
ATOM      4  C   UNL     1       3.318   4.958  19.073  0.00  0.00    +0.000 A 
ATOM      5  C   UNL     1       2.890   4.155  20.137  0.00  0.00    +0.000 A 
ATOM      6  C   UNL     1       2.044   4.673  21.099  0.00  0.00    +0.000 A 
ATOM      7  C   UNL     1       1.625   6.001  20.983  0.00  0.00    +0.000 A 
ATOM      8  C   UNL     1       2.036   6.854  19.923  0.00  0.00    +0.000 A 
ATOM      9  C   UNL     1       1.610   8.210  19.733  0.00  0.00    +0.000 A 
ATOM     10  C   UNL     1       2.003   8.944  18.600  0.00  0.00    +0.000 A 
ATOM     11  C   UNL     1       2.869   8.379  17.677  0.00  0.00    +0.000 A 
ATOM     12  C   UNL     1       3.319   7.069  17.861  0.00  0.00    +0.000 A 
ATOM     13  C   UNL     1       2.901   6.293  18.948  0.00  0.00    +0.000 A 
ATOM     14  C   UNL     1       4.276   6.520  16.878  0.00  0.00    +0.000 C 
ATOM     15  O   UNL     1       4.624   7.221  15.929  0.00  0.00    +0.000 OA
ENDROOT
BRANCH   9  16
ATOM     16  N   UNL     1       0.786   8.872  20.686  0.00  0.00    +0.000 N 
ATOM     17  C   UNL     1       0.602  10.232  20.823  0.00  0.00    +0.000 A 
ATOM     18  C   UNL     1      -0.283  10.412  21.858  0.00  0.00    +0.000 A 
ATOM     19  C   UNL     1      -0.543   9.114  22.324  0.00  0.00    +0.000 A 
ATOM     20  N   UNL     1       0.111   8.186  21.633  0.00  0.00    +0.000 NA
BRANCH  18  21
ATOM     21  C   UNL     1      -0.810  11.684  22.303  0.00  0.00    +0.000 A 
ATOM     22  C   UNL     1      -0.168  12.874  21.927  0.00  0.00    +0.000 A 
ATOM     23  C   UNL     1      -0.697  14.109  22.302  0.00  0.00    +0.000 A 
ATOM     24  C   UNL     1      -1.862  14.157  23.064  0.00  0.00    +0.000 A 
ATOM     25 BR   UNL     1      -2.586  15.827  23.563  0.00  0.00    +0.000 Br
ATOM     26  C   UNL     1      -2.499  12.983  23.459  0.00  0.00    +0.000 A 
ATOM     27  C   UNL     1      -1.971  11.748  23.083  0.00  0.00    +0.000 A 
ENDBRANCH  18  21
ENDBRANCH   9  16
BRANCH   1  28
ATOM     28  C   UNL     1       5.799   4.739  16.227  0.00  0.00    +0.000 C 
BRANCH  28  29
ATOM     29  C   UNL     1       7.199   5.161  16.741  0.00  0.00    +0.000 C 
BRANCH  29  31
ATOM     30  C   UNL     1       7.884   5.434  19.052  0.00  0.00    +0.000 C 
ATOM     31  N   UNL     1       7.160   6.038  17.932  0.00  0.00    +0.000 NA
ATOM     32  C   UNL     1       7.740   7.346  17.616  0.00  0.00    +0.000 C 
ENDBRANCH  29  31
ENDBRANCH  28  29
ENDBRANCH   1  28
TORSDOF 5
ENDMDL
MODEL 5
REMARK VINA RESULT:      -8.3      4.731     10.559
REMARK  Name = 
REMARK  7 active torsions:
REMARK  status: ('A' for Active; 'I' for Inactive)
REMARK    1  A    between atoms: C_1  and  N_2
REMARK    2  A    between atoms: N_2  and  C_3
REMARK    3  A    between atoms: N_2  and  C_4
REMARK    4  A    between atoms: C_4  and  C_5
REMARK    5  A    between atoms: C_5  and  N_6
REMARK    6  A    between atoms: C_14  and  N_15
REMARK    7  A    between atoms: C_17  and  C_18
REMARK                            x       y       z     vdW  Elec       q    Type
REMARK                         _______ _______ _______ _____ _____    ______ ____
ROOT
ATOM      1  N   UNL     1      -2.530  12.620  21.255  0.00  0.00    +0.000 N 
ATOM      2  C   UNL     1      -2.020  12.058  22.418  0.00  0.00    +0.000 C 
ATOM      3  O   UNL     1      -2.326  12.418  23.554  0.00  0.00    +0.000 OA
ATOM      4  C   UNL     1      -1.038  10.963  22.256  0.00  0.00    +0.000 A 
ATOM      5  C   UNL     1      -0.590  10.295  23.402  0.00  0.00    +0.000 A 
ATOM      6  C   UNL     1       0.319   9.260  23.290  0.00  0.00    +0.000 A 
ATOM      7  C   UNL     1       0.778   8.903  22.020  0.00  0.00    +0.000 A 
ATOM      8  C   UNL     1       0.349   9.549  20.829  0.00  0.00    +0.000 A 
ATOM      9  C   UNL     1       0.815   9.250  19.506  0.00  0.00    +0.000 A 
ATOM     10  C   UNL     1       0.395  10.009  18.399  0.00  0.00    +0.000 A 
ATOM     11  C   UNL     1      -0.533  11.024  18.569  0.00  0.00    +0.000 A 
ATOM     12  C   UNL     1      -1.021  11.311  19.847  0.00  0.00    +0.000 A 
ATOM     13  C   UNL     1      -0.580  10.612  20.977  0.00  0.00    +0.000 A 
ATOM     14  C   UNL     1      -2.042  12.371  19.978  0.00  0.00    +0.000 C 
ATOM     15  O   UNL     1      -2.408  12.973  18.971  0.00  0.00    +0.000 OA
ENDROOT
BRANCH   9  16
ATOM     16  N   UNL     1       1.705   8.169  19.256  0.00  0.00    +0.000 N 
ATOM     17  C   UNL     1       2.296   7.840  18.055  0.00  0.00    +0.000 A 
ATOM     18  C   UNL     1       3.083   6.738  18.286  0.00  0.00    +0.000 A 
ATOM     19  C   UNL     1       2.870   6.436  19.640  0.00  0.00    +0.000 A 
ATOM     20  N   UNL     1       2.029   7.284  20.223  0.00  0.00    +0.000 NA
BRANCH  18  21
ATOM     21  C   UNL     1       3.938   6.094  17.312  0.00  0.00    +0.000 A 
ATOM     22  C   UNL     1       3.984   4.693  17.244  0.00  0.00    +0.000 A 
ATOM     23  C   UNL     1       4.761   4.060  16.274  0.00  0.00    +0.000 A 
ATOM     24  C   UNL     1       5.503   4.826  15.377  0.00  0.00    +0.000 A 
ATOM     25 BR   UNL     1       6.545   3.971  14.056  0.00  0.00    +0.000 Br
ATOM     26  C   UNL     1       5.479   6.217  15.445  0.00  0.00    +0.000 A 
ATOM     27  C   UNL     1       4.701   6.850  16.414  0.00  0.00    +0.000 A 
ENDBRANCH  18  21
ENDBRANCH   9  16
BRANCH   1  28
ATOM     28  C   UNL     1      -3.656  13.544  21.368  0.00  0.00    +0.000 C 
BRANCH  28  29
ATOM     29  C   UNL     1      -5.013  12.798  21.443  0.00  0.00    +0.000 C 
BRANCH  29  31
ATOM     30  C   UNL     1      -5.268  14.342  23.297  0.00  0.00    +0.000 C 
ATOM     31  N   UNL     1      -5.852  13.198  22.594  0.00  0.00    +0.000 NA
ATOM     32  C   UNL     1      -7.205  13.534  22.141  0.00  0.00    +0.000 C 
ENDBRANCH  29  31
ENDBRANCH  28  29
ENDBRANCH   1  28
TORSDOF 5
ENDMDL
MODEL 6
REMARK VINA RESULT:      -8.1      4.731     10.622
REMARK  Name = 
REMARK  7 active torsions:
REMARK  status: ('A' for Active; 'I' for Inactive)
REMARK    1  A    between atoms: C_1  and  N_2
REMARK    2  A    between atoms: N_2  and  C_3
REMARK    3  A    between atoms: N_2  and  C_4
REMARK    4  A    between atoms: C_4  and  C_5
REMARK    5  A    between atoms: C_5  and  N_6
REMARK    6  A    between atoms: C_14  and  N_15
REMARK    7  A    between atoms: C_17  and  C_18
REMARK                            x       y       z     vdW  Elec       q    Type
REMARK                         _______ _______ _______ _____ _____    ______ ____
ROOT
ATOM      1  N   UNL     1      -1.091  13.091  22.001  0.00  0.00    +0.000 N 
ATOM      2  C   UNL     1      -0.491  13.396  20.787  0.00  0.00    +0.000 C 
ATOM      3  O   UNL     1      -0.558  14.494  20.236  0.00  0.00    +0.000 OA
ATOM      4  C   UNL     1       0.265  12.311  20.123  0.00  0.00    +0.000 A 
ATOM      5  C   UNL     1       0.978  12.611  18.956  0.00  0.00    +0.000 A 
ATOM      6  C   UNL     1       1.705  11.627  18.315  0.00  0.00    +0.000 A 
ATOM      7  C   UNL     1       1.707  10.336  18.849  0.00  0.00    +0.000 A 
ATOM      8  C   UNL     1       1.001   9.985  20.032  0.00  0.00    +0.000 A 
ATOM      9  C   UNL     1       0.937   8.671  20.603  0.00  0.00    +0.000 A 
ATOM     10  C   UNL     1       0.136   8.406  21.728  0.00  0.00    +0.000 A 
ATOM     11  C   UNL     1      -0.556   9.437  22.342  0.00  0.00    +0.000 A 
ATOM     12  C   UNL     1      -0.482  10.731  21.817  0.00  0.00    +0.000 A 
ATOM     13  C   UNL     1       0.260  11.016  20.666  0.00  0.00    +0.000 A 
ATOM     14  C   UNL     1      -1.200  11.810  22.528  0.00  0.00    +0.000 C 
ATOM     15  O   UNL     1      -1.849  11.532  23.534  0.00  0.00    +0.000 OA
ENDROOT
BRANCH   9  16
ATOM     16  N   UNL     1       1.688   7.588  20.067  0.00  0.00    +0.000 N 
ATOM     17  C   UNL     1       2.339   7.548  18.853  0.00  0.00    +0.000 A 
ATOM     18  C   UNL     1       2.939   6.316  18.762  0.00  0.00    +0.000 A 
ATOM     19  C   UNL     1       2.559   5.656  19.940  0.00  0.00    +0.000 A 
ATOM     20  N   UNL     1       1.792   6.410  20.721  0.00  0.00    +0.000 NA
BRANCH  18  21
ATOM     21  C   UNL     1       3.786   5.870  17.676  0.00  0.00    +0.000 A 
ATOM     22  C   UNL     1       4.522   6.808  16.936  0.00  0.00    +0.000 A 
ATOM     23  C   UNL     1       5.384   6.387  15.924  0.00  0.00    +0.000 A 
ATOM     24  C   UNL     1       5.504   5.028  15.641  0.00  0.00    +0.000 A 
ATOM     25 BR   UNL     1       6.679   4.455  14.279  0.00  0.00    +0.000 Br
ATOM     26  C   UNL     1       4.765   4.089  16.356  0.00  0.00    +0.000 A 
ATOM     27  C   UNL     1       3.904   4.509  17.369  0.00  0.00    +0.000 A 
ENDBRANCH  18  21
ENDBRANCH   9  16
BRANCH   1  28
ATOM     28  C   UNL     1      -1.654  14.184  22.789  0.00  0.00    +0.000 C 
BRANCH  28  29
ATOM     29  C   UNL     1      -3.152  14.421  22.468  0.00  0.00    +0.000 C 
BRANCH  29  31
ATOM     30  C   UNL     1      -4.991  13.546  23.786  0.00  0.00    +0.000 C 
ATOM     31  N   UNL     1      -3.997  14.614  23.668  0.00  0.00    +0.000 NA
ATOM     32  C   UNL     1      -3.164  14.651  24.872  0.00  0.00    +0.000 C 
ENDBRANCH  29  31
ENDBRANCH  28  29
ENDBRANCH   1  28
TORSDOF 5
ENDMDL
MODEL 7
REMARK VINA RESULT:      -8.0      1.179      1.863
REMARK  Name = 
REMARK  7 active torsions:
REMARK  status: ('A' for Active; 'I' for Inactive)
REMARK    1  A    between atoms: C_1  and  N_2
REMARK    2  A    between atoms: N_2  and  C_3
REMARK    3  A    between atoms: N_2  and  C_4
REMARK    4  A    between atoms: C_4  and  C_5
REMARK    5  A    between atoms: C_5  and  N_6
REMARK    6  A    between atoms: C_14  and  N_15
REMARK    7  A    between atoms: C_17  and  C_18
REMARK                            x       y       z     vdW  Elec       q    Type
REMARK                         _______ _______ _______ _____ _____    ______ ____
ROOT
ATOM      1  N   UNL     1       4.623   5.007  16.986  0.00  0.00    +0.000 N 
ATOM      2  C   UNL     1       4.089   4.199  17.982  0.00  0.00    +0.000 C 
ATOM      3  O   UNL     1       4.275   2.987  18.065  0.00  0.00    +0.000 OA
ATOM      4  C   UNL     1       3.233   4.861  18.991  0.00  0.00    +0.000 A 
ATOM      5  C   UNL     1       2.771   4.103  20.074  0.00  0.00    +0.000 A 
ATOM      6  C   UNL     1       1.979   4.689  21.043  0.00  0.00    +0.000 A 
ATOM      7  C   UNL     1       1.650   6.040  20.916  0.00  0.00    +0.000 A 
ATOM      8  C   UNL     1       2.098   6.851  19.837  0.00  0.00    +0.000 A 
ATOM      9  C   UNL     1       1.760   8.230  19.636  0.00  0.00    +0.000 A 
ATOM     10  C   UNL     1       2.181   8.920  18.486  0.00  0.00    +0.000 A 
ATOM     11  C   UNL     1       2.991   8.287  17.556  0.00  0.00    +0.000 A 
ATOM     12  C   UNL     1       3.355   6.952  17.750  0.00  0.00    +0.000 A 
ATOM     13  C   UNL     1       2.905   6.219  18.855  0.00  0.00    +0.000 A 
ATOM     14  C   UNL     1       4.255   6.327  16.758  0.00  0.00    +0.000 C 
ATOM     15  O   UNL     1       4.632   6.991  15.795  0.00  0.00    +0.000 OA
ENDROOT
BRANCH   9  16
ATOM     16  N   UNL     1       1.000   8.958  20.593  0.00  0.00    +0.000 N 
ATOM     17  C   UNL     1       0.271  10.107  20.375  0.00  0.00    +0.000 A 
ATOM     18  C   UNL     1      -0.305  10.448  21.574  0.00  0.00    +0.000 A 
ATOM     19  C   UNL     1       0.168   9.481  22.475  0.00  0.00    +0.000 A 
ATOM     20  N   UNL     1       0.967   8.593  21.893  0.00  0.00    +0.000 NA
BRANCH  18  21
ATOM     21  C   UNL     1      -1.211  11.556  21.789  0.00  0.00    +0.000 A 
ATOM     22  C   UNL     1      -1.912  12.103  20.703  0.00  0.00    +0.000 A 
ATOM     23  C   UNL     1      -2.829  13.134  20.903  0.00  0.00    +0.000 A 
ATOM     24  C   UNL     1      -3.041  13.628  22.188  0.00  0.00    +0.000 A 
ATOM     25 BR   UNL     1      -4.292  15.015  22.464  0.00  0.00    +0.000 Br
ATOM     26  C   UNL     1      -2.340  13.105  23.272  0.00  0.00    +0.000 A 
ATOM     27  C   UNL     1      -1.423  12.074  23.072  0.00  0.00    +0.000 A 
ENDBRANCH  18  21
ENDBRANCH   9  16
BRANCH   1  28
ATOM     28  C   UNL     1       5.642   4.440  16.107  0.00  0.00    +0.000 C 
BRANCH  28  29
ATOM     29  C   UNL     1       6.775   5.453  15.801  0.00  0.00    +0.000 C 
BRANCH  29  31
ATOM     30  C   UNL     1       7.514   6.846  17.645  0.00  0.00    +0.000 C 
ATOM     31  N   UNL     1       7.752   5.607  16.902  0.00  0.00    +0.000 NA
ATOM     32  C   UNL     1       7.674   4.461  17.812  0.00  0.00    +0.000 C 
ENDBRANCH  29  31
ENDBRANCH  28  29
ENDBRANCH   1  28
TORSDOF 5
ENDMDL
MODEL 8
REMARK VINA RESULT:      -8.0      4.764     10.539
REMARK  Name = 
REMARK  7 active torsions:
REMARK  status: ('A' for Active; 'I' for Inactive)
REMARK    1  A    between atoms: C_1  and  N_2
REMARK    2  A    between atoms: N_2  and  C_3
REMARK    3  A    between atoms: N_2  and  C_4
REMARK    4  A    between atoms: C_4  and  C_5
REMARK    5  A    between atoms: C_5  and  N_6
REMARK    6  A    between atoms: C_14  and  N_15
REMARK    7  A    between atoms: C_17  and  C_18
REMARK                            x       y       z     vdW  Elec       q    Type
REMARK                         _______ _______ _______ _____ _____    ______ ____
ROOT
ATOM      1  N   UNL     1      -1.808  13.412  21.339  0.00  0.00    +0.000 N 
ATOM      2  C   UNL     1      -1.712  12.565  22.435  0.00  0.00    +0.000 C 
ATOM      3  O   UNL     1      -2.203  12.800  23.538  0.00  0.00    +0.000 OA
ATOM      4  C   UNL     1      -0.956  11.307  22.244  0.00  0.00    +0.000 A 
ATOM      5  C   UNL     1      -0.935  10.377  23.289  0.00  0.00    +0.000 A 
ATOM      6  C   UNL     1      -0.249   9.186  23.144  0.00  0.00    +0.000 A 
ATOM      7  C   UNL     1       0.421   8.938  21.943  0.00  0.00    +0.000 A 
ATOM      8  C   UNL     1       0.425   9.851  20.853  0.00  0.00    +0.000 A 
ATOM      9  C   UNL     1       1.125   9.666  19.616  0.00  0.00    +0.000 A 
ATOM     10  C   UNL     1       1.141  10.671  18.633  0.00  0.00    +0.000 A 
ATOM     11  C   UNL     1       0.418  11.837  18.825  0.00  0.00    +0.000 A 
ATOM     12  C   UNL     1      -0.295  12.023  20.013  0.00  0.00    +0.000 A 
ATOM     13  C   UNL     1      -0.284  11.067  21.035  0.00  0.00    +0.000 A 
ATOM     14  C   UNL     1      -1.088  13.261  20.160  0.00  0.00    +0.000 C 
ATOM     15  O   UNL     1      -1.076  14.088  19.249  0.00  0.00    +0.000 OA
ENDROOT
BRANCH   9  16
ATOM     16  N   UNL     1       1.818   8.457  19.325  0.00  0.00    +0.000 N 
ATOM     17  C   UNL     1       2.493   8.146  18.164  0.00  0.00    +0.000 A 
ATOM     18  C   UNL     1       3.016   6.887  18.333  0.00  0.00    +0.000 A 
ATOM     19  C   UNL     1       2.567   6.491  19.602  0.00  0.00    +0.000 A 
ATOM     20  N   UNL     1       1.832   7.425  20.196  0.00  0.00    +0.000 NA
BRANCH  18  21
ATOM     21  C   UNL     1       3.858   6.190  17.383  0.00  0.00    +0.000 A 
ATOM     22  C   UNL     1       3.977   4.793  17.454  0.00  0.00    +0.000 A 
ATOM     23  C   UNL     1       4.740   4.103  16.512  0.00  0.00    +0.000 A 
ATOM     24  C   UNL     1       5.394   4.808  15.504  0.00  0.00    +0.000 A 
ATOM     25 BR   UNL     1       6.416   3.876  14.221  0.00  0.00    +0.000 Br
ATOM     26  C   UNL     1       5.297   6.196  15.433  0.00  0.00    +0.000 A 
ATOM     27  C   UNL     1       4.533   6.886  16.375  0.00  0.00    +0.000 A 
ENDBRANCH  18  21
ENDBRANCH   9  16
BRANCH   1  28
ATOM     28  C   UNL     1      -2.723  14.547  21.418  0.00  0.00    +0.000 C 
BRANCH  28  29
ATOM     29  C   UNL     1      -4.180  14.144  21.073  0.00  0.00    +0.000 C 
BRANCH  29  31
ATOM     30  C   UNL     1      -6.344  15.138  21.536  0.00  0.00    +0.000 C 
ATOM     31  N   UNL     1      -5.075  15.295  20.822  0.00  0.00    +0.000 NA
ATOM     32  C   UNL     1      -4.425  16.541  21.236  0.00  0.00    +0.000 C 
ENDBRANCH  29  31
ENDBRANCH  28  29
ENDBRANCH   1  28
TORSDOF 5
ENDMDL
MODEL 9
REMARK VINA RESULT:      -8.0      5.175     10.748
REMARK  Name = 
REMARK  7 active torsions:
REMARK  status: ('A' for Active; 'I' for Inactive)
REMARK    1  A    between atoms: C_1  and  N_2
REMARK    2  A    between atoms: N_2  and  C_3
REMARK    3  A    between atoms: N_2  and  C_4
REMARK    4  A    between atoms: C_4  and  C_5
REMARK    5  A    between atoms: C_5  and  N_6
REMARK    6  A    between atoms: C_14  and  N_15
REMARK    7  A    between atoms: C_17  and  C_18
REMARK                            x       y       z     vdW  Elec       q    Type
REMARK                         _______ _______ _______ _____ _____    ______ ____
ROOT
ATOM      1  N   UNL     1      -3.063  13.689  21.213  0.00  0.00    +0.000 N 
ATOM      2  C   UNL     1      -3.684  13.065  20.140  0.00  0.00    +0.000 C 
ATOM      3  O   UNL     1      -4.823  13.320  19.754  0.00  0.00    +0.000 OA
ATOM      4  C   UNL     1      -2.910  12.018  19.437  0.00  0.00    +0.000 A 
ATOM      5  C   UNL     1      -3.457  11.447  18.282  0.00  0.00    +0.000 A 
ATOM      6  C   UNL     1      -2.759  10.475  17.591  0.00  0.00    +0.000 A 
ATOM      7  C   UNL     1      -1.510  10.075  18.071  0.00  0.00    +0.000 A 
ATOM      8  C   UNL     1      -0.913  10.628  19.237  0.00  0.00    +0.000 A 
ATOM      9  C   UNL     1       0.347  10.230  19.795  0.00  0.00    +0.000 A 
ATOM     10  C   UNL     1       0.810  10.776  21.005  0.00  0.00    +0.000 A 
ATOM     11  C   UNL     1       0.076  11.762  21.644  0.00  0.00    +0.000 A 
ATOM     12  C   UNL     1      -1.140  12.185  21.099  0.00  0.00    +0.000 A 
ATOM     13  C   UNL     1      -1.656  11.620  19.927  0.00  0.00    +0.000 A 
ATOM     14  C   UNL     1      -1.869  13.270  21.788  0.00  0.00    +0.000 C 
ATOM     15  O   UNL     1      -1.396  13.745  22.819  0.00  0.00    +0.000 OA
ENDROOT
BRANCH   9  16
ATOM     16  N   UNL     1       1.184   9.281  19.145  0.00  0.00    +0.000 N 
ATOM     17  C   UNL     1       1.359   7.956  19.485  0.00  0.00    +0.000 A 
ATOM     18  C   UNL     1       2.243   7.425  18.578  0.00  0.00    +0.000 A 
ATOM     19  C   UNL     1       2.590   8.508  17.755  0.00  0.00    +0.000 A 
ATOM     20  N   UNL     1       1.969   9.630  18.103  0.00  0.00    +0.000 NA
BRANCH  18  21
ATOM     21  C   UNL     1       2.661   6.041  18.521  0.00  0.00    +0.000 A 
ATOM     22  C   UNL     1       3.827   5.638  19.191  0.00  0.00    +0.000 A 
ATOM     23  C   UNL     1       4.212   4.297  19.191  0.00  0.00    +0.000 A 
ATOM     24  C   UNL     1       3.439   3.358  18.512  0.00  0.00    +0.000 A 
ATOM     25 BR   UNL     1       3.952   1.542  18.520  0.00  0.00    +0.000 Br
ATOM     26  C   UNL     1       2.290   3.748  17.828  0.00  0.00    +0.000 A 
ATOM     27  C   UNL     1       1.904   5.088  17.829  0.00  0.00    +0.000 A 
ENDBRANCH  18  21
ENDBRANCH   9  16
BRANCH   1  28
ATOM     28  C   UNL     1      -3.699  14.871  21.790  0.00  0.00    +0.000 C 
BRANCH  28  29
ATOM     29  C   UNL     1      -4.774  14.496  22.843  0.00  0.00    +0.000 C 
BRANCH  29  31
ATOM     30  C   UNL     1      -4.373  12.696  24.420  0.00  0.00    +0.000 C 
ATOM     31  N   UNL     1      -4.885  13.041  23.092  0.00  0.00    +0.000 NA
ATOM     32  C   UNL     1      -6.281  12.614  22.974  0.00  0.00    +0.000 C 
ENDBRANCH  29  31
ENDBRANCH  28  29
ENDBRANCH   1  28
TORSDOF 5
ENDMDL
