MODEL 1
REMARK VINA RESULT:      -8.5      0.000      0.000
REMARK  Name = 
REMARK  9 active torsions:
REMARK  status: ('A' for Active; 'I' for Inactive)
REMARK    1  A    between atoms: C_1  and  C_2
REMARK    2  A    between atoms: C_3  and  C_4
REMARK    3  A    between atoms: C_4  and  O_6
REMARK    4  A    between atoms: O_6  and  C_7
REMARK    5  A    between atoms: C_7  and  C_8
REMARK    6  A    between atoms: C_7  and  C_14
REMARK    7  A    between atoms: C_23  and  N_24
REMARK    8  A    between atoms: C_27  and  C_28
REMARK    9  A    between atoms: C_29  and  C_30
REMARK                            x       y       z     vdW  Elec       q    Type
REMARK                         _______ _______ _______ _____ _____    ______ ____
ROOT
ATOM      1  C   UNL     1       2.114   9.773  17.747  0.00  0.00    +0.000 C 
ATOM      2  C   UNL     1       0.762   9.521  18.382  0.00  0.00    +0.000 C 
ATOM      3  C   UNL     1       0.637   9.133  19.671  0.00  0.00    +0.000 C 
ATOM      4  N   UNL     1      -0.308   9.729  20.512  0.00  0.00    +0.000 N 
ATOM      5  C   UNL     1       0.229  10.729  21.321  0.00  0.00    +0.000 C 
ATOM      6  O   UNL     1       1.036  10.701  22.222  0.00  0.00    +0.000 OA
ATOM      7  C   UNL     1      -0.371  11.861  20.411  0.00  0.00    +0.000 C 
ATOM      8  C   UNL     1      -1.311  10.696  19.992  0.00  0.00    +0.000 C 
ATOM      9  S   UNL     1      -1.836  10.575  18.288  0.00  0.00    +0.000 S 
ATOM     10  C   UNL     1      -0.358   9.978  17.501  0.00  0.00    +0.000 C 
ENDROOT
BRANCH   7  11
ATOM     11  N   UNL     1       0.454  12.366  19.342  0.00  0.00    +0.000 N 
ATOM     12  C   UNL     1       1.500  13.198  19.486  0.00  0.00    +0.000 C 
ATOM     13  N   UNL     1       2.041  13.781  18.449  0.00  0.00    +0.000 NA
ATOM     14  C   UNL     1       3.127  14.634  19.020  0.00  0.00    +0.000 C 
ATOM     15  C   UNL     1       4.409  14.445  18.218  0.00  0.00    +0.000 C 
ATOM     16  C   UNL     1       3.270  14.200  20.497  0.00  0.00    +0.000 C 
ATOM     17  C   UNL     1       3.331  15.372  21.459  0.00  0.00    +0.000 C 
ATOM     18  N   UNL     1       2.041  13.446  20.701  0.00  0.00    +0.000 N 
ATOM     19  H   UNL     1       0.026  12.414  18.425  0.00  0.00    +0.000 HD
ATOM     20  H   UNL     1       2.108  12.670  21.356  0.00  0.00    +0.000 HD
ENDBRANCH   7  11
BRANCH   3  21
ATOM     21  C   UNL     1       1.604   8.135  20.323  0.00  0.00    +0.000 C 
ATOM     22  O   UNL     1       1.616   7.874  21.520  0.00  0.00    +0.000 OA
BRANCH  21  23
ATOM     23  O   UNL     1       2.237   7.438  19.357  0.00  0.00    +0.000 OA
BRANCH  23  24
ATOM     24  C   UNL     1       2.932   6.174  19.485  0.00  0.00    +0.000 C 
BRANCH  24  25
ATOM     25  C   UNL     1       2.127   4.884  19.545  0.00  0.00    +0.000 A 
ATOM     26  C   UNL     1       1.770   4.184  18.384  0.00  0.00    +0.000 A 
ATOM     27  C   UNL     1       1.081   2.973  18.458  0.00  0.00    +0.000 A 
ATOM     28  C   UNL     1       0.740   2.436  19.696  0.00  0.00    +0.000 A 
ATOM     29  C   UNL     1       1.096   3.107  20.863  0.00  0.00    +0.000 A 
ATOM     30  C   UNL     1       1.779   4.324  20.790  0.00  0.00    +0.000 A 
ENDBRANCH  24  25
BRANCH  24  31
ATOM     31  C   UNL     1       4.167   6.151  18.591  0.00  0.00    +0.000 A 
ATOM     32  C   UNL     1       4.161   6.823  17.354  0.00  0.00    +0.000 A 
ATOM     33  C   UNL     1       5.275   6.779  16.513  0.00  0.00    +0.000 A 
ATOM     34  C   UNL     1       6.412   6.072  16.898  0.00  0.00    +0.000 A 
ATOM     35  C   UNL     1       6.443   5.423  18.128  0.00  0.00    +0.000 A 
ATOM     36  C   UNL     1       5.333   5.468  18.971  0.00  0.00    +0.000 A 
ENDBRANCH  24  31
ENDBRANCH  23  24
ENDBRANCH  21  23
ENDBRANCH   3  21
TORSDOF 6
ENDMDL
MODEL 2
REMARK VINA RESULT:      -8.5      0.508      1.277
REMARK  Name = 
REMARK  9 active torsions:
REMARK  status: ('A' for Active; 'I' for Inactive)
REMARK    1  A    between atoms: C_1  and  C_2
REMARK    2  A    between atoms: C_3  and  C_4
REMARK    3  A    between atoms: C_4  and  O_6
REMARK    4  A    between atoms: O_6  and  C_7
REMARK    5  A    between atoms: C_7  and  C_8
REMARK    6  A    between atoms: C_7  and  C_14
REMARK    7  A    between atoms: C_23  and  N_24
REMARK    8  A    between atoms: C_27  and  C_28
REMARK    9  A    between atoms: C_29  and  C_30
REMARK                            x       y       z     vdW  Elec       q    Type
REMARK                         _______ _______ _______ _____ _____    ______ ____
ROOT
ATOM      1  C   UNL     1       2.232   9.497  17.706  0.00  0.00    +0.000 C 
ATOM      2  C   UNL     1       0.879   9.380  18.376  0.00  0.00    +0.000 C 
ATOM      3  C   UNL     1       0.751   9.035  19.678  0.00  0.00    +0.000 C 
ATOM      4  N   UNL     1      -0.117   9.733  20.524  0.00  0.00    +0.000 N 
ATOM      5  C   UNL     1       0.525  10.700  21.295  0.00  0.00    +0.000 C 
ATOM      6  O   UNL     1       1.348  10.622  22.179  0.00  0.00    +0.000 OA
ATOM      7  C   UNL     1       0.005  11.859  20.369  0.00  0.00    +0.000 C 
ATOM      8  C   UNL     1      -1.043  10.772  20.001  0.00  0.00    +0.000 C 
ATOM      9  S   UNL     1      -1.618  10.658  18.312  0.00  0.00    +0.000 S 
ATOM     10  C   UNL     1      -0.217   9.914  17.509  0.00  0.00    +0.000 C 
ENDROOT
BRANCH   7  11
ATOM     11  N   UNL     1       0.846  12.263  19.270  0.00  0.00    +0.000 N 
ATOM     12  C   UNL     1       1.552  13.406  19.202  0.00  0.00    +0.000 C 
ATOM     13  N   UNL     1       2.097  13.791  18.079  0.00  0.00    +0.000 NA
ATOM     14  C   UNL     1       2.747  15.096  18.405  0.00  0.00    +0.000 C 
ATOM     15  C   UNL     1       4.163  15.123  17.842  0.00  0.00    +0.000 C 
ATOM     16  C   UNL     1       2.710  15.213  19.946  0.00  0.00    +0.000 C 
ATOM     17  C   UNL     1       2.230  16.568  20.430  0.00  0.00    +0.000 C 
ATOM     18  N   UNL     1       1.739  14.183  20.293  0.00  0.00    +0.000 N 
ATOM     19  H   UNL     1       0.616  11.878  18.361  0.00  0.00    +0.000 HD
ATOM     20  H   UNL     1       1.895  13.718  21.184  0.00  0.00    +0.000 HD
ENDBRANCH   7  11
BRANCH   3  21
ATOM     21  C   UNL     1       1.643   7.971  20.333  0.00  0.00    +0.000 C 
ATOM     22  O   UNL     1       1.568   7.647  21.513  0.00  0.00    +0.000 OA
BRANCH  21  23
ATOM     23  O   UNL     1       2.316   7.306  19.372  0.00  0.00    +0.000 OA
BRANCH  23  24
ATOM     24  C   UNL     1       3.043   6.060  19.499  0.00  0.00    +0.000 C 
BRANCH  24  25
ATOM     25  C   UNL     1       2.271   4.752  19.572  0.00  0.00    +0.000 A 
ATOM     26  C   UNL     1       1.907   4.179  20.799  0.00  0.00    +0.000 A 
ATOM     27  C   UNL     1       1.149   3.008  20.849  0.00  0.00    +0.000 A 
ATOM     28  C   UNL     1       0.738   2.390  19.672  0.00  0.00    +0.000 A 
ATOM     29  C   UNL     1       1.077   2.948  18.442  0.00  0.00    +0.000 A 
ATOM     30  C   UNL     1       1.841   4.117  18.391  0.00  0.00    +0.000 A 
ENDBRANCH  24  25
BRANCH  24  31
ATOM     31  C   UNL     1       4.271   6.064  18.594  0.00  0.00    +0.000 A 
ATOM     32  C   UNL     1       5.462   5.439  19.010  0.00  0.00    +0.000 A 
ATOM     33  C   UNL     1       6.601   5.468  18.202  0.00  0.00    +0.000 A 
ATOM     34  C   UNL     1       6.565   6.111  16.967  0.00  0.00    +0.000 A 
ATOM     35  C   UNL     1       5.388   6.711  16.531  0.00  0.00    +0.000 A 
ATOM     36  C   UNL     1       4.248   6.682  17.334  0.00  0.00    +0.000 A 
ENDBRANCH  24  31
ENDBRANCH  23  24
ENDBRANCH  21  23
ENDBRANCH   3  21
TORSDOF 6
ENDMDL
MODEL 3
REMARK VINA RESULT:      -8.3      1.020      1.072
REMARK  Name = 
REMARK  9 active torsions:
REMARK  status: ('A' for Active; 'I' for Inactive)
REMARK    1  A    between atoms: C_1  and  C_2
REMARK    2  A    between atoms: C_3  and  C_4
REMARK    3  A    between atoms: C_4  and  O_6
REMARK    4  A    between atoms: O_6  and  C_7
REMARK    5  A    between atoms: C_7  and  C_8
REMARK    6  A    between atoms: C_7  and  C_14
REMARK    7  A    between atoms: C_23  and  N_24
REMARK    8  A    between atoms: C_27  and  C_28
REMARK    9  A    between atoms: C_29  and  C_30
REMARK                            x       y       z     vdW  Elec       q    Type
REMARK                         _______ _______ _______ _____ _____    ______ ____
ROOT
ATOM      1  C   UNL     1       2.243   9.955  17.983  0.00  0.00    +0.000 C 
ATOM      2  C   UNL     1       0.858   9.629  18.503  0.00  0.00    +0.000 C 
ATOM      3  C   UNL     1       0.658   9.128  19.743  0.00  0.00    +0.000 C 
ATOM      4  N   UNL     1      -0.350   9.636  20.569  0.00  0.00    +0.000 N 
ATOM      5  C   UNL     1       0.115  10.569  21.494  0.00  0.00    +0.000 C 
ATOM      6  O   UNL     1       0.863  10.472  22.441  0.00  0.00    +0.000 OA
ATOM      7  C   UNL     1      -0.448  11.767  20.648  0.00  0.00    +0.000 C 
ATOM      8  C   UNL     1      -1.336  10.631  20.069  0.00  0.00    +0.000 C 
ATOM      9  S   UNL     1      -1.748  10.652  18.330  0.00  0.00    +0.000 S 
ATOM     10  C   UNL     1      -0.212  10.146  17.594  0.00  0.00    +0.000 C 
ENDROOT
BRANCH   7  11
ATOM     11  N   UNL     1       0.435  12.375  19.683  0.00  0.00    +0.000 N 
ATOM     12  C   UNL     1       0.701  13.689  19.583  0.00  0.00    +0.000 C 
ATOM     13  N   UNL     1       1.327  14.169  18.541  0.00  0.00    +0.000 NA
ATOM     14  C   UNL     1       1.396  15.641  18.789  0.00  0.00    +0.000 C 
ATOM     15  C   UNL     1       2.807  16.146  18.510  0.00  0.00    +0.000 C 
ATOM     16  C   UNL     1       0.963  15.842  20.260  0.00  0.00    +0.000 C 
ATOM     17  C   UNL     1      -0.051  16.957  20.435  0.00  0.00    +0.000 C 
ATOM     18  N   UNL     1       0.352  14.555  20.562  0.00  0.00    +0.000 N 
ATOM     19  H   UNL     1       0.569  11.870  18.815  0.00  0.00    +0.000 HD
ATOM     20  H   UNL     1       0.446  14.242  21.526  0.00  0.00    +0.000 HD
ENDBRANCH   7  11
BRANCH   3  21
ATOM     21  C   UNL     1       1.601   8.090  20.368  0.00  0.00    +0.000 C 
ATOM     22  O   UNL     1       1.588   7.779  21.553  0.00  0.00    +0.000 OA
BRANCH  21  23
ATOM     23  O   UNL     1       2.241   7.427  19.384  0.00  0.00    +0.000 OA
BRANCH  23  24
ATOM     24  C   UNL     1       2.940   6.161  19.477  0.00  0.00    +0.000 C 
BRANCH  24  25
ATOM     25  C   UNL     1       2.139   4.871  19.545  0.00  0.00    +0.000 A 
ATOM     26  C   UNL     1       1.743   4.187  18.387  0.00  0.00    +0.000 A 
ATOM     27  C   UNL     1       1.058   2.974  18.467  0.00  0.00    +0.000 A 
ATOM     28  C   UNL     1       0.758   2.419  19.707  0.00  0.00    +0.000 A 
ATOM     29  C   UNL     1       1.152   3.074  20.872  0.00  0.00    +0.000 A 
ATOM     30  C   UNL     1       1.833   4.292  20.793  0.00  0.00    +0.000 A 
ENDBRANCH  24  25
BRANCH  24  31
ATOM     31  C   UNL     1       4.149   6.150  18.546  0.00  0.00    +0.000 A 
ATOM     32  C   UNL     1       4.101   6.827  17.313  0.00  0.00    +0.000 A 
ATOM     33  C   UNL     1       5.190   6.793  16.439  0.00  0.00    +0.000 A 
ATOM     34  C   UNL     1       6.342   6.093  16.786  0.00  0.00    +0.000 A 
ATOM     35  C   UNL     1       6.415   5.440  18.013  0.00  0.00    +0.000 A 
ATOM     36  C   UNL     1       5.330   5.474  18.889  0.00  0.00    +0.000 A 
ENDBRANCH  24  31
ENDBRANCH  23  24
ENDBRANCH  21  23
ENDBRANCH   3  21
TORSDOF 6
ENDMDL
MODEL 4
REMARK VINA RESULT:      -8.2      1.124      1.435
REMARK  Name = 
REMARK  9 active torsions:
REMARK  status: ('A' for Active; 'I' for Inactive)
REMARK    1  A    between atoms: C_1  and  C_2
REMARK    2  A    between atoms: C_3  and  C_4
REMARK    3  A    between atoms: C_4  and  O_6
REMARK    4  A    between atoms: O_6  and  C_7
REMARK    5  A    between atoms: C_7  and  C_8
REMARK    6  A    between atoms: C_7  and  C_14
REMARK    7  A    between atoms: C_23  and  N_24
REMARK    8  A    between atoms: C_27  and  C_28
REMARK    9  A    between atoms: C_29  and  C_30
REMARK                            x       y       z     vdW  Elec       q    Type
REMARK                         _______ _______ _______ _____ _____    ______ ____
ROOT
ATOM      1  C   UNL     1       2.242   9.831  17.840  0.00  0.00    +0.000 C 
ATOM      2  C   UNL     1       0.881   9.548  18.442  0.00  0.00    +0.000 C 
ATOM      3  C   UNL     1       0.740   9.052  19.692  0.00  0.00    +0.000 C 
ATOM      4  N   UNL     1      -0.201   9.590  20.576  0.00  0.00    +0.000 N 
ATOM      5  C   UNL     1       0.347  10.506  21.472  0.00  0.00    +0.000 C 
ATOM      6  O   UNL     1       1.147  10.385  22.373  0.00  0.00    +0.000 OA
ATOM      7  C   UNL     1      -0.227  11.723  20.660  0.00  0.00    +0.000 C 
ATOM      8  C   UNL     1      -1.183  10.616  20.136  0.00  0.00    +0.000 C 
ATOM      9  S   UNL     1      -1.697  10.653  18.425  0.00  0.00    +0.000 S 
ATOM     10  C   UNL     1      -0.224  10.100  17.598  0.00  0.00    +0.000 C 
ENDROOT
BRANCH   7  11
ATOM     11  N   UNL     1       0.615  12.304  19.645  0.00  0.00    +0.000 N 
ATOM     12  C   UNL     1       0.938  13.605  19.543  0.00  0.00    +0.000 C 
ATOM     13  N   UNL     1       1.513  14.072  18.467  0.00  0.00    +0.000 NA
ATOM     14  C   UNL     1       1.669  15.535  18.728  0.00  0.00    +0.000 C 
ATOM     15  C   UNL     1       3.080  15.978  18.359  0.00  0.00    +0.000 C 
ATOM     16  C   UNL     1       1.349  15.732  20.228  0.00  0.00    +0.000 C 
ATOM     17  C   UNL     1       0.404  16.891  20.489  0.00  0.00    +0.000 C 
ATOM     18  N   UNL     1       0.699  14.471  20.556  0.00  0.00    +0.000 N 
ATOM     19  H   UNL     1       0.665  11.808  18.763  0.00  0.00    +0.000 HD
ATOM     20  H   UNL     1       0.844  14.138  21.506  0.00  0.00    +0.000 HD
ENDBRANCH   7  11
BRANCH   3  21
ATOM     21  C   UNL     1       1.685   7.984  20.261  0.00  0.00    +0.000 C 
ATOM     22  O   UNL     1       1.759   7.697  21.450  0.00  0.00    +0.000 OA
BRANCH  21  23
ATOM     23  O   UNL     1       2.209   7.272  19.243  0.00  0.00    +0.000 OA
BRANCH  23  24
ATOM     24  C   UNL     1       3.005   6.064  19.322  0.00  0.00    +0.000 C 
BRANCH  24  25
ATOM     25  C   UNL     1       2.383   4.800  19.896  0.00  0.00    +0.000 A 
ATOM     26  C   UNL     1       2.733   4.318  21.165  0.00  0.00    +0.000 A 
ATOM     27  C   UNL     1       2.112   3.189  21.703  0.00  0.00    +0.000 A 
ATOM     28  C   UNL     1       1.126   2.524  20.982  0.00  0.00    +0.000 A 
ATOM     29  C   UNL     1       0.753   2.991  19.724  0.00  0.00    +0.000 A 
ATOM     30  C   UNL     1       1.379   4.118  19.182  0.00  0.00    +0.000 A 
ENDBRANCH  24  25
BRANCH  24  31
ATOM     31  C   UNL     1       3.833   5.886  18.054  0.00  0.00    +0.000 A 
ATOM     32  C   UNL     1       4.253   7.010  17.317  0.00  0.00    +0.000 A 
ATOM     33  C   UNL     1       4.982   6.856  16.136  0.00  0.00    +0.000 A 
ATOM     34  C   UNL     1       5.310   5.581  15.679  0.00  0.00    +0.000 A 
ATOM     35  C   UNL     1       4.925   4.462  16.410  0.00  0.00    +0.000 A 
ATOM     36  C   UNL     1       4.199   4.612  17.591  0.00  0.00    +0.000 A 
ENDBRANCH  24  31
ENDBRANCH  23  24
ENDBRANCH  21  23
ENDBRANCH   3  21
TORSDOF 6
ENDMDL
MODEL 5
REMARK VINA RESULT:      -7.9      1.225      3.276
REMARK  Name = 
REMARK  9 active torsions:
REMARK  status: ('A' for Active; 'I' for Inactive)
REMARK    1  A    between atoms: C_1  and  C_2
REMARK    2  A    between atoms: C_3  and  C_4
REMARK    3  A    between atoms: C_4  and  O_6
REMARK    4  A    between atoms: O_6  and  C_7
REMARK    5  A    between atoms: C_7  and  C_8
REMARK    6  A    between atoms: C_7  and  C_14
REMARK    7  A    between atoms: C_23  and  N_24
REMARK    8  A    between atoms: C_27  and  C_28
REMARK    9  A    between atoms: C_29  and  C_30
REMARK                            x       y       z     vdW  Elec       q    Type
REMARK                         _______ _______ _______ _____ _____    ______ ____
ROOT
ATOM      1  C   UNL     1       2.430   9.331  17.918  0.00  0.00    +0.000 C 
ATOM      2  C   UNL     1       1.065   9.279  18.572  0.00  0.00    +0.000 C 
ATOM      3  C   UNL     1       0.881   8.758  19.806  0.00  0.00    +0.000 C 
ATOM      4  N   UNL     1       0.095   9.419  20.755  0.00  0.00    +0.000 N 
ATOM      5  C   UNL     1       0.842  10.171  21.661  0.00  0.00    +0.000 C 
ATOM      6  O   UNL     1       1.639   9.859  22.516  0.00  0.00    +0.000 OA
ATOM      7  C   UNL     1       0.477  11.512  20.927  0.00  0.00    +0.000 C 
ATOM      8  C   UNL     1      -0.691  10.631  20.405  0.00  0.00    +0.000 C 
ATOM      9  S   UNL     1      -1.256  10.847  18.722  0.00  0.00    +0.000 S 
ATOM     10  C   UNL     1       0.053  10.069  17.805  0.00  0.00    +0.000 C 
ENDROOT
BRANCH   7  11
ATOM     11  N   UNL     1       1.374  11.974  19.896  0.00  0.00    +0.000 N 
ATOM     12  C   UNL     1       1.590  13.258  19.564  0.00  0.00    +0.000 C 
ATOM     13  N   UNL     1       2.239  13.569  18.473  0.00  0.00    +0.000 NA
ATOM     14  C   UNL     1       2.237  15.062  18.445  0.00  0.00    +0.000 C 
ATOM     15  C   UNL     1       3.636  15.575  18.125  0.00  0.00    +0.000 C 
ATOM     16  C   UNL     1       1.735  15.509  19.838  0.00  0.00    +0.000 C 
ATOM     17  C   UNL     1       0.670  16.587  19.770  0.00  0.00    +0.000 C 
ATOM     18  N   UNL     1       1.165  14.272  20.354  0.00  0.00    +0.000 N 
ATOM     19  H   UNL     1       1.565  11.326  19.142  0.00  0.00    +0.000 HD
ATOM     20  H   UNL     1       1.232  14.146  21.361  0.00  0.00    +0.000 HD
ENDBRANCH   7  11
BRANCH   3  21
ATOM     21  C   UNL     1       1.629   7.505  20.285  0.00  0.00    +0.000 C 
ATOM     22  O   UNL     1       1.294   6.836  21.255  0.00  0.00    +0.000 OA
BRANCH  21  23
ATOM     23  O   UNL     1       2.525   7.140  19.346  0.00  0.00    +0.000 OA
BRANCH  23  24
ATOM     24  C   UNL     1       2.575   5.899  18.602  0.00  0.00    +0.000 C 
BRANCH  24  25
ATOM     25  C   UNL     1       3.705   5.669  17.610  0.00  0.00    +0.000 A 
ATOM     26  C   UNL     1       4.646   6.668  17.322  0.00  0.00    +0.000 A 
ATOM     27  C   UNL     1       5.711   6.423  16.454  0.00  0.00    +0.000 A 
ATOM     28  C   UNL     1       5.857   5.174  15.860  0.00  0.00    +0.000 A 
ATOM     29  C   UNL     1       4.942   4.162  16.141  0.00  0.00    +0.000 A 
ATOM     30  C   UNL     1       3.871   4.408  17.005  0.00  0.00    +0.000 A 
ENDBRANCH  24  25
BRANCH  24  31
ATOM     31  C   UNL     1       2.228   4.720  19.506  0.00  0.00    +0.000 A 
ATOM     32  C   UNL     1       1.019   4.020  19.326  0.00  0.00    +0.000 A 
ATOM     33  C   UNL     1       0.677   2.962  20.171  0.00  0.00    +0.000 A 
ATOM     34  C   UNL     1       1.538   2.583  21.199  0.00  0.00    +0.000 A 
ATOM     35  C   UNL     1       2.747   3.248  21.373  0.00  0.00    +0.000 A 
ATOM     36  C   UNL     1       3.093   4.304  20.529  0.00  0.00    +0.000 A 
ENDBRANCH  24  31
ENDBRANCH  23  24
ENDBRANCH  21  23
ENDBRANCH   3  21
TORSDOF 6
ENDMDL
MODEL 6
REMARK VINA RESULT:      -7.9      1.211      3.327
REMARK  Name = 
REMARK  9 active torsions:
REMARK  status: ('A' for Active; 'I' for Inactive)
REMARK    1  A    between atoms: C_1  and  C_2
REMARK    2  A    between atoms: C_3  and  C_4
REMARK    3  A    between atoms: C_4  and  O_6
REMARK    4  A    between atoms: O_6  and  C_7
REMARK    5  A    between atoms: C_7  and  C_8
REMARK    6  A    between atoms: C_7  and  C_14
REMARK    7  A    between atoms: C_23  and  N_24
REMARK    8  A    between atoms: C_27  and  C_28
REMARK    9  A    between atoms: C_29  and  C_30
REMARK                            x       y       z     vdW  Elec       q    Type
REMARK                         _______ _______ _______ _____ _____    ______ ____
ROOT
ATOM      1  C   UNL     1       2.409   9.320  17.843  0.00  0.00    +0.000 C 
ATOM      2  C   UNL     1       1.058   9.279  18.525  0.00  0.00    +0.000 C 
ATOM      3  C   UNL     1       0.898   8.766  19.766  0.00  0.00    +0.000 C 
ATOM      4  N   UNL     1       0.134   9.437  20.727  0.00  0.00    +0.000 N 
ATOM      5  C   UNL     1       0.903  10.191  21.612  0.00  0.00    +0.000 C 
ATOM      6  O   UNL     1       1.716   9.881  22.453  0.00  0.00    +0.000 OA
ATOM      7  C   UNL     1       0.529  11.530  20.878  0.00  0.00    +0.000 C 
ATOM      8  C   UNL     1      -0.654  10.650  20.385  0.00  0.00    +0.000 C 
ATOM      9  S   UNL     1      -1.253  10.858  18.714  0.00  0.00    +0.000 S 
ATOM     10  C   UNL     1       0.033  10.068  17.774  0.00  0.00    +0.000 C 
ENDROOT
BRANCH   7  11
ATOM     11  N   UNL     1       1.405  11.981  19.826  0.00  0.00    +0.000 N 
ATOM     12  C   UNL     1       1.656  13.263  19.510  0.00  0.00    +0.000 C 
ATOM     13  N   UNL     1       2.278  13.573  18.403  0.00  0.00    +0.000 NA
ATOM     14  C   UNL     1       2.328  15.066  18.405  0.00  0.00    +0.000 C 
ATOM     15  C   UNL     1       3.733  15.536  18.047  0.00  0.00    +0.000 C 
ATOM     16  C   UNL     1       1.890  15.502  19.823  0.00  0.00    +0.000 C 
ATOM     17  C   UNL     1       0.862  16.617  19.812  0.00  0.00    +0.000 C 
ATOM     18  N   UNL     1       1.294  14.274  20.334  0.00  0.00    +0.000 N 
ATOM     19  H   UNL     1       1.548  11.342  19.052  0.00  0.00    +0.000 HD
ATOM     20  H   UNL     1       1.390  14.126  21.335  0.00  0.00    +0.000 HD
ENDBRANCH   7  11
BRANCH   3  21
ATOM     21  C   UNL     1       1.650   7.513  20.238  0.00  0.00    +0.000 C 
ATOM     22  O   UNL     1       1.338   6.857  21.224  0.00  0.00    +0.000 OA
BRANCH  21  23
ATOM     23  O   UNL     1       2.515   7.131  19.277  0.00  0.00    +0.000 OA
BRANCH  23  24
ATOM     24  C   UNL     1       2.541   5.876  18.554  0.00  0.00    +0.000 C 
BRANCH  24  25
ATOM     25  C   UNL     1       3.668   5.607  17.569  0.00  0.00    +0.000 A 
ATOM     26  C   UNL     1       3.949   4.315  17.105  0.00  0.00    +0.000 A 
ATOM     27  C   UNL     1       4.948   4.091  16.158  0.00  0.00    +0.000 A 
ATOM     28  C   UNL     1       5.684   5.158  15.652  0.00  0.00    +0.000 A 
ATOM     29  C   UNL     1       5.415   6.453  16.088  0.00  0.00    +0.000 A 
ATOM     30  C   UNL     1       4.418   6.677  17.042  0.00  0.00    +0.000 A 
ENDBRANCH  24  25
BRANCH  24  31
ATOM     31  C   UNL     1       2.169   4.721  19.477  0.00  0.00    +0.000 A 
ATOM     32  C   UNL     1       2.990   4.396  20.574  0.00  0.00    +0.000 A 
ATOM     33  C   UNL     1       2.675   3.318  21.404  0.00  0.00    +0.000 A 
ATOM     34  C   UNL     1       1.536   2.556  21.158  0.00  0.00    +0.000 A 
ATOM     35  C   UNL     1       0.701   2.880  20.093  0.00  0.00    +0.000 A 
ATOM     36  C   UNL     1       1.011   3.957  19.264  0.00  0.00    +0.000 A 
ENDBRANCH  24  31
ENDBRANCH  23  24
ENDBRANCH  21  23
ENDBRANCH   3  21
TORSDOF 6
ENDMDL
MODEL 7
REMARK VINA RESULT:      -7.8      4.047      7.214
REMARK  Name = 
REMARK  9 active torsions:
REMARK  status: ('A' for Active; 'I' for Inactive)
REMARK    1  A    between atoms: C_1  and  C_2
REMARK    2  A    between atoms: C_3  and  C_4
REMARK    3  A    between atoms: C_4  and  O_6
REMARK    4  A    between atoms: O_6  and  C_7
REMARK    5  A    between atoms: C_7  and  C_8
REMARK    6  A    between atoms: C_7  and  C_14
REMARK    7  A    between atoms: C_23  and  N_24
REMARK    8  A    between atoms: C_27  and  C_28
REMARK    9  A    between atoms: C_29  and  C_30
REMARK                            x       y       z     vdW  Elec       q    Type
REMARK                         _______ _______ _______ _____ _____    ______ ____
ROOT
ATOM      1  C   UNL     1      -1.766  11.939  22.701  0.00  0.00    +0.000 C 
ATOM      2  C   UNL     1      -0.987  13.237  22.741  0.00  0.00    +0.000 C 
ATOM      3  C   UNL     1      -0.130  13.590  21.756  0.00  0.00    +0.000 C 
ATOM      4  N   UNL     1      -0.132  14.886  21.232  0.00  0.00    +0.000 N 
ATOM      5  C   UNL     1      -0.856  14.999  20.046  0.00  0.00    +0.000 C 
ATOM      6  O   UNL     1      -0.684  14.535  18.941  0.00  0.00    +0.000 OA
ATOM      7  C   UNL     1      -2.071  15.664  20.789  0.00  0.00    +0.000 C 
ATOM      8  C   UNL     1      -0.959  15.966  21.833  0.00  0.00    +0.000 C 
ATOM      9  S   UNL     1      -1.361  15.890  23.573  0.00  0.00    +0.000 S 
ATOM     10  C   UNL     1      -1.463  14.135  23.839  0.00  0.00    +0.000 C 
ENDROOT
BRANCH   7  11
ATOM     11  N   UNL     1      -3.114  14.795  21.273  0.00  0.00    +0.000 N 
ATOM     12  C   UNL     1      -4.410  14.853  20.917  0.00  0.00    +0.000 C 
ATOM     13  N   UNL     1      -5.316  14.181  21.576  0.00  0.00    +0.000 NA
ATOM     14  C   UNL     1      -6.605  14.532  20.907  0.00  0.00    +0.000 C 
ATOM     15  C   UNL     1      -7.416  13.267  20.650  0.00  0.00    +0.000 C 
ATOM     16  C   UNL     1      -6.217  15.274  19.607  0.00  0.00    +0.000 C 
ATOM     17  C   UNL     1      -7.009  16.550  19.390  0.00  0.00    +0.000 C 
ATOM     18  N   UNL     1      -4.817  15.589  19.857  0.00  0.00    +0.000 N 
ATOM     19  H   UNL     1      -2.966  14.375  22.183  0.00  0.00    +0.000 HD
ATOM     20  H   UNL     1      -4.218  15.605  19.035  0.00  0.00    +0.000 HD
ENDBRANCH   7  11
BRANCH   3  21
ATOM     21  C   UNL     1       0.782  12.569  21.061  0.00  0.00    +0.000 C 
ATOM     22  O   UNL     1       2.004  12.568  21.152  0.00  0.00    +0.000 OA
BRANCH  21  23
ATOM     23  O   UNL     1       0.027  11.567  20.566  0.00  0.00    +0.000 OA
BRANCH  23  24
ATOM     24  C   UNL     1       0.139  10.928  19.271  0.00  0.00    +0.000 C 
BRANCH  24  25
ATOM     25  C   UNL     1       1.030   9.704  19.120  0.00  0.00    +0.000 A 
ATOM     26  C   UNL     1       1.161   8.757  20.144  0.00  0.00    +0.000 A 
ATOM     27  C   UNL     1       1.936   7.610  19.969  0.00  0.00    +0.000 A 
ATOM     28  C   UNL     1       2.593   7.387  18.763  0.00  0.00    +0.000 A 
ATOM     29  C   UNL     1       2.468   8.308  17.725  0.00  0.00    +0.000 A 
ATOM     30  C   UNL     1       1.697   9.460  17.903  0.00  0.00    +0.000 A 
ENDBRANCH  24  25
BRANCH  24  31
ATOM     31  C   UNL     1      -1.225  10.851  18.594  0.00  0.00    +0.000 A 
ATOM     32  C   UNL     1      -2.285  11.663  19.040  0.00  0.00    +0.000 A 
ATOM     33  C   UNL     1      -3.548  11.574  18.448  0.00  0.00    +0.000 A 
ATOM     34  C   UNL     1      -3.767  10.682  17.402  0.00  0.00    +0.000 A 
ATOM     35  C   UNL     1      -2.723   9.890  16.934  0.00  0.00    +0.000 A 
ATOM     36  C   UNL     1      -1.461   9.979  17.520  0.00  0.00    +0.000 A 
ENDBRANCH  24  31
ENDBRANCH  23  24
ENDBRANCH  21  23
ENDBRANCH   3  21
TORSDOF 6
ENDMDL
MODEL 8
REMARK VINA RESULT:      -7.8      2.149      5.315
REMARK  Name = 
REMARK  9 active torsions:
REMARK  status: ('A' for Active; 'I' for Inactive)
REMARK    1  A    between atoms: C_1  and  C_2
REMARK    2  A    between atoms: C_3  and  C_4
REMARK    3  A    between atoms: C_4  and  O_6
REMARK    4  A    between atoms: O_6  and  C_7
REMARK    5  A    between atoms: C_7  and  C_8
REMARK    6  A    between atoms: C_7  and  C_14
REMARK    7  A    between atoms: C_23  and  N_24
REMARK    8  A    between atoms: C_27  and  C_28
REMARK    9  A    between atoms: C_29  and  C_30
REMARK                            x       y       z     vdW  Elec       q    Type
REMARK                         _______ _______ _______ _____ _____    ______ ____
ROOT
ATOM      1  C   UNL     1      -0.851   9.929  21.582  0.00  0.00    +0.000 C 
ATOM      2  C   UNL     1       0.515  10.282  21.034  0.00  0.00    +0.000 C 
ATOM      3  C   UNL     1       1.260   9.394  20.336  0.00  0.00    +0.000 C 
ATOM      4  N   UNL     1       1.902   9.769  19.152  0.00  0.00    +0.000 N 
ATOM      5  C   UNL     1       1.194   9.413  18.005  0.00  0.00    +0.000 C 
ATOM      6  O   UNL     1       0.905   8.340  17.527  0.00  0.00    +0.000 OA
ATOM      7  C   UNL     1       0.691  10.888  17.796  0.00  0.00    +0.000 C 
ATOM      8  C   UNL     1       1.925  11.183  18.694  0.00  0.00    +0.000 C 
ATOM      9  S   UNL     1       1.822  12.493  19.905  0.00  0.00    +0.000 S 
ATOM     10  C   UNL     1       0.799  11.747  21.152  0.00  0.00    +0.000 C 
ENDROOT
BRANCH   7  11
ATOM     11  N   UNL     1      -0.571  11.253  18.390  0.00  0.00    +0.000 N 
ATOM     12  C   UNL     1      -1.778  11.115  17.813  0.00  0.00    +0.000 C 
ATOM     13  N   UNL     1      -2.836  11.682  18.329  0.00  0.00    +0.000 NA
ATOM     14  C   UNL     1      -3.947  11.328  17.394  0.00  0.00    +0.000 C 
ATOM     15  C   UNL     1      -5.156  10.845  18.186  0.00  0.00    +0.000 C 
ATOM     16  C   UNL     1      -3.373  10.245  16.450  0.00  0.00    +0.000 C 
ATOM     17  C   UNL     1      -3.679  10.508  14.987  0.00  0.00    +0.000 C 
ATOM     18  N   UNL     1      -1.943  10.372  16.695  0.00  0.00    +0.000 N 
ATOM     19  H   UNL     1      -0.544  11.978  19.096  0.00  0.00    +0.000 HD
ATOM     20  H   UNL     1      -1.408   9.511  16.616  0.00  0.00    +0.000 HD
ENDBRANCH   7  11
BRANCH   3  21
ATOM     21  C   UNL     1       1.325   7.907  20.714  0.00  0.00    +0.000 C 
ATOM     22  O   UNL     1       0.367   7.262  21.124  0.00  0.00    +0.000 OA
BRANCH  21  23
ATOM     23  O   UNL     1       2.499   7.396  20.291  0.00  0.00    +0.000 OA
BRANCH  23  24
ATOM     24  C   UNL     1       2.708   6.324  19.339  0.00  0.00    +0.000 C 
BRANCH  24  25
ATOM     25  C   UNL     1       4.024   6.249  18.580  0.00  0.00    +0.000 A 
ATOM     26  C   UNL     1       5.129   5.553  19.089  0.00  0.00    +0.000 A 
ATOM     27  C   UNL     1       6.311   5.444  18.356  0.00  0.00    +0.000 A 
ATOM     28  C   UNL     1       6.409   6.026  17.096  0.00  0.00    +0.000 A 
ATOM     29  C   UNL     1       5.320   6.712  16.564  0.00  0.00    +0.000 A 
ATOM     30  C   UNL     1       4.138   6.827  17.301  0.00  0.00    +0.000 A 
ENDBRANCH  24  25
BRANCH  24  31
ATOM     31  C   UNL     1       2.179   5.006  19.895  0.00  0.00    +0.000 A 
ATOM     32  C   UNL     1       2.496   4.612  21.209  0.00  0.00    +0.000 A 
ATOM     33  C   UNL     1       2.045   3.390  21.715  0.00  0.00    +0.000 A 
ATOM     34  C   UNL     1       1.267   2.551  20.921  0.00  0.00    +0.000 A 
ATOM     35  C   UNL     1       0.925   2.937  19.629  0.00  0.00    +0.000 A 
ATOM     36  C   UNL     1       1.371   4.158  19.122  0.00  0.00    +0.000 A 
ENDBRANCH  24  31
ENDBRANCH  23  24
ENDBRANCH  21  23
ENDBRANCH   3  21
TORSDOF 6
ENDMDL
MODEL 9
REMARK VINA RESULT:      -7.7      2.266      5.224
REMARK  Name = 
REMARK  9 active torsions:
REMARK  status: ('A' for Active; 'I' for Inactive)
REMARK    1  A    between atoms: C_1  and  C_2
REMARK    2  A    between atoms: C_3  and  C_4
REMARK    3  A    between atoms: C_4  and  O_6
REMARK    4  A    between atoms: O_6  and  C_7
REMARK    5  A    between atoms: C_7  and  C_8
REMARK    6  A    between atoms: C_7  and  C_14
REMARK    7  A    between atoms: C_23  and  N_24
REMARK    8  A    between atoms: C_27  and  C_28
REMARK    9  A    between atoms: C_29  and  C_30
REMARK                            x       y       z     vdW  Elec       q    Type
REMARK                         _______ _______ _______ _____ _____    ______ ____
ROOT
ATOM      1  C   UNL     1      -0.724   9.768  21.523  0.00  0.00    +0.000 C 
ATOM      2  C   UNL     1       0.619  10.160  20.941  0.00  0.00    +0.000 C 
ATOM      3  C   UNL     1       1.356   9.302  20.200  0.00  0.00    +0.000 C 
ATOM      4  N   UNL     1       1.954   9.716  19.005  0.00  0.00    +0.000 N 
ATOM      5  C   UNL     1       1.216   9.375  17.874  0.00  0.00    +0.000 C 
ATOM      6  O   UNL     1       0.931   8.307  17.379  0.00  0.00    +0.000 OA
ATOM      7  C   UNL     1       0.680  10.843  17.715  0.00  0.00    +0.000 C 
ATOM      8  C   UNL     1       1.936  11.141  18.580  0.00  0.00    +0.000 C 
ATOM      9  S   UNL     1       1.849  12.421  19.825  0.00  0.00    +0.000 S 
ATOM     10  C   UNL     1       0.879  11.626  21.085  0.00  0.00    +0.000 C 
ENDROOT
BRANCH   7  11
ATOM     11  N   UNL     1      -0.569  11.171  18.357  0.00  0.00    +0.000 N 
ATOM     12  C   UNL     1      -1.786  11.082  17.794  0.00  0.00    +0.000 C 
ATOM     13  N   UNL     1      -2.832  11.614  18.368  0.00  0.00    +0.000 NA
ATOM     14  C   UNL     1      -3.961  11.334  17.431  0.00  0.00    +0.000 C 
ATOM     15  C   UNL     1      -5.159  10.802  18.208  0.00  0.00    +0.000 C 
ATOM     16  C   UNL     1      -3.411  10.320  16.401  0.00  0.00    +0.000 C 
ATOM     17  C   UNL     1      -3.742  10.689  14.966  0.00  0.00    +0.000 C 
ATOM     18  N   UNL     1      -1.976  10.422  16.628  0.00  0.00    +0.000 N 
ATOM     19  H   UNL     1      -0.524  11.843  19.113  0.00  0.00    +0.000 HD
ATOM     20  H   UNL     1      -1.448   9.566  16.477  0.00  0.00    +0.000 HD
ENDBRANCH   7  11
BRANCH   3  21
ATOM     21  C   UNL     1       1.460   7.808  20.539  0.00  0.00    +0.000 C 
ATOM     22  O   UNL     1       0.607   7.186  21.163  0.00  0.00    +0.000 OA
BRANCH  21  23
ATOM     23  O   UNL     1       2.481   7.268  19.844  0.00  0.00    +0.000 OA
BRANCH  23  24
ATOM     24  C   UNL     1       2.456   6.088  19.004  0.00  0.00    +0.000 C 
BRANCH  24  25
ATOM     25  C   UNL     1       3.546   5.894  17.961  0.00  0.00    +0.000 A 
ATOM     26  C   UNL     1       3.880   4.623  17.473  0.00  0.00    +0.000 A 
ATOM     27  C   UNL     1       4.842   4.466  16.474  0.00  0.00    +0.000 A 
ATOM     28  C   UNL     1       5.486   5.579  15.942  0.00  0.00    +0.000 A 
ATOM     29  C   UNL     1       5.161   6.853  16.402  0.00  0.00    +0.000 A 
ATOM     30  C   UNL     1       4.203   7.010  17.407  0.00  0.00    +0.000 A 
ENDBRANCH  24  25
BRANCH  24  31
ATOM     31  C   UNL     1       2.087   4.856  19.824  0.00  0.00    +0.000 A 
ATOM     32  C   UNL     1       1.032   4.020  19.413  0.00  0.00    +0.000 A 
ATOM     33  C   UNL     1       0.664   2.910  20.176  0.00  0.00    +0.000 A 
ATOM     34  C   UNL     1       1.348   2.614  21.353  0.00  0.00    +0.000 A 
ATOM     35  C   UNL     1       2.410   3.416  21.759  0.00  0.00    +0.000 A 
ATOM     36  C   UNL     1       2.781   4.524  20.998  0.00  0.00    +0.000 A 
ENDBRANCH  24  31
ENDBRANCH  23  24
ENDBRANCH  21  23
ENDBRANCH   3  21
TORSDOF 6
ENDMDL
