MODEL 1
REMARK VINA RESULT:      -9.1      0.000      0.000
REMARK  Name = 
REMARK  6 active torsions:
REMARK  status: ('A' for Active; 'I' for Inactive)
REMARK    1  A    between atoms: C_2  and  C_3
REMARK    2  A    between atoms: C_3  and  C_4
REMARK    3  A    between atoms: N_9  and  S_10
REMARK    4  A    between atoms: S_10  and  C_13
REMARK    5  A    between atoms: N_17  and  C_18
REMARK    6  A    between atoms: C_21  and  C_22
REMARK                            x       y       z     vdW  Elec       q    Type
REMARK                         _______ _______ _______ _____ _____    ______ ____
ROOT
ATOM      1  O   UNL     1       7.636   7.850  16.961  0.00  0.00    +0.000 OA
ATOM      2  C   UNL     1       7.998   7.541  18.094  0.00  0.00    +0.000 C 
ATOM      3  N   UNL     1       8.667   8.382  18.975  0.00  0.00    +0.000 N 
ATOM      4  H   UNL     1       9.073   7.972  19.806  0.00  0.00    +0.000 HD
ENDROOT
BRANCH   3   5
ATOM      5  C   UNL     1       8.916   9.760  18.776  0.00  0.00    +0.000 A 
ATOM      6  C   UNL     1       9.919  10.458  19.441  0.00  0.00    +0.000 A 
ATOM      7  C   UNL     1      10.150  11.815  19.178  0.00  0.00    +0.000 A 
ATOM      8  C   UNL     1       9.393  12.523  18.232  0.00  0.00    +0.000 A 
ATOM      9  C   UNL     1       8.374  11.810  17.576  0.00  0.00    +0.000 A 
ATOM     10  C   UNL     1       8.141  10.448  17.838  0.00  0.00    +0.000 A 
BRANCH   8  11
ATOM     11  C   UNL     1       9.680  13.945  17.936  0.00  0.00    +0.000 A 
ATOM     12  C   UNL     1       8.724  14.955  18.136  0.00  0.00    +0.000 A 
ATOM     13  C   UNL     1       9.016  16.288  17.842  0.00  0.00    +0.000 A 
ATOM     14  C   UNL     1      10.274  16.591  17.359  0.00  0.00    +0.000 A 
ATOM     15  N   UNL     1      11.233  15.667  17.153  0.00  0.00    +0.000 NA
ATOM     16  C   UNL     1      10.911  14.379  17.438  0.00  0.00    +0.000 A 
ENDBRANCH   8  11
ENDBRANCH   3   5
BRANCH   2  17
ATOM     17  C   UNL     1       7.698   6.159  18.650  0.00  0.00    +0.000 C 
BRANCH  17  18
ATOM     18  C   UNL     1       6.802   5.315  17.773  0.00  0.00    +0.000 A 
ATOM     19  C   UNL     1       7.278   4.710  16.622  0.00  0.00    +0.000 A 
ATOM     20  C   UNL     1       6.363   4.013  15.863  0.00  0.00    +0.000 A 
ATOM     21  N   UNL     1       5.059   3.934  16.169  0.00  0.00    +0.000 NA
ATOM     22  C   UNL     1       4.694   4.577  17.272  0.00  0.00    +0.000 A 
ATOM     23  N   UNL     1       3.331   4.705  17.517  0.00  0.00    +0.000 N 
ATOM     24  N   UNL     1       5.489   5.267  18.109  0.00  0.00    +0.000 NA
ATOM     25  H   UNL     1       3.146   5.595  17.961  0.00  0.00    +0.000 HD
BRANCH  23  26
ATOM     26  S   UNL     1       2.667   3.462  18.425  0.00  0.00    +0.000 S 
ATOM     27  O   UNL     1       1.355   3.221  17.856  0.00  0.00    +0.000 OA
ATOM     28  O   UNL     1       3.617   2.384  18.587  0.00  0.00    +0.000 OA
BRANCH  26  29
ATOM     29  C   UNL     1       2.394   4.129  20.100  0.00  0.00    +0.000 C 
ATOM     30  C   UNL     1       1.104   3.651  20.721  0.00  0.00    +0.000 C 
ATOM     31  C   UNL     1       2.423   3.146  21.239  0.00  0.00    +0.000 C 
ENDBRANCH  26  29
ENDBRANCH  23  26
ENDBRANCH  17  18
ENDBRANCH   2  17
TORSDOF 6
ENDMDL
MODEL 2
REMARK VINA RESULT:      -8.9      1.134      1.488
REMARK  Name = 
REMARK  6 active torsions:
REMARK  status: ('A' for Active; 'I' for Inactive)
REMARK    1  A    between atoms: C_2  and  C_3
REMARK    2  A    between atoms: C_3  and  C_4
REMARK    3  A    between atoms: N_9  and  S_10
REMARK    4  A    between atoms: S_10  and  C_13
REMARK    5  A    between atoms: N_17  and  C_18
REMARK    6  A    between atoms: C_21  and  C_22
REMARK                            x       y       z     vdW  Elec       q    Type
REMARK                         _______ _______ _______ _____ _____    ______ ____
ROOT
ATOM      1  O   UNL     1       7.360   8.446  17.321  0.00  0.00    +0.000 OA
ATOM      2  C   UNL     1       8.004   7.935  18.235  0.00  0.00    +0.000 C 
ATOM      3  N   UNL     1       8.917   8.607  19.040  0.00  0.00    +0.000 N 
ATOM      4  H   UNL     1       9.519   8.055  19.637  0.00  0.00    +0.000 HD
ENDROOT
BRANCH   3   5
ATOM      5  C   UNL     1       9.151  10.003  19.038  0.00  0.00    +0.000 A 
ATOM      6  C   UNL     1       9.244  10.759  17.873  0.00  0.00    +0.000 A 
ATOM      7  C   UNL     1       9.437  12.145  17.928  0.00  0.00    +0.000 A 
ATOM      8  C   UNL     1       9.536  12.831  19.148  0.00  0.00    +0.000 A 
ATOM      9  C   UNL     1       9.454  12.054  20.317  0.00  0.00    +0.000 A 
ATOM     10  C   UNL     1       9.259  10.662  20.265  0.00  0.00    +0.000 A 
BRANCH   8  11
ATOM     11  C   UNL     1       9.697  14.302  19.186  0.00  0.00    +0.000 A 
ATOM     12  C   UNL     1      10.403  15.000  18.193  0.00  0.00    +0.000 A 
ATOM     13  C   UNL     1      10.547  16.387  18.256  0.00  0.00    +0.000 A 
ATOM     14  C   UNL     1       9.969  17.057  19.315  0.00  0.00    +0.000 A 
ATOM     15  N   UNL     1       9.276  16.443  20.294  0.00  0.00    +0.000 NA
ATOM     16  C   UNL     1       9.165  15.093  20.208  0.00  0.00    +0.000 A 
ENDBRANCH   8  11
ENDBRANCH   3   5
BRANCH   2  17
ATOM     17  C   UNL     1       7.818   6.469  18.586  0.00  0.00    +0.000 C 
BRANCH  17  18
ATOM     18  C   UNL     1       6.859   5.729  17.681  0.00  0.00    +0.000 A 
ATOM     19  C   UNL     1       7.269   5.209  16.465  0.00  0.00    +0.000 A 
ATOM     20  C   UNL     1       6.301   4.605  15.691  0.00  0.00    +0.000 A 
ATOM     21  N   UNL     1       5.009   4.539  16.046  0.00  0.00    +0.000 NA
ATOM     22  C   UNL     1       4.710   5.097  17.213  0.00  0.00    +0.000 A 
ATOM     23  N   UNL     1       3.363   5.244  17.526  0.00  0.00    +0.000 N 
ATOM     24  N   UNL     1       5.561   5.691  18.069  0.00  0.00    +0.000 NA
ATOM     25  H   UNL     1       3.225   6.097  18.051  0.00  0.00    +0.000 HD
BRANCH  23  26
ATOM     26  S   UNL     1       2.696   3.948  18.356  0.00  0.00    +0.000 S 
ATOM     27  O   UNL     1       1.620   3.459  17.517  0.00  0.00    +0.000 OA
ATOM     28  O   UNL     1       3.732   3.058  18.831  0.00  0.00    +0.000 OA
BRANCH  26  29
ATOM     29  C   UNL     1       1.918   4.634  19.856  0.00  0.00    +0.000 C 
ATOM     30  C   UNL     1       0.911   3.698  20.478  0.00  0.00    +0.000 C 
ATOM     31  C   UNL     1       2.228   3.951  21.160  0.00  0.00    +0.000 C 
ENDBRANCH  26  29
ENDBRANCH  23  26
ENDBRANCH  17  18
ENDBRANCH   2  17
TORSDOF 6
ENDMDL
MODEL 3
REMARK VINA RESULT:      -8.8      1.000      1.119
REMARK  Name = 
REMARK  6 active torsions:
REMARK  status: ('A' for Active; 'I' for Inactive)
REMARK    1  A    between atoms: C_2  and  C_3
REMARK    2  A    between atoms: C_3  and  C_4
REMARK    3  A    between atoms: N_9  and  S_10
REMARK    4  A    between atoms: S_10  and  C_13
REMARK    5  A    between atoms: N_17  and  C_18
REMARK    6  A    between atoms: C_21  and  C_22
REMARK                            x       y       z     vdW  Elec       q    Type
REMARK                         _______ _______ _______ _____ _____    ______ ____
ROOT
ATOM      1  O   UNL     1       7.248   8.239  17.290  0.00  0.00    +0.000 OA
ATOM      2  C   UNL     1       7.923   7.719  18.177  0.00  0.00    +0.000 C 
ATOM      3  N   UNL     1       8.819   8.394  18.997  0.00  0.00    +0.000 N 
ATOM      4  H   UNL     1       9.448   7.843  19.566  0.00  0.00    +0.000 HD
ENDROOT
BRANCH   3   5
ATOM      5  C   UNL     1       9.000   9.796  19.046  0.00  0.00    +0.000 A 
ATOM      6  C   UNL     1       9.291  10.487  20.219  0.00  0.00    +0.000 A 
ATOM      7  C   UNL     1       9.500  11.872  20.207  0.00  0.00    +0.000 A 
ATOM      8  C   UNL     1       9.436  12.619  19.021  0.00  0.00    +0.000 A 
ATOM      9  C   UNL     1       9.128  11.912  17.845  0.00  0.00    +0.000 A 
ATOM     10  C   UNL     1       8.919  10.521  17.854  0.00  0.00    +0.000 A 
BRANCH   8  11
ATOM     11  C   UNL     1       9.702  14.075  19.021  0.00  0.00    +0.000 A 
ATOM     12  C   UNL     1       9.444  14.880  17.900  0.00  0.00    +0.000 A 
ATOM     13  C   UNL     1       9.711  16.250  17.922  0.00  0.00    +0.000 A 
ATOM     14  C   UNL     1      10.225  16.797  19.081  0.00  0.00    +0.000 A 
ATOM     15  N   UNL     1      10.488  16.077  20.190  0.00  0.00    +0.000 NA
ATOM     16  C   UNL     1      10.227  14.746  20.129  0.00  0.00    +0.000 A 
ENDBRANCH   8  11
ENDBRANCH   3   5
BRANCH   2  17
ATOM     17  C   UNL     1       7.796   6.234  18.473  0.00  0.00    +0.000 C 
BRANCH  17  18
ATOM     18  C   UNL     1       6.826   5.500  17.576  0.00  0.00    +0.000 A 
ATOM     19  C   UNL     1       7.193   5.071  16.311  0.00  0.00    +0.000 A 
ATOM     20  C   UNL     1       6.214   4.465  15.553  0.00  0.00    +0.000 A 
ATOM     21  N   UNL     1       4.948   4.315  15.968  0.00  0.00    +0.000 NA
ATOM     22  C   UNL     1       4.685   4.791  17.180  0.00  0.00    +0.000 A 
ATOM     23  N   UNL     1       3.352   4.854  17.569  0.00  0.00    +0.000 N 
ATOM     24  N   UNL     1       5.553   5.377  18.025  0.00  0.00    +0.000 NA
ATOM     25  H   UNL     1       3.203   5.669  18.148  0.00  0.00    +0.000 HD
BRANCH  23  26
ATOM     26  S   UNL     1       2.791   3.483  18.353  0.00  0.00    +0.000 S 
ATOM     27  O   UNL     1       1.485   3.213  17.783  0.00  0.00    +0.000 OA
ATOM     28  O   UNL     1       3.812   2.460  18.388  0.00  0.00    +0.000 OA
BRANCH  26  29
ATOM     29  C   UNL     1       2.512   3.954  20.092  0.00  0.00    +0.000 C 
ATOM     30  C   UNL     1       1.962   5.351  20.243  0.00  0.00    +0.000 C 
ATOM     31  C   UNL     1       1.085   4.162  20.523  0.00  0.00    +0.000 C 
ENDBRANCH  26  29
ENDBRANCH  23  26
ENDBRANCH  17  18
ENDBRANCH   2  17
TORSDOF 6
ENDMDL
MODEL 4
REMARK VINA RESULT:      -8.7      1.089      1.554
REMARK  Name = 
REMARK  6 active torsions:
REMARK  status: ('A' for Active; 'I' for Inactive)
REMARK    1  A    between atoms: C_2  and  C_3
REMARK    2  A    between atoms: C_3  and  C_4
REMARK    3  A    between atoms: N_9  and  S_10
REMARK    4  A    between atoms: S_10  and  C_13
REMARK    5  A    between atoms: N_17  and  C_18
REMARK    6  A    between atoms: C_21  and  C_22
REMARK                            x       y       z     vdW  Elec       q    Type
REMARK                         _______ _______ _______ _____ _____    ______ ____
ROOT
ATOM      1  O   UNL     1       7.781   8.133  16.992  0.00  0.00    +0.000 OA
ATOM      2  C   UNL     1       8.125   7.853  18.138  0.00  0.00    +0.000 C 
ATOM      3  N   UNL     1       8.798   8.710  19.001  0.00  0.00    +0.000 N 
ATOM      4  H   UNL     1       9.189   8.320  19.849  0.00  0.00    +0.000 HD
ENDROOT
BRANCH   3   5
ATOM      5  C   UNL     1       9.071  10.078  18.762  0.00  0.00    +0.000 A 
ATOM      6  C   UNL     1       8.378  10.842  17.827  0.00  0.00    +0.000 A 
ATOM      7  C   UNL     1       8.661  12.203  17.657  0.00  0.00    +0.000 A 
ATOM      8  C   UNL     1       9.640  12.857  18.421  0.00  0.00    +0.000 A 
ATOM      9  C   UNL     1      10.342  12.071  19.352  0.00  0.00    +0.000 A 
ATOM     10  C   UNL     1      10.059  10.704  19.526  0.00  0.00    +0.000 A 
BRANCH   8  11
ATOM     11  C   UNL     1       9.895  14.305  18.257  0.00  0.00    +0.000 A 
ATOM     12  C   UNL     1       9.209  15.273  19.011  0.00  0.00    +0.000 A 
ATOM     13  C   UNL     1       9.463  16.633  18.832  0.00  0.00    +0.000 A 
ATOM     14  C   UNL     1      10.414  17.005  17.903  0.00  0.00    +0.000 A 
ATOM     15  N   UNL     1      11.107  16.124  17.156  0.00  0.00    +0.000 NA
ATOM     16  C   UNL     1      10.827  14.809  17.347  0.00  0.00    +0.000 A 
ENDBRANCH   8  11
ENDBRANCH   3   5
BRANCH   2  17
ATOM     17  C   UNL     1       7.798   6.494  18.733  0.00  0.00    +0.000 C 
BRANCH  17  18
ATOM     18  C   UNL     1       6.850   5.662  17.900  0.00  0.00    +0.000 A 
ATOM     19  C   UNL     1       7.316   4.779  16.939  0.00  0.00    +0.000 A 
ATOM     20  C   UNL     1       6.365   4.114  16.196  0.00  0.00    +0.000 A 
ATOM     21  N   UNL     1       5.046   4.313  16.337  0.00  0.00    +0.000 NA
ATOM     22  C   UNL     1       4.701   5.205  17.258  0.00  0.00    +0.000 A 
ATOM     23  N   UNL     1       3.369   5.603  17.297  0.00  0.00    +0.000 N 
ATOM     24  N   UNL     1       5.525   5.898  18.064  0.00  0.00    +0.000 NA
ATOM     25  H   UNL     1       3.311   6.578  17.557  0.00  0.00    +0.000 HD
BRANCH  23  26
ATOM     26  S   UNL     1       2.397   4.682  18.306  0.00  0.00    +0.000 S 
ATOM     27  O   UNL     1       2.195   5.487  19.495  0.00  0.00    +0.000 OA
ATOM     28  O   UNL     1       1.273   4.138  17.576  0.00  0.00    +0.000 OA
BRANCH  26  29
ATOM     29  C   UNL     1       3.392   3.241  18.815  0.00  0.00    +0.000 C 
ATOM     30  C   UNL     1       2.594   2.215  19.581  0.00  0.00    +0.000 C 
ATOM     31  C   UNL     1       3.054   1.920  18.180  0.00  0.00    +0.000 C 
ENDBRANCH  26  29
ENDBRANCH  23  26
ENDBRANCH  17  18
ENDBRANCH   2  17
TORSDOF 6
ENDMDL
MODEL 5
REMARK VINA RESULT:      -8.7      1.230      1.502
REMARK  Name = 
REMARK  6 active torsions:
REMARK  status: ('A' for Active; 'I' for Inactive)
REMARK    1  A    between atoms: C_2  and  C_3
REMARK    2  A    between atoms: C_3  and  C_4
REMARK    3  A    between atoms: N_9  and  S_10
REMARK    4  A    between atoms: S_10  and  C_13
REMARK    5  A    between atoms: N_17  and  C_18
REMARK    6  A    between atoms: C_21  and  C_22
REMARK                            x       y       z     vdW  Elec       q    Type
REMARK                         _______ _______ _______ _____ _____    ______ ____
ROOT
ATOM      1  O   UNL     1       7.441   8.587  17.411  0.00  0.00    +0.000 OA
ATOM      2  C   UNL     1       8.154   8.117  18.296  0.00  0.00    +0.000 C 
ATOM      3  N   UNL     1       9.052   8.844  19.067  0.00  0.00    +0.000 N 
ATOM      4  H   UNL     1       9.713   8.331  19.637  0.00  0.00    +0.000 HD
ENDROOT
BRANCH   3   5
ATOM      5  C   UNL     1       9.194  10.252  19.066  0.00  0.00    +0.000 A 
ATOM      6  C   UNL     1       9.261  11.010  17.900  0.00  0.00    +0.000 A 
ATOM      7  C   UNL     1       9.361  12.406  17.954  0.00  0.00    +0.000 A 
ATOM      8  C   UNL     1       9.389  13.100  19.174  0.00  0.00    +0.000 A 
ATOM      9  C   UNL     1       9.334  12.321  20.343  0.00  0.00    +0.000 A 
ATOM     10  C   UNL     1       9.232  10.919  20.293  0.00  0.00    +0.000 A 
BRANCH   8  11
ATOM     11  C   UNL     1       9.452  14.578  19.210  0.00  0.00    +0.000 A 
ATOM     12  C   UNL     1       9.202  15.306  20.385  0.00  0.00    +0.000 A 
ATOM     13  C   UNL     1       9.260  16.700  20.391  0.00  0.00    +0.000 A 
ATOM     14  C   UNL     1       9.582  17.347  19.215  0.00  0.00    +0.000 A 
ATOM     15  N   UNL     1       9.838  16.703  18.059  0.00  0.00    +0.000 NA
ATOM     16  C   UNL     1       9.761  15.348  18.086  0.00  0.00    +0.000 A 
ENDBRANCH   8  11
ENDBRANCH   3   5
BRANCH   2  17
ATOM     17  C   UNL     1       8.079   6.640  18.644  0.00  0.00    +0.000 C 
BRANCH  17  18
ATOM     18  C   UNL     1       6.995   5.882  17.912  0.00  0.00    +0.000 A 
ATOM     19  C   UNL     1       7.089   5.615  16.556  0.00  0.00    +0.000 A 
ATOM     20  C   UNL     1       6.018   4.970  15.976  0.00  0.00    +0.000 A 
ATOM     21  N   UNL     1       4.906   4.635  16.648  0.00  0.00    +0.000 NA
ATOM     22  C   UNL     1       4.898   4.965  17.934  0.00  0.00    +0.000 A 
ATOM     23  N   UNL     1       3.696   4.834  18.621  0.00  0.00    +0.000 N 
ATOM     24  N   UNL     1       5.883   5.569  18.622  0.00  0.00    +0.000 NA
ATOM     25  H   UNL     1       3.615   5.570  19.310  0.00  0.00    +0.000 HD
BRANCH  23  26
ATOM     26  S   UNL     1       3.469   3.341  19.348  0.00  0.00    +0.000 S 
ATOM     27  O   UNL     1       2.605   2.597  18.452  0.00  0.00    +0.000 OA
ATOM     28  O   UNL     1       4.730   2.791  19.792  0.00  0.00    +0.000 OA
BRANCH  26  29
ATOM     29  C   UNL     1       2.506   3.642  20.867  0.00  0.00    +0.000 C 
ATOM     30  C   UNL     1       1.125   4.185  20.592  0.00  0.00    +0.000 C 
ATOM     31  C   UNL     1       1.295   2.776  21.091  0.00  0.00    +0.000 C 
ENDBRANCH  26  29
ENDBRANCH  23  26
ENDBRANCH  17  18
ENDBRANCH   2  17
TORSDOF 6
ENDMDL
MODEL 6
REMARK VINA RESULT:      -8.7      8.414     11.204
REMARK  Name = 
REMARK  6 active torsions:
REMARK  status: ('A' for Active; 'I' for Inactive)
REMARK    1  A    between atoms: C_2  and  C_3
REMARK    2  A    between atoms: C_3  and  C_4
REMARK    3  A    between atoms: N_9  and  S_10
REMARK    4  A    between atoms: S_10  and  C_13
REMARK    5  A    between atoms: N_17  and  C_18
REMARK    6  A    between atoms: C_21  and  C_22
REMARK                            x       y       z     vdW  Elec       q    Type
REMARK                         _______ _______ _______ _____ _____    ______ ____
ROOT
ATOM      1  O   UNL     1       1.792   9.477  22.806  0.00  0.00    +0.000 OA
ATOM      2  C   UNL     1       0.667   9.410  22.315  0.00  0.00    +0.000 C 
ATOM      3  N   UNL     1       0.374   8.889  21.061  0.00  0.00    +0.000 N 
ATOM      4  H   UNL     1      -0.553   9.047  20.686  0.00  0.00    +0.000 HD
ENDROOT
BRANCH   3   5
ATOM      5  C   UNL     1       1.286   8.225  20.207  0.00  0.00    +0.000 A 
ATOM      6  C   UNL     1       1.841   6.983  20.502  0.00  0.00    +0.000 A 
ATOM      7  C   UNL     1       2.709   6.350  19.603  0.00  0.00    +0.000 A 
ATOM      8  C   UNL     1       3.049   6.929  18.371  0.00  0.00    +0.000 A 
ATOM      9  C   UNL     1       2.493   8.190  18.091  0.00  0.00    +0.000 A 
ATOM     10  C   UNL     1       1.620   8.827  18.991  0.00  0.00    +0.000 A 
BRANCH   8  11
ATOM     11  C   UNL     1       3.934   6.226  17.416  0.00  0.00    +0.000 A 
ATOM     12  C   UNL     1       3.959   4.825  17.314  0.00  0.00    +0.000 A 
ATOM     13  C   UNL     1       4.808   4.185  16.411  0.00  0.00    +0.000 A 
ATOM     14  C   UNL     1       5.618   4.966  15.609  0.00  0.00    +0.000 A 
ATOM     15  N   UNL     1       5.634   6.312  15.657  0.00  0.00    +0.000 NA
ATOM     16  C   UNL     1       4.803   6.901  16.555  0.00  0.00    +0.000 A 
ENDBRANCH   8  11
ENDBRANCH   3   5
BRANCH   2  17
ATOM     17  C   UNL     1      -0.545   9.891  23.095  0.00  0.00    +0.000 C 
BRANCH  17  18
ATOM     18  C   UNL     1      -0.995  11.291  22.747  0.00  0.00    +0.000 A 
ATOM     19  C   UNL     1      -0.188  12.150  22.020  0.00  0.00    +0.000 A 
ATOM     20  C   UNL     1      -0.671  13.424  21.809  0.00  0.00    +0.000 A 
ATOM     21  N   UNL     1      -1.840  13.861  22.300  0.00  0.00    +0.000 NA
ATOM     22  C   UNL     1      -2.524  12.974  23.014  0.00  0.00    +0.000 A 
ATOM     23  N   UNL     1      -3.631  13.435  23.719  0.00  0.00    +0.000 N 
ATOM     24  N   UNL     1      -2.178  11.699  23.269  0.00  0.00    +0.000 NA
ATOM     25  H   UNL     1      -3.717  12.928  24.589  0.00  0.00    +0.000 HD
BRANCH  23  26
ATOM     26  S   UNL     1      -5.075  13.364  22.870  0.00  0.00    +0.000 S 
ATOM     27  O   UNL     1      -5.330  14.718  22.419  0.00  0.00    +0.000 OA
ATOM     28  O   UNL     1      -5.066  12.259  21.937  0.00  0.00    +0.000 OA
BRANCH  26  29
ATOM     29  C   UNL     1      -6.375  12.967  24.086  0.00  0.00    +0.000 C 
ATOM     30  C   UNL     1      -7.697  13.624  23.771  0.00  0.00    +0.000 C 
ATOM     31  C   UNL     1      -7.534  12.139  23.600  0.00  0.00    +0.000 C 
ENDBRANCH  26  29
ENDBRANCH  23  26
ENDBRANCH  17  18
ENDBRANCH   2  17
TORSDOF 6
ENDMDL
MODEL 7
REMARK VINA RESULT:      -8.7      6.883     10.505
REMARK  Name = 
REMARK  6 active torsions:
REMARK  status: ('A' for Active; 'I' for Inactive)
REMARK    1  A    between atoms: C_2  and  C_3
REMARK    2  A    between atoms: C_3  and  C_4
REMARK    3  A    between atoms: N_9  and  S_10
REMARK    4  A    between atoms: S_10  and  C_13
REMARK    5  A    between atoms: N_17  and  C_18
REMARK    6  A    between atoms: C_21  and  C_22
REMARK                            x       y       z     vdW  Elec       q    Type
REMARK                         _______ _______ _______ _____ _____    ______ ____
ROOT
ATOM      1  O   UNL     1       1.960   9.534  22.674  0.00  0.00    +0.000 OA
ATOM      2  C   UNL     1       0.816   9.375  22.253  0.00  0.00    +0.000 C 
ATOM      3  N   UNL     1       0.488   8.766  21.048  0.00  0.00    +0.000 N 
ATOM      4  H   UNL     1      -0.465   8.849  20.718  0.00  0.00    +0.000 HD
ENDROOT
BRANCH   3   5
ATOM      5  C   UNL     1       1.391   8.108  20.180  0.00  0.00    +0.000 A 
ATOM      6  C   UNL     1       1.927   6.851  20.448  0.00  0.00    +0.000 A 
ATOM      7  C   UNL     1       2.786   6.225  19.536  0.00  0.00    +0.000 A 
ATOM      8  C   UNL     1       3.137   6.826  18.318  0.00  0.00    +0.000 A 
ATOM      9  C   UNL     1       2.601   8.101  18.066  0.00  0.00    +0.000 A 
ATOM     10  C   UNL     1       1.736   8.732  18.979  0.00  0.00    +0.000 A 
BRANCH   8  11
ATOM     11  C   UNL     1       4.013   6.131  17.348  0.00  0.00    +0.000 A 
ATOM     12  C   UNL     1       4.039   4.731  17.237  0.00  0.00    +0.000 A 
ATOM     13  C   UNL     1       4.880   4.100  16.320  0.00  0.00    +0.000 A 
ATOM     14  C   UNL     1       5.679   4.887  15.515  0.00  0.00    +0.000 A 
ATOM     15  N   UNL     1       5.693   6.233  15.571  0.00  0.00    +0.000 NA
ATOM     16  C   UNL     1       4.872   6.815  16.483  0.00  0.00    +0.000 A 
ENDBRANCH   8  11
ENDBRANCH   3   5
BRANCH   2  17
ATOM     17  C   UNL     1      -0.379   9.829  23.074  0.00  0.00    +0.000 C 
BRANCH  17  18
ATOM     18  C   UNL     1      -1.034  11.095  22.572  0.00  0.00    +0.000 A 
ATOM     19  C   UNL     1      -2.110  11.664  23.234  0.00  0.00    +0.000 A 
ATOM     20  C   UNL     1      -2.670  12.784  22.658  0.00  0.00    +0.000 A 
ATOM     21  N   UNL     1      -2.248  13.305  21.497  0.00  0.00    +0.000 NA
ATOM     22  C   UNL     1      -1.235  12.668  20.921  0.00  0.00    +0.000 A 
ATOM     23  N   UNL     1      -0.902  13.036  19.622  0.00  0.00    +0.000 N 
ATOM     24  N   UNL     1      -0.587  11.587  21.391  0.00  0.00    +0.000 NA
ATOM     25  H   UNL     1      -0.590  12.224  19.107  0.00  0.00    +0.000 HD
BRANCH  23  26
ATOM     26  S   UNL     1       0.244  14.256  19.517  0.00  0.00    +0.000 S 
ATOM     27  O   UNL     1      -0.378  15.309  18.739  0.00  0.00    +0.000 OA
ATOM     28  O   UNL     1       0.819  14.530  20.815  0.00  0.00    +0.000 OA
BRANCH  26  29
ATOM     29  C   UNL     1       1.612  13.599  18.505  0.00  0.00    +0.000 C 
ATOM     30  C   UNL     1       2.648  14.643  18.167  0.00  0.00    +0.000 C 
ATOM     31  C   UNL     1       2.972  13.549  19.148  0.00  0.00    +0.000 C 
ENDBRANCH  26  29
ENDBRANCH  23  26
ENDBRANCH  17  18
ENDBRANCH   2  17
TORSDOF 6
ENDMDL
MODEL 8
REMARK VINA RESULT:      -8.6      8.423     11.194
REMARK  Name = 
REMARK  6 active torsions:
REMARK  status: ('A' for Active; 'I' for Inactive)
REMARK    1  A    between atoms: C_2  and  C_3
REMARK    2  A    between atoms: C_3  and  C_4
REMARK    3  A    between atoms: N_9  and  S_10
REMARK    4  A    between atoms: S_10  and  C_13
REMARK    5  A    between atoms: N_17  and  C_18
REMARK    6  A    between atoms: C_21  and  C_22
REMARK                            x       y       z     vdW  Elec       q    Type
REMARK                         _______ _______ _______ _____ _____    ______ ____
ROOT
ATOM      1  O   UNL     1       1.995   9.485  22.632  0.00  0.00    +0.000 OA
ATOM      2  C   UNL     1       0.835   9.331  22.252  0.00  0.00    +0.000 C 
ATOM      3  N   UNL     1       0.461   8.758  21.043  0.00  0.00    +0.000 N 
ATOM      4  H   UNL     1      -0.505   8.844  20.755  0.00  0.00    +0.000 HD
ENDROOT
BRANCH   3   5
ATOM      5  C   UNL     1       1.332   8.132  20.120  0.00  0.00    +0.000 A 
ATOM      6  C   UNL     1       1.737   8.729  18.929  0.00  0.00    +0.000 A 
ATOM      7  C   UNL     1       2.633   8.083  18.068  0.00  0.00    +0.000 A 
ATOM      8  C   UNL     1       3.166   6.819  18.367  0.00  0.00    +0.000 A 
ATOM      9  C   UNL     1       2.738   6.222  19.565  0.00  0.00    +0.000 A 
ATOM     10  C   UNL     1       1.840   6.869  20.433  0.00  0.00    +0.000 A 
BRANCH   8  11
ATOM     11  C   UNL     1       4.144   6.171  17.465  0.00  0.00    +0.000 A 
ATOM     12  C   UNL     1       4.060   4.809  17.130  0.00  0.00    +0.000 A 
ATOM     13  C   UNL     1       4.999   4.219  16.283  0.00  0.00    +0.000 A 
ATOM     14  C   UNL     1       6.009   5.011  15.773  0.00  0.00    +0.000 A 
ATOM     15  N   UNL     1       6.138   6.323  16.054  0.00  0.00    +0.000 NA
ATOM     16  C   UNL     1       5.214   6.862  16.890  0.00  0.00    +0.000 A 
ENDBRANCH   8  11
ENDBRANCH   3   5
BRANCH   2  17
ATOM     17  C   UNL     1      -0.328   9.752  23.135  0.00  0.00    +0.000 C 
BRANCH  17  18
ATOM     18  C   UNL     1      -0.954  11.074  22.753  0.00  0.00    +0.000 A 
ATOM     19  C   UNL     1      -0.369  11.906  21.813  0.00  0.00    +0.000 A 
ATOM     20  C   UNL     1      -0.990  13.115  21.584  0.00  0.00    +0.000 A 
ATOM     21  N   UNL     1      -2.085  13.519  22.245  0.00  0.00    +0.000 NA
ATOM     22  C   UNL     1      -2.549  12.666  23.151  0.00  0.00    +0.000 A 
ATOM     23  N   UNL     1      -3.546  13.122  24.008  0.00  0.00    +0.000 N 
ATOM     24  N   UNL     1      -2.054  11.452  23.450  0.00  0.00    +0.000 NA
ATOM     25  H   UNL     1      -3.428  12.704  24.921  0.00  0.00    +0.000 HD
BRANCH  23  26
ATOM     26  S   UNL     1      -5.108  12.864  23.456  0.00  0.00    +0.000 S 
ATOM     27  O   UNL     1      -4.969  12.420  22.083  0.00  0.00    +0.000 OA
ATOM     28  O   UNL     1      -5.868  12.092  24.414  0.00  0.00    +0.000 OA
BRANCH  26  29
ATOM     29  C   UNL     1      -5.915  14.498  23.394  0.00  0.00    +0.000 C 
ATOM     30  C   UNL     1      -7.086  14.542  22.443  0.00  0.00    +0.000 C 
ATOM     31  C   UNL     1      -7.319  14.586  23.928  0.00  0.00    +0.000 C 
ENDBRANCH  26  29
ENDBRANCH  23  26
ENDBRANCH  17  18
ENDBRANCH   2  17
TORSDOF 6
ENDMDL
MODEL 9
REMARK VINA RESULT:      -8.6      1.357      1.529
REMARK  Name = 
REMARK  6 active torsions:
REMARK  status: ('A' for Active; 'I' for Inactive)
REMARK    1  A    between atoms: C_2  and  C_3
REMARK    2  A    between atoms: C_3  and  C_4
REMARK    3  A    between atoms: N_9  and  S_10
REMARK    4  A    between atoms: S_10  and  C_13
REMARK    5  A    between atoms: N_17  and  C_18
REMARK    6  A    between atoms: C_21  and  C_22
REMARK                            x       y       z     vdW  Elec       q    Type
REMARK                         _______ _______ _______ _____ _____    ______ ____
ROOT
ATOM      1  O   UNL     1       7.450   8.493  17.314  0.00  0.00    +0.000 OA
ATOM      2  C   UNL     1       8.059   7.967  18.244  0.00  0.00    +0.000 C 
ATOM      3  N   UNL     1       8.942   8.625  19.092  0.00  0.00    +0.000 N 
ATOM      4  H   UNL     1       9.520   8.063  19.703  0.00  0.00    +0.000 HD
ENDROOT
BRANCH   3   5
ATOM      5  C   UNL     1       9.177  10.020  19.121  0.00  0.00    +0.000 A 
ATOM      6  C   UNL     1       9.255  10.756  20.300  0.00  0.00    +0.000 A 
ATOM      7  C   UNL     1       9.530  12.129  20.275  0.00  0.00    +0.000 A 
ATOM      8  C   UNL     1       9.745  12.819  19.072  0.00  0.00    +0.000 A 
ATOM      9  C   UNL     1       9.649  12.067  17.888  0.00  0.00    +0.000 A 
ATOM     10  C   UNL     1       9.375  10.688  17.910  0.00  0.00    +0.000 A 
BRANCH   8  11
ATOM     11  C   UNL     1      10.076  14.262  19.068  0.00  0.00    +0.000 A 
ATOM     12  C   UNL     1       9.442  15.174  19.928  0.00  0.00    +0.000 A 
ATOM     13  C   UNL     1       9.767  16.531  19.900  0.00  0.00    +0.000 A 
ATOM     14  C   UNL     1      10.735  16.953  19.011  0.00  0.00    +0.000 A 
ATOM     15  N   UNL     1      11.381  16.125  18.167  0.00  0.00    +0.000 NA
ATOM     16  C   UNL     1      11.033  14.814  18.213  0.00  0.00    +0.000 A 
ENDBRANCH   8  11
ENDBRANCH   3   5
BRANCH   2  17
ATOM     17  C   UNL     1       7.859   6.495  18.564  0.00  0.00    +0.000 C 
BRANCH  17  18
ATOM     18  C   UNL     1       6.851   5.797  17.681  0.00  0.00    +0.000 A 
ATOM     19  C   UNL     1       7.235   5.138  16.525  0.00  0.00    +0.000 A 
ATOM     20  C   UNL     1       6.229   4.586  15.762  0.00  0.00    +0.000 A 
ATOM     21  N   UNL     1       4.928   4.694  16.068  0.00  0.00    +0.000 NA
ATOM     22  C   UNL     1       4.658   5.375  17.176  0.00  0.00    +0.000 A 
ATOM     23  N   UNL     1       3.328   5.697  17.422  0.00  0.00    +0.000 N 
ATOM     24  N   UNL     1       5.544   5.937  18.017  0.00  0.00    +0.000 NA
ATOM     25  H   UNL     1       3.273   6.601  17.873  0.00  0.00    +0.000 HD
BRANCH  23  26
ATOM     26  S   UNL     1       2.491   4.557  18.321  0.00  0.00    +0.000 S 
ATOM     27  O   UNL     1       2.182   5.202  19.581  0.00  0.00    +0.000 OA
ATOM     28  O   UNL     1       1.451   3.942  17.526  0.00  0.00    +0.000 OA
BRANCH  26  29
ATOM     29  C   UNL     1       3.673   3.220  18.696  0.00  0.00    +0.000 C 
ATOM     30  C   UNL     1       3.121   2.200  19.662  0.00  0.00    +0.000 C 
ATOM     31  C   UNL     1       3.317   1.839  18.215  0.00  0.00    +0.000 C 
ENDBRANCH  26  29
ENDBRANCH  23  26
ENDBRANCH  17  18
ENDBRANCH   2  17
TORSDOF 6
ENDMDL
