MODEL 1
REMARK VINA RESULT:      -8.0      0.000      0.000
REMARK  Name = 
REMARK  10 active torsions:
REMARK  status: ('A' for Active; 'I' for Inactive)
REMARK    1  A    between atoms: C_1  and  O_2
REMARK    2  A    between atoms: O_2  and  C_3
REMARK    3  A    between atoms: C_6  and  C_7
REMARK    4  A    between atoms: C_8  and  C_9
REMARK    5  A    between atoms: N_11  and  C_12
REMARK    6  A    between atoms: C_13  and  C_14
REMARK    7  A    between atoms: C_16  and  C_17
REMARK    8  A    between atoms: C_17  and  N_18
REMARK    9  A    between atoms: N_18  and  C_19
REMARK   10  A    between atoms: C_24  and  C_25
REMARK                            x       y       z     vdW  Elec       q    Type
REMARK                         _______ _______ _______ _____ _____    ______ ____
ROOT
ATOM      1  C   UNL     1       1.668   8.030  19.902  0.00  0.00    +0.000 A 
ATOM      2  C   UNL     1       2.099   6.790  20.382  0.00  0.00    +0.000 A 
ATOM      3  C   UNL     1       2.956   5.987  19.622  0.00  0.00    +0.000 A 
ATOM      4  C   UNL     1       3.362   6.380  18.345  0.00  0.00    +0.000 A 
ATOM      5  C   UNL     1       2.955   7.638  17.889  0.00  0.00    +0.000 A 
ATOM      6  C   UNL     1       2.161   8.498  18.674  0.00  0.00    +0.000 A 
ENDROOT
BRANCH   4   7
ATOM      7  C   UNL     1       4.167   5.492  17.513  0.00  0.00    +0.000 A 
ATOM      8  C   UNL     1       3.881   4.181  17.023  0.00  0.00    +0.000 A 
ATOM      9  C   UNL     1       2.680   3.323  17.195  0.00  0.00    +0.000 C 
ATOM     10  N   UNL     1       4.885   3.703  16.278  0.00  0.00    +0.000 NA
ATOM     11  N   UNL     1       5.799   4.682  16.275  0.00  0.00    +0.000 N 
ATOM     12  C   UNL     1       7.020   4.488  15.530  0.00  0.00    +0.000 C 
ATOM     13  C   UNL     1       5.429   5.787  17.004  0.00  0.00    +0.000 A 
ATOM     14  C   UNL     1       6.310   6.981  17.142  0.00  0.00    +0.000 C 
ENDBRANCH   4   7
BRANCH   1  16
ATOM     15  C   UNL     1       1.153   9.131  21.930  0.00  0.00    +0.000 C 
ATOM     16  O   UNL     1       0.794   8.841  20.579  0.00  0.00    +0.000 OA
ENDBRANCH   1  16
BRANCH   6  17
ATOM     17  C   UNL     1       1.889   9.889  18.147  0.00  0.00    +0.000 C 
BRANCH  17  18
ATOM     18  N   UNL     1       0.472  10.238  18.042  0.00  0.00    +0.000 NA
ATOM     19  H   UNL     1      -0.060   9.380  18.197  0.00  0.00    +0.000 HD
BRANCH  18  20
ATOM     20  C   UNL     1      -0.026  11.279  18.968  0.00  0.00    +0.000 C 
ATOM     21  C   UNL     1       0.239  12.714  18.489  0.00  0.00    +0.000 C 
ATOM     22  C   UNL     1      -0.386  13.757  19.420  0.00  0.00    +0.000 C 
ATOM     23  C   UNL     1      -1.816  13.460  19.875  0.00  0.00    +0.000 C 
ATOM     24  N   UNL     1      -2.054  12.075  20.247  0.00  0.00    +0.000 NA
ATOM     25  C   UNL     1      -1.553  11.079  19.282  0.00  0.00    +0.000 C 
ATOM     26  H   UNL     1      -3.046  11.913  20.409  0.00  0.00    +0.000 HD
BRANCH  25  27
ATOM     27  C   UNL     1      -2.445  10.890  18.049  0.00  0.00    +0.000 A 
ATOM     28  C   UNL     1      -3.653  11.579  17.851  0.00  0.00    +0.000 A 
ATOM     29  C   UNL     1      -4.391  11.440  16.674  0.00  0.00    +0.000 A 
ATOM     30  C   UNL     1      -3.928  10.616  15.657  0.00  0.00    +0.000 A 
ATOM     31  C   UNL     1      -2.735   9.914  15.824  0.00  0.00    +0.000 A 
ATOM     32  C   UNL     1      -2.004  10.050  17.010  0.00  0.00    +0.000 A 
ENDBRANCH  25  27
ENDBRANCH  18  20
ENDBRANCH  17  18
ENDBRANCH   6  17
TORSDOF 6
ENDMDL
MODEL 2
REMARK VINA RESULT:      -8.0      1.614      8.587
REMARK  Name = 
REMARK  10 active torsions:
REMARK  status: ('A' for Active; 'I' for Inactive)
REMARK    1  A    between atoms: C_1  and  O_2
REMARK    2  A    between atoms: O_2  and  C_3
REMARK    3  A    between atoms: C_6  and  C_7
REMARK    4  A    between atoms: C_8  and  C_9
REMARK    5  A    between atoms: N_11  and  C_12
REMARK    6  A    between atoms: C_13  and  C_14
REMARK    7  A    between atoms: C_16  and  C_17
REMARK    8  A    between atoms: C_17  and  N_18
REMARK    9  A    between atoms: N_18  and  C_19
REMARK   10  A    between atoms: C_24  and  C_25
REMARK                            x       y       z     vdW  Elec       q    Type
REMARK                         _______ _______ _______ _____ _____    ______ ____
ROOT
ATOM      1  C   UNL     1       2.042   7.471  19.903  0.00  0.00    +0.000 A 
ATOM      2  C   UNL     1       1.163   8.096  20.792  0.00  0.00    +0.000 A 
ATOM      3  C   UNL     1       0.535   9.298  20.450  0.00  0.00    +0.000 A 
ATOM      4  C   UNL     1       0.807   9.929  19.234  0.00  0.00    +0.000 A 
ATOM      5  C   UNL     1       1.658   9.277  18.337  0.00  0.00    +0.000 A 
ATOM      6  C   UNL     1       2.235   8.024  18.627  0.00  0.00    +0.000 A 
ENDROOT
BRANCH   4   7
ATOM      7  C   UNL     1       0.234  11.235  18.928  0.00  0.00    +0.000 A 
ATOM      8  C   UNL     1      -0.995  11.573  18.284  0.00  0.00    +0.000 A 
ATOM      9  C   UNL     1      -2.074  10.706  17.740  0.00  0.00    +0.000 C 
ATOM     10  N   UNL     1      -1.161  12.899  18.199  0.00  0.00    +0.000 NA
ATOM     11  N   UNL     1      -0.070  13.412  18.783  0.00  0.00    +0.000 N 
ATOM     12  C   UNL     1       0.055  14.847  18.876  0.00  0.00    +0.000 C 
ATOM     13  C   UNL     1       0.812  12.463  19.240  0.00  0.00    +0.000 A 
ATOM     14  C   UNL     1       2.096  12.825  19.905  0.00  0.00    +0.000 C 
ENDBRANCH   4   7
BRANCH   1  16
ATOM     15  C   UNL     1       1.933   5.274  20.769  0.00  0.00    +0.000 C 
ATOM     16  O   UNL     1       2.721   6.317  20.197  0.00  0.00    +0.000 OA
ENDBRANCH   1  16
BRANCH   6  17
ATOM     17  C   UNL     1       3.031   7.341  17.538  0.00  0.00    +0.000 C 
BRANCH  17  18
ATOM     18  N   UNL     1       4.317   6.794  17.971  0.00  0.00    +0.000 NA
ATOM     19  H   UNL     1       4.120   6.093  18.687  0.00  0.00    +0.000 HD
BRANCH  18  20
ATOM     20  C   UNL     1       5.162   6.177  16.924  0.00  0.00    +0.000 C 
ATOM     21  C   UNL     1       6.590   5.852  17.391  0.00  0.00    +0.000 C 
ATOM     22  C   UNL     1       7.394   5.117  16.314  0.00  0.00    +0.000 C 
ATOM     23  C   UNL     1       6.655   3.987  15.595  0.00  0.00    +0.000 C 
ATOM     24  N   UNL     1       5.280   4.301  15.237  0.00  0.00    +0.000 NA
ATOM     25  C   UNL     1       4.478   4.898  16.320  0.00  0.00    +0.000 C 
ATOM     26  H   UNL     1       4.805   3.471  14.887  0.00  0.00    +0.000 HD
BRANCH  25  27
ATOM     27  C   UNL     1       3.967   3.890  17.357  0.00  0.00    +0.000 A 
ATOM     28  C   UNL     1       4.692   3.518  18.502  0.00  0.00    +0.000 A 
ATOM     29  C   UNL     1       4.152   2.662  19.464  0.00  0.00    +0.000 A 
ATOM     30  C   UNL     1       2.864   2.168  19.311  0.00  0.00    +0.000 A 
ATOM     31  C   UNL     1       2.120   2.514  18.183  0.00  0.00    +0.000 A 
ATOM     32  C   UNL     1       2.669   3.365  17.217  0.00  0.00    +0.000 A 
ENDBRANCH  25  27
ENDBRANCH  18  20
ENDBRANCH  17  18
ENDBRANCH   6  17
TORSDOF 6
ENDMDL
MODEL 3
REMARK VINA RESULT:      -8.0      2.367      9.148
REMARK  Name = 
REMARK  10 active torsions:
REMARK  status: ('A' for Active; 'I' for Inactive)
REMARK    1  A    between atoms: C_1  and  O_2
REMARK    2  A    between atoms: O_2  and  C_3
REMARK    3  A    between atoms: C_6  and  C_7
REMARK    4  A    between atoms: C_8  and  C_9
REMARK    5  A    between atoms: N_11  and  C_12
REMARK    6  A    between atoms: C_13  and  C_14
REMARK    7  A    between atoms: C_16  and  C_17
REMARK    8  A    between atoms: C_17  and  N_18
REMARK    9  A    between atoms: N_18  and  C_19
REMARK   10  A    between atoms: C_24  and  C_25
REMARK                            x       y       z     vdW  Elec       q    Type
REMARK                         _______ _______ _______ _____ _____    ______ ____
ROOT
ATOM      1  C   UNL     1       2.380   7.938  18.436  0.00  0.00    +0.000 A 
ATOM      2  C   UNL     1       2.099   9.195  17.895  0.00  0.00    +0.000 A 
ATOM      3  C   UNL     1       1.279  10.100  18.577  0.00  0.00    +0.000 A 
ATOM      4  C   UNL     1       0.682   9.753  19.789  0.00  0.00    +0.000 A 
ATOM      5  C   UNL     1       0.999   8.508  20.341  0.00  0.00    +0.000 A 
ATOM      6  C   UNL     1       1.889   7.615  19.710  0.00  0.00    +0.000 A 
ENDROOT
BRANCH   4   7
ATOM      7  C   UNL     1      -0.259  10.658  20.443  0.00  0.00    +0.000 A 
ATOM      8  C   UNL     1      -1.060  11.706  19.895  0.00  0.00    +0.000 A 
ATOM      9  C   UNL     1      -1.195  12.191  18.497  0.00  0.00    +0.000 C 
ATOM     10  N   UNL     1      -1.804  12.302  20.835  0.00  0.00    +0.000 NA
ATOM     11  N   UNL     1      -1.501  11.652  21.966  0.00  0.00    +0.000 N 
ATOM     12  C   UNL     1      -2.161  12.045  23.189  0.00  0.00    +0.000 C 
ATOM     13  C   UNL     1      -0.573  10.651  21.799  0.00  0.00    +0.000 A 
ATOM     14  C   UNL     1      -0.087   9.819  22.936  0.00  0.00    +0.000 C 
ENDBRANCH   4   7
BRANCH   1  16
ATOM     15  C   UNL     1       4.248   7.499  17.053  0.00  0.00    +0.000 C 
ATOM     16  O   UNL     1       3.139   6.992  17.796  0.00  0.00    +0.000 OA
ENDBRANCH   1  16
BRANCH   6  17
ATOM     17  C   UNL     1       2.272   6.354  20.452  0.00  0.00    +0.000 C 
BRANCH  17  18
ATOM     18  N   UNL     1       3.387   5.612  19.864  0.00  0.00    +0.000 NA
ATOM     19  H   UNL     1       4.212   5.809  20.434  0.00  0.00    +0.000 HD
BRANCH  18  20
ATOM     20  C   UNL     1       3.225   4.144  19.758  0.00  0.00    +0.000 C 
ATOM     21  C   UNL     1       2.116   3.712  18.786  0.00  0.00    +0.000 C 
ATOM     22  C   UNL     1       2.055   2.190  18.624  0.00  0.00    +0.000 C 
ATOM     23  C   UNL     1       3.405   1.491  18.448  0.00  0.00    +0.000 C 
ATOM     24  N   UNL     1       4.454   1.980  19.329  0.00  0.00    +0.000 NA
ATOM     25  C   UNL     1       4.583   3.447  19.385  0.00  0.00    +0.000 C 
ATOM     26  H   UNL     1       5.352   1.575  19.074  0.00  0.00    +0.000 HD
BRANCH  25  27
ATOM     27  C   UNL     1       5.317   4.063  18.189  0.00  0.00    +0.000 A 
ATOM     28  C   UNL     1       6.523   4.776  18.300  0.00  0.00    +0.000 A 
ATOM     29  C   UNL     1       7.202   5.246  17.174  0.00  0.00    +0.000 A 
ATOM     30  C   UNL     1       6.697   5.001  15.905  0.00  0.00    +0.000 A 
ATOM     31  C   UNL     1       5.500   4.300  15.760  0.00  0.00    +0.000 A 
ATOM     32  C   UNL     1       4.819   3.839  16.892  0.00  0.00    +0.000 A 
ENDBRANCH  25  27
ENDBRANCH  18  20
ENDBRANCH  17  18
ENDBRANCH   6  17
TORSDOF 6
ENDMDL
MODEL 4
REMARK VINA RESULT:      -7.9      2.433      9.166
REMARK  Name = 
REMARK  10 active torsions:
REMARK  status: ('A' for Active; 'I' for Inactive)
REMARK    1  A    between atoms: C_1  and  O_2
REMARK    2  A    between atoms: O_2  and  C_3
REMARK    3  A    between atoms: C_6  and  C_7
REMARK    4  A    between atoms: C_8  and  C_9
REMARK    5  A    between atoms: N_11  and  C_12
REMARK    6  A    between atoms: C_13  and  C_14
REMARK    7  A    between atoms: C_16  and  C_17
REMARK    8  A    between atoms: C_17  and  N_18
REMARK    9  A    between atoms: N_18  and  C_19
REMARK   10  A    between atoms: C_24  and  C_25
REMARK                            x       y       z     vdW  Elec       q    Type
REMARK                         _______ _______ _______ _____ _____    ______ ____
ROOT
ATOM      1  C   UNL     1       2.261   7.904  18.582  0.00  0.00    +0.000 A 
ATOM      2  C   UNL     1       1.977   9.190  18.112  0.00  0.00    +0.000 A 
ATOM      3  C   UNL     1       1.200  10.073  18.868  0.00  0.00    +0.000 A 
ATOM      4  C   UNL     1       0.647   9.677  20.087  0.00  0.00    +0.000 A 
ATOM      5  C   UNL     1       0.967   8.402  20.566  0.00  0.00    +0.000 A 
ATOM      6  C   UNL     1       1.817   7.529  19.859  0.00  0.00    +0.000 A 
ENDROOT
BRANCH   4   7
ATOM      7  C   UNL     1      -0.252  10.562  20.821  0.00  0.00    +0.000 A 
ATOM      8  C   UNL     1      -0.600  10.578  22.206  0.00  0.00    +0.000 A 
ATOM      9  C   UNL     1      -0.147   9.714  23.328  0.00  0.00    +0.000 C 
ATOM     10  N   UNL     1      -1.460  11.564  22.488  0.00  0.00    +0.000 NA
ATOM     11  N   UNL     1      -1.662  12.180  21.316  0.00  0.00    +0.000 N 
ATOM     12  C   UNL     1      -2.544  13.322  21.277  0.00  0.00    +0.000 C 
ATOM     13  C   UNL     1      -0.966  11.623  20.270  0.00  0.00    +0.000 A 
ATOM     14  C   UNL     1      -1.064  12.149  18.879  0.00  0.00    +0.000 C 
ENDBRANCH   4   7
BRANCH   1  16
ATOM     15  C   UNL     1       4.087   7.500  17.135  0.00  0.00    +0.000 C 
ATOM     16  O   UNL     1       2.979   6.979  17.867  0.00  0.00    +0.000 OA
ENDBRANCH   1  16
BRANCH   6  17
ATOM     17  C   UNL     1       2.209   6.229  20.524  0.00  0.00    +0.000 C 
BRANCH  17  18
ATOM     18  N   UNL     1       3.370   5.563  19.933  0.00  0.00    +0.000 NA
ATOM     19  H   UNL     1       4.181   5.810  20.504  0.00  0.00    +0.000 HD
BRANCH  18  20
ATOM     20  C   UNL     1       3.303   4.089  19.817  0.00  0.00    +0.000 C 
ATOM     21  C   UNL     1       2.224   3.592  18.843  0.00  0.00    +0.000 C 
ATOM     22  C   UNL     1       2.261   2.070  18.671  0.00  0.00    +0.000 C 
ATOM     23  C   UNL     1       3.653   1.461  18.491  0.00  0.00    +0.000 C 
ATOM     24  N   UNL     1       4.668   2.011  19.375  0.00  0.00    +0.000 NA
ATOM     25  C   UNL     1       4.703   3.483  19.440  0.00  0.00    +0.000 C 
ATOM     26  H   UNL     1       5.591   1.666  19.116  0.00  0.00    +0.000 HD
BRANCH  25  27
ATOM     27  C   UNL     1       5.395   4.152  18.246  0.00  0.00    +0.000 A 
ATOM     28  C   UNL     1       6.549   4.944  18.362  0.00  0.00    +0.000 A 
ATOM     29  C   UNL     1       7.197   5.465  17.240  0.00  0.00    +0.000 A 
ATOM     30  C   UNL     1       6.710   5.191  15.969  0.00  0.00    +0.000 A 
ATOM     31  C   UNL     1       5.563   4.412  15.819  0.00  0.00    +0.000 A 
ATOM     32  C   UNL     1       4.914   3.901  16.948  0.00  0.00    +0.000 A 
ENDBRANCH  25  27
ENDBRANCH  18  20
ENDBRANCH  17  18
ENDBRANCH   6  17
TORSDOF 6
ENDMDL
MODEL 5
REMARK VINA RESULT:      -7.7      0.771      1.160
REMARK  Name = 
REMARK  10 active torsions:
REMARK  status: ('A' for Active; 'I' for Inactive)
REMARK    1  A    between atoms: C_1  and  O_2
REMARK    2  A    between atoms: O_2  and  C_3
REMARK    3  A    between atoms: C_6  and  C_7
REMARK    4  A    between atoms: C_8  and  C_9
REMARK    5  A    between atoms: N_11  and  C_12
REMARK    6  A    between atoms: C_13  and  C_14
REMARK    7  A    between atoms: C_16  and  C_17
REMARK    8  A    between atoms: C_17  and  N_18
REMARK    9  A    between atoms: N_18  and  C_19
REMARK   10  A    between atoms: C_24  and  C_25
REMARK                            x       y       z     vdW  Elec       q    Type
REMARK                         _______ _______ _______ _____ _____    ______ ____
ROOT
ATOM      1  C   UNL     1       1.440   8.407  20.105  0.00  0.00    +0.000 A 
ATOM      2  C   UNL     1       1.794   7.172  20.655  0.00  0.00    +0.000 A 
ATOM      3  C   UNL     1       2.513   6.235  19.906  0.00  0.00    +0.000 A 
ATOM      4  C   UNL     1       2.851   6.488  18.575  0.00  0.00    +0.000 A 
ATOM      5  C   UNL     1       2.525   7.741  18.046  0.00  0.00    +0.000 A 
ATOM      6  C   UNL     1       1.875   8.731  18.811  0.00  0.00    +0.000 A 
ENDROOT
BRANCH   4   7
ATOM      7  C   UNL     1       3.504   5.466  17.765  0.00  0.00    +0.000 A 
ATOM      8  C   UNL     1       3.079   4.143  17.434  0.00  0.00    +0.000 A 
ATOM      9  C   UNL     1       1.842   3.404  17.799  0.00  0.00    +0.000 C 
ATOM     10  N   UNL     1       3.969   3.519  16.652  0.00  0.00    +0.000 NA
ATOM     11  N   UNL     1       4.945   4.417  16.469  0.00  0.00    +0.000 N 
ATOM     12  C   UNL     1       6.070   4.059  15.639  0.00  0.00    +0.000 C 
ATOM     13  C   UNL     1       4.728   5.611  17.116  0.00  0.00    +0.000 A 
ATOM     14  C   UNL     1       5.702   6.738  17.055  0.00  0.00    +0.000 C 
ENDBRANCH   4   7
BRANCH   1  16
ATOM     15  C   UNL     1      -0.236   8.829  21.718  0.00  0.00    +0.000 C 
ATOM     16  O   UNL     1       0.699   9.348  20.773  0.00  0.00    +0.000 OA
ENDBRANCH   1  16
BRANCH   6  17
ATOM     17  C   UNL     1       1.689  10.097  18.189  0.00  0.00    +0.000 C 
BRANCH  17  18
ATOM     18  N   UNL     1       0.311  10.591  18.199  0.00  0.00    +0.000 NA
ATOM     19  H   UNL     1      -0.285   9.811  18.482  0.00  0.00    +0.000 HD
BRANCH  18  20
ATOM     20  C   UNL     1       0.027  11.748  19.077  0.00  0.00    +0.000 C 
ATOM     21  C   UNL     1       0.410  13.102  18.460  0.00  0.00    +0.000 C 
ATOM     22  C   UNL     1      -0.000  14.277  19.354  0.00  0.00    +0.000 C 
ATOM     23  C   UNL     1      -1.406  14.191  19.952  0.00  0.00    +0.000 C 
ATOM     24  N   UNL     1      -1.765  12.874  20.455  0.00  0.00    +0.000 NA
ATOM     25  C   UNL     1      -1.476  11.760  19.535  0.00  0.00    +0.000 C 
ATOM     26  H   UNL     1      -2.749  12.848  20.714  0.00  0.00    +0.000 HD
BRANCH  25  27
ATOM     27  C   UNL     1      -2.497  11.594  18.402  0.00  0.00    +0.000 A 
ATOM     28  C   UNL     1      -2.161  11.146  17.114  0.00  0.00    +0.000 A 
ATOM     29  C   UNL     1      -3.135  10.928  16.137  0.00  0.00    +0.000 A 
ATOM     30  C   UNL     1      -4.475  11.139  16.434  0.00  0.00    +0.000 A 
ATOM     31  C   UNL     1      -4.841  11.588  17.702  0.00  0.00    +0.000 A 
ATOM     32  C   UNL     1      -3.860  11.813  18.674  0.00  0.00    +0.000 A 
ENDBRANCH  25  27
ENDBRANCH  18  20
ENDBRANCH  17  18
ENDBRANCH   6  17
TORSDOF 6
ENDMDL
MODEL 6
REMARK VINA RESULT:      -7.7      2.084      8.998
REMARK  Name = 
REMARK  10 active torsions:
REMARK  status: ('A' for Active; 'I' for Inactive)
REMARK    1  A    between atoms: C_1  and  O_2
REMARK    2  A    between atoms: O_2  and  C_3
REMARK    3  A    between atoms: C_6  and  C_7
REMARK    4  A    between atoms: C_8  and  C_9
REMARK    5  A    between atoms: N_11  and  C_12
REMARK    6  A    between atoms: C_13  and  C_14
REMARK    7  A    between atoms: C_16  and  C_17
REMARK    8  A    between atoms: C_17  and  N_18
REMARK    9  A    between atoms: N_18  and  C_19
REMARK   10  A    between atoms: C_24  and  C_25
REMARK                            x       y       z     vdW  Elec       q    Type
REMARK                         _______ _______ _______ _____ _____    ______ ____
ROOT
ATOM      1  C   UNL     1       2.565   7.993  18.355  0.00  0.00    +0.000 A 
ATOM      2  C   UNL     1       2.298   9.127  17.583  0.00  0.00    +0.000 A 
ATOM      3  C   UNL     1       1.289  10.022  17.951  0.00  0.00    +0.000 A 
ATOM      4  C   UNL     1       0.489   9.781  19.069  0.00  0.00    +0.000 A 
ATOM      5  C   UNL     1       0.788   8.664  19.856  0.00  0.00    +0.000 A 
ATOM      6  C   UNL     1       1.856   7.796  19.550  0.00  0.00    +0.000 A 
ENDROOT
BRANCH   4   7
ATOM      7  C   UNL     1      -0.632  10.658  19.388  0.00  0.00    +0.000 A 
ATOM      8  C   UNL     1      -0.776  11.630  20.425  0.00  0.00    +0.000 A 
ATOM      9  C   UNL     1       0.171  12.057  21.488  0.00  0.00    +0.000 C 
ATOM     10  N   UNL     1      -1.967  12.237  20.372  0.00  0.00    +0.000 NA
ATOM     11  N   UNL     1      -2.582  11.680  19.321  0.00  0.00    +0.000 N 
ATOM     12  C   UNL     1      -3.907  12.137  18.972  0.00  0.00    +0.000 C 
ATOM     13  C   UNL     1      -1.833  10.719  18.685  0.00  0.00    +0.000 A 
ATOM     14  C   UNL     1      -2.341   9.967  17.503  0.00  0.00    +0.000 C 
ENDBRANCH   4   7
BRANCH   1  16
ATOM     15  C   UNL     1       4.377   7.420  16.949  0.00  0.00    +0.000 C 
ATOM     16  O   UNL     1       3.510   7.057  18.023  0.00  0.00    +0.000 OA
ENDBRANCH   1  16
BRANCH   6  17
ATOM     17  C   UNL     1       2.180   6.697  20.536  0.00  0.00    +0.000 C 
BRANCH  17  18
ATOM     18  N   UNL     1       3.197   5.748  20.083  0.00  0.00    +0.000 NA
ATOM     19  H   UNL     1       3.948   5.759  20.776  0.00  0.00    +0.000 HD
BRANCH  18  20
ATOM     20  C   UNL     1       2.758   4.349  19.883  0.00  0.00    +0.000 C 
ATOM     21  C   UNL     1       1.667   4.188  18.812  0.00  0.00    +0.000 C 
ATOM     22  C   UNL     1       1.320   2.717  18.561  0.00  0.00    +0.000 C 
ATOM     23  C   UNL     1       2.514   1.769  18.443  0.00  0.00    +0.000 C 
ATOM     24  N   UNL     1       3.564   2.000  19.422  0.00  0.00    +0.000 NA
ATOM     25  C   UNL     1       3.976   3.407  19.570  0.00  0.00    +0.000 C 
ATOM     26  H   UNL     1       4.383   1.433  19.209  0.00  0.00    +0.000 HD
BRANCH  25  27
ATOM     27  C   UNL     1       4.912   3.911  18.464  0.00  0.00    +0.000 A 
ATOM     28  C   UNL     1       6.147   4.532  18.715  0.00  0.00    +0.000 A 
ATOM     29  C   UNL     1       7.007   4.898  17.678  0.00  0.00    +0.000 A 
ATOM     30  C   UNL     1       6.657   4.637  16.360  0.00  0.00    +0.000 A 
ATOM     31  C   UNL     1       5.436   4.026  16.077  0.00  0.00    +0.000 A 
ATOM     32  C   UNL     1       4.574   3.669  17.120  0.00  0.00    +0.000 A 
ENDBRANCH  25  27
ENDBRANCH  18  20
ENDBRANCH  17  18
ENDBRANCH   6  17
TORSDOF 6
ENDMDL
MODEL 7
REMARK VINA RESULT:      -7.7      1.844      8.681
REMARK  Name = 
REMARK  10 active torsions:
REMARK  status: ('A' for Active; 'I' for Inactive)
REMARK    1  A    between atoms: C_1  and  O_2
REMARK    2  A    between atoms: O_2  and  C_3
REMARK    3  A    between atoms: C_6  and  C_7
REMARK    4  A    between atoms: C_8  and  C_9
REMARK    5  A    between atoms: N_11  and  C_12
REMARK    6  A    between atoms: C_13  and  C_14
REMARK    7  A    between atoms: C_16  and  C_17
REMARK    8  A    between atoms: C_17  and  N_18
REMARK    9  A    between atoms: N_18  and  C_19
REMARK   10  A    between atoms: C_24  and  C_25
REMARK                            x       y       z     vdW  Elec       q    Type
REMARK                         _______ _______ _______ _____ _____    ______ ____
ROOT
ATOM      1  C   UNL     1       1.923   7.164  20.409  0.00  0.00    +0.000 A 
ATOM      2  C   UNL     1       0.886   7.771  21.122  0.00  0.00    +0.000 A 
ATOM      3  C   UNL     1       0.267   8.928  20.639  0.00  0.00    +0.000 A 
ATOM      4  C   UNL     1       0.702   9.535  19.460  0.00  0.00    +0.000 A 
ATOM      5  C   UNL     1       1.715   8.900  18.734  0.00  0.00    +0.000 A 
ATOM      6  C   UNL     1       2.294   7.687  19.161  0.00  0.00    +0.000 A 
ENDROOT
BRANCH   4   7
ATOM      7  C   UNL     1       0.127  10.801  19.016  0.00  0.00    +0.000 A 
ATOM      8  C   UNL     1      -0.982  11.056  18.153  0.00  0.00    +0.000 A 
ATOM      9  C   UNL     1      -1.899  10.119  17.453  0.00  0.00    +0.000 C 
ATOM     10  N   UNL     1      -1.198  12.368  18.001  0.00  0.00    +0.000 NA
ATOM     11  N   UNL     1      -0.257  12.954  18.753  0.00  0.00    +0.000 N 
ATOM     12  C   UNL     1      -0.225  14.395  18.823  0.00  0.00    +0.000 C 
ATOM     13  C   UNL     1       0.576  12.065  19.389  0.00  0.00    +0.000 A 
ATOM     14  C   UNL     1       1.700  12.511  20.261  0.00  0.00    +0.000 C 
ENDBRANCH   4   7
BRANCH   1  16
ATOM     15  C   UNL     1       1.794   4.896  21.065  0.00  0.00    +0.000 C 
ATOM     16  O   UNL     1       2.598   6.056  20.852  0.00  0.00    +0.000 OA
ENDBRANCH   1  16
BRANCH   6  17
ATOM     17  C   UNL     1       3.284   7.013  18.239  0.00  0.00    +0.000 C 
BRANCH  17  18
ATOM     18  N   UNL     1       2.747   5.878  17.487  0.00  0.00    +0.000 NA
ATOM     19  H   UNL     1       3.245   5.847  16.595  0.00  0.00    +0.000 HD
BRANCH  18  20
ATOM     20  C   UNL     1       2.846   4.549  18.131  0.00  0.00    +0.000 C 
ATOM     21  C   UNL     1       2.094   3.439  17.379  0.00  0.00    +0.000 C 
ATOM     22  C   UNL     1       2.311   2.063  18.017  0.00  0.00    +0.000 C 
ATOM     23  C   UNL     1       3.753   1.741  18.413  0.00  0.00    +0.000 C 
ATOM     24  N   UNL     1       4.461   2.839  19.050  0.00  0.00    +0.000 NA
ATOM     25  C   UNL     1       4.345   4.136  18.360  0.00  0.00    +0.000 C 
ATOM     26  H   UNL     1       5.447   2.609  19.166  0.00  0.00    +0.000 HD
BRANCH  25  27
ATOM     27  C   UNL     1       5.249   4.282  17.130  0.00  0.00    +0.000 A 
ATOM     28  C   UNL     1       4.825   4.013  15.818  0.00  0.00    +0.000 A 
ATOM     29  C   UNL     1       5.655   4.241  14.719  0.00  0.00    +0.000 A 
ATOM     30  C   UNL     1       6.929   4.759  14.907  0.00  0.00    +0.000 A 
ATOM     31  C   UNL     1       7.382   5.032  16.197  0.00  0.00    +0.000 A 
ATOM     32  C   UNL     1       6.549   4.793  17.295  0.00  0.00    +0.000 A 
ENDBRANCH  25  27
ENDBRANCH  18  20
ENDBRANCH  17  18
ENDBRANCH   6  17
TORSDOF 6
ENDMDL
MODEL 8
REMARK VINA RESULT:      -7.6      1.451      3.031
REMARK  Name = 
REMARK  10 active torsions:
REMARK  status: ('A' for Active; 'I' for Inactive)
REMARK    1  A    between atoms: C_1  and  O_2
REMARK    2  A    between atoms: O_2  and  C_3
REMARK    3  A    between atoms: C_6  and  C_7
REMARK    4  A    between atoms: C_8  and  C_9
REMARK    5  A    between atoms: N_11  and  C_12
REMARK    6  A    between atoms: C_13  and  C_14
REMARK    7  A    between atoms: C_16  and  C_17
REMARK    8  A    between atoms: C_17  and  N_18
REMARK    9  A    between atoms: N_18  and  C_19
REMARK   10  A    between atoms: C_24  and  C_25
REMARK                            x       y       z     vdW  Elec       q    Type
REMARK                         _______ _______ _______ _____ _____    ______ ____
ROOT
ATOM      1  C   UNL     1       1.330   8.526  20.314  0.00  0.00    +0.000 A 
ATOM      2  C   UNL     1       1.740   7.312  20.872  0.00  0.00    +0.000 A 
ATOM      3  C   UNL     1       2.410   6.359  20.098  0.00  0.00    +0.000 A 
ATOM      4  C   UNL     1       2.643   6.575  18.738  0.00  0.00    +0.000 A 
ATOM      5  C   UNL     1       2.262   7.807  18.198  0.00  0.00    +0.000 A 
ATOM      6  C   UNL     1       1.662   8.814  18.981  0.00  0.00    +0.000 A 
ENDROOT
BRANCH   4   7
ATOM      7  C   UNL     1       3.244   5.534  17.911  0.00  0.00    +0.000 A 
ATOM      8  C   UNL     1       2.790   4.211  17.621  0.00  0.00    +0.000 A 
ATOM      9  C   UNL     1       1.565   3.491  18.058  0.00  0.00    +0.000 C 
ATOM     10  N   UNL     1       3.632   3.567  16.804  0.00  0.00    +0.000 NA
ATOM     11  N   UNL     1       4.607   4.452  16.561  0.00  0.00    +0.000 N 
ATOM     12  C   UNL     1       5.686   4.069  15.681  0.00  0.00    +0.000 C 
ATOM     13  C   UNL     1       4.435   5.656  17.201  0.00  0.00    +0.000 A 
ATOM     14  C   UNL     1       5.417   6.772  17.075  0.00  0.00    +0.000 C 
ENDBRANCH   4   7
BRANCH   1  16
ATOM     15  C   UNL     1      -0.276   8.978  21.989  0.00  0.00    +0.000 C 
ATOM     16  O   UNL     1       0.631   9.480  21.008  0.00  0.00    +0.000 OA
ENDBRANCH   1  16
BRANCH   6  17
ATOM     17  C   UNL     1       1.412  10.158  18.335  0.00  0.00    +0.000 C 
BRANCH  17  18
ATOM     18  N   UNL     1       0.289  10.909  18.897  0.00  0.00    +0.000 NA
ATOM     19  H   UNL     1       0.601  11.875  19.011  0.00  0.00    +0.000 HD
BRANCH  18  20
ATOM     20  C   UNL     1      -0.968  10.907  18.116  0.00  0.00    +0.000 C 
ATOM     21  C   UNL     1      -1.767   9.599  18.230  0.00  0.00    +0.000 C 
ATOM     22  C   UNL     1      -3.110   9.678  17.497  0.00  0.00    +0.000 C 
ATOM     23  C   UNL     1      -3.905  10.966  17.718  0.00  0.00    +0.000 C 
ATOM     24  N   UNL     1      -3.106  12.180  17.682  0.00  0.00    +0.000 NA
ATOM     25  C   UNL     1      -1.874  12.136  18.490  0.00  0.00    +0.000 C 
ATOM     26  H   UNL     1      -3.663  12.984  17.967  0.00  0.00    +0.000 HD
BRANCH  25  27
ATOM     27  C   UNL     1      -2.096  12.339  19.993  0.00  0.00    +0.000 A 
ATOM     28  C   UNL     1      -1.051  12.420  20.929  0.00  0.00    +0.000 A 
ATOM     29  C   UNL     1      -1.294  12.692  22.277  0.00  0.00    +0.000 A 
ATOM     30  C   UNL     1      -2.592  12.905  22.719  0.00  0.00    +0.000 A 
ATOM     31  C   UNL     1      -3.652  12.827  21.817  0.00  0.00    +0.000 A 
ATOM     32  C   UNL     1      -3.404  12.545  20.469  0.00  0.00    +0.000 A 
ENDBRANCH  25  27
ENDBRANCH  18  20
ENDBRANCH  17  18
ENDBRANCH   6  17
TORSDOF 6
ENDMDL
MODEL 9
REMARK VINA RESULT:      -7.6      2.076      8.937
REMARK  Name = 
REMARK  10 active torsions:
REMARK  status: ('A' for Active; 'I' for Inactive)
REMARK    1  A    between atoms: C_1  and  O_2
REMARK    2  A    between atoms: O_2  and  C_3
REMARK    3  A    between atoms: C_6  and  C_7
REMARK    4  A    between atoms: C_8  and  C_9
REMARK    5  A    between atoms: N_11  and  C_12
REMARK    6  A    between atoms: C_13  and  C_14
REMARK    7  A    between atoms: C_16  and  C_17
REMARK    8  A    between atoms: C_17  and  N_18
REMARK    9  A    between atoms: N_18  and  C_19
REMARK   10  A    between atoms: C_24  and  C_25
REMARK                            x       y       z     vdW  Elec       q    Type
REMARK                         _______ _______ _______ _____ _____    ______ ____
ROOT
ATOM      1  C   UNL     1       2.597   8.080  18.406  0.00  0.00    +0.000 A 
ATOM      2  C   UNL     1       2.376   9.227  17.638  0.00  0.00    +0.000 A 
ATOM      3  C   UNL     1       1.346  10.116  17.960  0.00  0.00    +0.000 A 
ATOM      4  C   UNL     1       0.482   9.856  19.025  0.00  0.00    +0.000 A 
ATOM      5  C   UNL     1       0.733   8.726  19.809  0.00  0.00    +0.000 A 
ATOM      6  C   UNL     1       1.817   7.863  19.552  0.00  0.00    +0.000 A 
ENDROOT
BRANCH   4   7
ATOM      7  C   UNL     1      -0.657  10.729  19.291  0.00  0.00    +0.000 A 
ATOM      8  C   UNL     1      -1.909  10.841  18.611  0.00  0.00    +0.000 A 
ATOM      9  C   UNL     1      -2.443  10.102  17.438  0.00  0.00    +0.000 C 
ATOM     10  N   UNL     1      -2.696  11.764  19.176  0.00  0.00    +0.000 NA
ATOM     11  N   UNL     1      -1.979  12.235  20.204  0.00  0.00    +0.000 N 
ATOM     12  C   UNL     1      -2.562  13.252  21.047  0.00  0.00    +0.000 C 
ATOM     13  C   UNL     1      -0.739  11.655  20.327  0.00  0.00    +0.000 A 
ATOM     14  C   UNL     1       0.222  12.050  21.396  0.00  0.00    +0.000 C 
ENDBRANCH   4   7
BRANCH   1  16
ATOM     15  C   UNL     1       4.241   7.342  16.875  0.00  0.00    +0.000 C 
ATOM     16  O   UNL     1       3.561   7.148  18.114  0.00  0.00    +0.000 OA
ENDBRANCH   1  16
BRANCH   6  17
ATOM     17  C   UNL     1       2.083   6.746  20.537  0.00  0.00    +0.000 C 
BRANCH  17  18
ATOM     18  N   UNL     1       3.128   5.806  20.131  0.00  0.00    +0.000 NA
ATOM     19  H   UNL     1       3.831   5.800  20.872  0.00  0.00    +0.000 HD
BRANCH  18  20
ATOM     20  C   UNL     1       2.703   4.413  19.870  0.00  0.00    +0.000 C 
ATOM     21  C   UNL     1       1.687   4.279  18.724  0.00  0.00    +0.000 C 
ATOM     22  C   UNL     1       1.357   2.815  18.416  0.00  0.00    +0.000 C 
ATOM     23  C   UNL     1       2.557   1.868  18.357  0.00  0.00    +0.000 C 
ATOM     24  N   UNL     1       3.538   2.074  19.410  0.00  0.00    +0.000 NA
ATOM     25  C   UNL     1       3.940   3.477  19.617  0.00  0.00    +0.000 C 
ATOM     26  H   UNL     1       4.369   1.511  19.240  0.00  0.00    +0.000 HD
BRANCH  25  27
ATOM     27  C   UNL     1       4.948   4.005  18.590  0.00  0.00    +0.000 A 
ATOM     28  C   UNL     1       6.094   4.741  18.934  0.00  0.00    +0.000 A 
ATOM     29  C   UNL     1       7.031   5.129  17.973  0.00  0.00    +0.000 A 
ATOM     30  C   UNL     1       6.850   4.773  16.644  0.00  0.00    +0.000 A 
ATOM     31  C   UNL     1       5.721   4.046  16.269  0.00  0.00    +0.000 A 
ATOM     32  C   UNL     1       4.781   3.669  17.234  0.00  0.00    +0.000 A 
ENDBRANCH  25  27
ENDBRANCH  18  20
ENDBRANCH  17  18
ENDBRANCH   6  17
TORSDOF 6
ENDMDL
