MODEL 1
REMARK VINA RESULT:      -7.2      0.000      0.000
REMARK  Name = 
REMARK  9 active torsions:
REMARK  status: ('A' for Active; 'I' for Inactive)
REMARK    1  A    between atoms: C_1  and  C_2
REMARK    2  A    between atoms: C_2  and  C_3
REMARK    3  A    between atoms: C_3  and  C_4
REMARK    4  A    between atoms: C_4  and  C_5
REMARK    5  A    between atoms: C_5  and  O_6
REMARK    6  A    between atoms: C_5  and  C_7
REMARK    7  A    between atoms: C_5  and  C_13
REMARK    8  A    between atoms: C_7  and  N_8
REMARK    9  A    between atoms: C_13  and  C_15
REMARK                            x       y       z     vdW  Elec       q    Type
REMARK                         _______ _______ _______ _____ _____    ______ ____
ROOT
ATOM      1  C   UNL     1       6.920   5.830  17.962  0.00  0.00    +0.000 C 
ENDROOT
BRANCH   1   2
ATOM      2  O   UNL     1       5.847   6.396  17.184  0.00  0.00    +0.000 OA
ATOM      3  H   UNL     1       5.020   5.929  17.396  0.00  0.00    +0.000 HD
ENDBRANCH   1   2
BRANCH   1   4
ATOM      4  C   UNL     1       6.322   5.294  19.292  0.00  0.00    +0.000 C 
ATOM      5  O   UNL     1       6.991   5.244  20.326  0.00  0.00    +0.000 OA
BRANCH   4   6
ATOM      6  C   UNL     1       4.912   4.780  19.349  0.00  0.00    +0.000 A 
ATOM      7  C   UNL     1       3.792   5.615  19.451  0.00  0.00    +0.000 A 
ATOM      8  C   UNL     1       2.503   5.076  19.509  0.00  0.00    +0.000 A 
ATOM      9  C   UNL     1       2.327   3.696  19.468  0.00  0.00    +0.000 A 
ATOM     10 CL   UNL     1       0.742   3.038  19.573  0.00  0.00    +0.000 Cl
ATOM     11  C   UNL     1       3.426   2.851  19.349  0.00  0.00    +0.000 A 
ATOM     12  C   UNL     1       4.716   3.392  19.281  0.00  0.00    +0.000 A 
ENDBRANCH   4   6
ENDBRANCH   1   4
BRANCH   1  13
ATOM     13  C   UNL     1       7.925   6.977  18.271  0.00  0.00    +0.000 C 
BRANCH  13  14
ATOM     14  C   UNL     1       7.866   8.139  17.268  0.00  0.00    +0.000 C 
BRANCH  14  16
ATOM     15  C   UNL     1       9.120   9.594  18.866  0.00  0.00    +0.000 C 
ATOM     16  C   UNL     1       7.924   9.517  17.924  0.00  0.00    +0.000 C 
ENDBRANCH  14  16
ENDBRANCH  13  14
ENDBRANCH   1  13
BRANCH   1  17
ATOM     17  C   UNL     1       7.546   4.665  17.170  0.00  0.00    +0.000 C 
BRANCH  17  18
ATOM     18  N   UNL     1       7.095   4.524  15.807  0.00  0.00    +0.000 N 
ATOM     19  C   UNL     1       6.115   3.707  15.336  0.00  0.00    +0.000 A 
ATOM     20  N   UNL     1       5.930   3.940  14.060  0.00  0.00    +0.000 NA
ATOM     21  C   UNL     1       6.835   4.928  13.796  0.00  0.00    +0.000 A 
ATOM     22  N   UNL     1       7.546   5.346  14.845  0.00  0.00    +0.000 NA
ENDBRANCH  17  18
ENDBRANCH   1  17
TORSDOF 8
ENDMDL
MODEL 2
REMARK VINA RESULT:      -7.2      2.031      4.525
REMARK  Name = 
REMARK  9 active torsions:
REMARK  status: ('A' for Active; 'I' for Inactive)
REMARK    1  A    between atoms: C_1  and  C_2
REMARK    2  A    between atoms: C_2  and  C_3
REMARK    3  A    between atoms: C_3  and  C_4
REMARK    4  A    between atoms: C_4  and  C_5
REMARK    5  A    between atoms: C_5  and  O_6
REMARK    6  A    between atoms: C_5  and  C_7
REMARK    7  A    between atoms: C_5  and  C_13
REMARK    8  A    between atoms: C_7  and  N_8
REMARK    9  A    between atoms: C_13  and  C_15
REMARK                            x       y       z     vdW  Elec       q    Type
REMARK                         _______ _______ _______ _____ _____    ______ ____
ROOT
ATOM      1  C   UNL     1       5.676   4.385  15.715  0.00  0.00    +0.000 C 
ENDROOT
BRANCH   1   2
ATOM      2  O   UNL     1       5.642   3.111  16.388  0.00  0.00    +0.000 OA
ATOM      3  H   UNL     1       6.492   2.966  16.838  0.00  0.00    +0.000 HD
ENDBRANCH   1   2
BRANCH   1   4
ATOM      4  C   UNL     1       4.681   5.337  16.433  0.00  0.00    +0.000 C 
ATOM      5  O   UNL     1       4.630   6.539  16.165  0.00  0.00    +0.000 OA
BRANCH   4   6
ATOM      6  C   UNL     1       3.770   4.825  17.511  0.00  0.00    +0.000 A 
ATOM      7  C   UNL     1       2.664   4.003  17.259  0.00  0.00    +0.000 A 
ATOM      8  C   UNL     1       1.847   3.565  18.306  0.00  0.00    +0.000 A 
ATOM      9  C   UNL     1       2.129   3.951  19.613  0.00  0.00    +0.000 A 
ATOM     10 CL   UNL     1       1.101   3.436  20.892  0.00  0.00    +0.000 Cl
ATOM     11  C   UNL     1       3.233   4.753  19.886  0.00  0.00    +0.000 A 
ATOM     12  C   UNL     1       4.057   5.183  18.839  0.00  0.00    +0.000 A 
ENDBRANCH   4   6
ENDBRANCH   1   4
BRANCH   1  13
ATOM     13  C   UNL     1       5.203   4.150  14.250  0.00  0.00    +0.000 C 
BRANCH  13  14
ATOM     14  C   UNL     1       6.352   3.899  13.262  0.00  0.00    +0.000 C 
BRANCH  14  16
ATOM     15  C   UNL     1       4.526   3.306  11.663  0.00  0.00    +0.000 C 
ATOM     16  C   UNL     1       5.961   3.009  12.084  0.00  0.00    +0.000 C 
ENDBRANCH  14  16
ENDBRANCH  13  14
ENDBRANCH   1  13
BRANCH   1  17
ATOM     17  C   UNL     1       7.103   4.960  15.812  0.00  0.00    +0.000 C 
BRANCH  17  18
ATOM     18  N   UNL     1       7.412   5.657  17.036  0.00  0.00    +0.000 N 
ATOM     19  C   UNL     1       7.627   5.121  18.267  0.00  0.00    +0.000 A 
ATOM     20  N   UNL     1       7.980   6.069  19.100  0.00  0.00    +0.000 NA
ATOM     21  C   UNL     1       7.970   7.185  18.313  0.00  0.00    +0.000 A 
ATOM     22  N   UNL     1       7.664   6.977  17.031  0.00  0.00    +0.000 NA
ENDBRANCH  17  18
ENDBRANCH   1  17
TORSDOF 8
ENDMDL
MODEL 3
REMARK VINA RESULT:      -7.1      0.273      1.081
REMARK  Name = 
REMARK  9 active torsions:
REMARK  status: ('A' for Active; 'I' for Inactive)
REMARK    1  A    between atoms: C_1  and  C_2
REMARK    2  A    between atoms: C_2  and  C_3
REMARK    3  A    between atoms: C_3  and  C_4
REMARK    4  A    between atoms: C_4  and  C_5
REMARK    5  A    between atoms: C_5  and  O_6
REMARK    6  A    between atoms: C_5  and  C_7
REMARK    7  A    between atoms: C_5  and  C_13
REMARK    8  A    between atoms: C_7  and  N_8
REMARK    9  A    between atoms: C_13  and  C_15
REMARK                            x       y       z     vdW  Elec       q    Type
REMARK                         _______ _______ _______ _____ _____    ______ ____
ROOT
ATOM      1  C   UNL     1       6.933   5.849  17.780  0.00  0.00    +0.000 C 
ENDROOT
BRANCH   1   2
ATOM      2  O   UNL     1       5.836   6.384  17.014  0.00  0.00    +0.000 OA
ATOM      3  H   UNL     1       5.111   5.735  17.000  0.00  0.00    +0.000 HD
ENDBRANCH   1   2
BRANCH   1   4
ATOM      4  C   UNL     1       6.377   5.364  19.147  0.00  0.00    +0.000 C 
ATOM      5  O   UNL     1       7.054   5.419  20.176  0.00  0.00    +0.000 OA
BRANCH   4   6
ATOM      6  C   UNL     1       5.000   4.774  19.251  0.00  0.00    +0.000 A 
ATOM      7  C   UNL     1       4.726   3.417  19.038  0.00  0.00    +0.000 A 
ATOM      8  C   UNL     1       3.419   2.929  19.140  0.00  0.00    +0.000 A 
ATOM      9  C   UNL     1       2.377   3.796  19.454  0.00  0.00    +0.000 A 
ATOM     10 CL   UNL     1       0.769   3.196  19.546  0.00  0.00    +0.000 Cl
ATOM     11  C   UNL     1       2.633   5.145  19.687  0.00  0.00    +0.000 A 
ATOM     12  C   UNL     1       3.942   5.631  19.594  0.00  0.00    +0.000 A 
ENDBRANCH   4   6
ENDBRANCH   1   4
BRANCH   1  13
ATOM     13  C   UNL     1       7.946   7.008  18.014  0.00  0.00    +0.000 C 
BRANCH  13  14
ATOM     14  C   UNL     1       7.364   8.403  17.738  0.00  0.00    +0.000 C 
BRANCH  14  16
ATOM     15  C   UNL     1       8.989   9.742  19.082  0.00  0.00    +0.000 C 
ATOM     16  C   UNL     1       8.418   9.506  17.688  0.00  0.00    +0.000 C 
ENDBRANCH  14  16
ENDBRANCH  13  14
ENDBRANCH   1  13
BRANCH   1  17
ATOM     17  C   UNL     1       7.537   4.654  17.015  0.00  0.00    +0.000 C 
BRANCH  17  18
ATOM     18  N   UNL     1       7.098   4.502  15.650  0.00  0.00    +0.000 N 
ATOM     19  C   UNL     1       6.106   3.699  15.180  0.00  0.00    +0.000 A 
ATOM     20  N   UNL     1       5.940   3.916  13.898  0.00  0.00    +0.000 NA
ATOM     21  C   UNL     1       6.868   4.881  13.630  0.00  0.00    +0.000 A 
ATOM     22  N   UNL     1       7.577   5.300  14.681  0.00  0.00    +0.000 NA
ENDBRANCH  17  18
ENDBRANCH   1  17
TORSDOF 8
ENDMDL
MODEL 4
REMARK VINA RESULT:      -7.0      3.926      5.544
REMARK  Name = 
REMARK  9 active torsions:
REMARK  status: ('A' for Active; 'I' for Inactive)
REMARK    1  A    between atoms: C_1  and  C_2
REMARK    2  A    between atoms: C_2  and  C_3
REMARK    3  A    between atoms: C_3  and  C_4
REMARK    4  A    between atoms: C_4  and  C_5
REMARK    5  A    between atoms: C_5  and  O_6
REMARK    6  A    between atoms: C_5  and  C_7
REMARK    7  A    between atoms: C_5  and  C_13
REMARK    8  A    between atoms: C_7  and  N_8
REMARK    9  A    between atoms: C_13  and  C_15
REMARK                            x       y       z     vdW  Elec       q    Type
REMARK                         _______ _______ _______ _____ _____    ______ ____
ROOT
ATOM      1  C   UNL     1       4.001   3.735  17.895  0.00  0.00    +0.000 C 
ENDROOT
BRANCH   1   2
ATOM      2  O   UNL     1       2.718   4.002  17.294  0.00  0.00    +0.000 OA
ATOM      3  H   UNL     1       2.517   4.950  17.380  0.00  0.00    +0.000 HD
ENDBRANCH   1   2
BRANCH   1   4
ATOM      4  C   UNL     1       4.423   4.989  18.709  0.00  0.00    +0.000 C 
ATOM      5  O   UNL     1       5.477   5.019  19.348  0.00  0.00    +0.000 OA
BRANCH   4   6
ATOM      6  C   UNL     1       3.535   6.199  18.772  0.00  0.00    +0.000 A 
ATOM      7  C   UNL     1       3.496   7.179  17.772  0.00  0.00    +0.000 A 
ATOM      8  C   UNL     1       2.654   8.288  17.894  0.00  0.00    +0.000 A 
ATOM      9  C   UNL     1       1.846   8.426  19.019  0.00  0.00    +0.000 A 
ATOM     10 CL   UNL     1       0.838   9.809  19.177  0.00  0.00    +0.000 Cl
ATOM     11  C   UNL     1       1.859   7.454  20.015  0.00  0.00    +0.000 A 
ATOM     12  C   UNL     1       2.695   6.339  19.889  0.00  0.00    +0.000 A 
ENDBRANCH   4   6
ENDBRANCH   1   4
BRANCH   1  13
ATOM     13  C   UNL     1       5.017   3.501  16.739  0.00  0.00    +0.000 C 
BRANCH  13  14
ATOM     14  C   UNL     1       5.088   4.661  15.734  0.00  0.00    +0.000 C 
BRANCH  14  16
ATOM     15  C   UNL     1       6.117   3.871  13.599  0.00  0.00    +0.000 C 
ATOM     16  C   UNL     1       6.356   4.656  14.883  0.00  0.00    +0.000 C 
ENDBRANCH  14  16
ENDBRANCH  13  14
ENDBRANCH   1  13
BRANCH   1  17
ATOM     17  C   UNL     1       3.863   2.527  18.842  0.00  0.00    +0.000 C 
BRANCH  17  18
ATOM     18  N   UNL     1       2.885   2.667  19.893  0.00  0.00    +0.000 N 
ATOM     19  C   UNL     1       3.107   2.727  21.233  0.00  0.00    +0.000 A 
ATOM     20  N   UNL     1       1.975   2.958  21.853  0.00  0.00    +0.000 NA
ATOM     21  C   UNL     1       1.077   3.037  20.827  0.00  0.00    +0.000 A 
ATOM     22  N   UNL     1       1.594   2.902  19.604  0.00  0.00    +0.000 NA
ENDBRANCH  17  18
ENDBRANCH   1  17
TORSDOF 8
ENDMDL
MODEL 5
REMARK VINA RESULT:      -6.9      3.942      5.592
REMARK  Name = 
REMARK  9 active torsions:
REMARK  status: ('A' for Active; 'I' for Inactive)
REMARK    1  A    between atoms: C_1  and  C_2
REMARK    2  A    between atoms: C_2  and  C_3
REMARK    3  A    between atoms: C_3  and  C_4
REMARK    4  A    between atoms: C_4  and  C_5
REMARK    5  A    between atoms: C_5  and  O_6
REMARK    6  A    between atoms: C_5  and  C_7
REMARK    7  A    between atoms: C_5  and  C_13
REMARK    8  A    between atoms: C_7  and  N_8
REMARK    9  A    between atoms: C_13  and  C_15
REMARK                            x       y       z     vdW  Elec       q    Type
REMARK                         _______ _______ _______ _____ _____    ______ ____
ROOT
ATOM      1  C   UNL     1       3.988   3.698  17.934  0.00  0.00    +0.000 C 
ENDROOT
BRANCH   1   2
ATOM      2  O   UNL     1       2.721   3.976  17.306  0.00  0.00    +0.000 OA
ATOM      3  H   UNL     1       2.828   4.721  16.689  0.00  0.00    +0.000 HD
ENDBRANCH   1   2
BRANCH   1   4
ATOM      4  C   UNL     1       4.408   4.951  18.751  0.00  0.00    +0.000 C 
ATOM      5  O   UNL     1       5.465   4.983  19.384  0.00  0.00    +0.000 OA
BRANCH   4   6
ATOM      6  C   UNL     1       3.514   6.155  18.825  0.00  0.00    +0.000 A 
ATOM      7  C   UNL     1       2.638   6.399  19.890  0.00  0.00    +0.000 A 
ATOM      8  C   UNL     1       1.823   7.536  19.897  0.00  0.00    +0.000 A 
ATOM      9  C   UNL     1       1.878   8.435  18.836  0.00  0.00    +0.000 A 
ATOM     10 CL   UNL     1       0.850   9.813  18.836  0.00  0.00    +0.000 Cl
ATOM     11  C   UNL     1       2.755   8.218  17.777  0.00  0.00    +0.000 A 
ATOM     12  C   UNL     1       3.578   7.086  17.775  0.00  0.00    +0.000 A 
ENDBRANCH   4   6
ENDBRANCH   1   4
BRANCH   1  13
ATOM     13  C   UNL     1       5.024   3.447  16.800  0.00  0.00    +0.000 C 
BRANCH  13  14
ATOM     14  C   UNL     1       5.039   4.543  15.723  0.00  0.00    +0.000 C 
BRANCH  14  16
ATOM     15  C   UNL     1       6.013   3.889  13.517  0.00  0.00    +0.000 C 
ATOM     16  C   UNL     1       6.302   4.539  14.865  0.00  0.00    +0.000 C 
ENDBRANCH  14  16
ENDBRANCH  13  14
ENDBRANCH   1  13
BRANCH   1  17
ATOM     17  C   UNL     1       3.818   2.496  18.884  0.00  0.00    +0.000 C 
BRANCH  17  18
ATOM     18  N   UNL     1       2.842   2.663  19.932  0.00  0.00    +0.000 N 
ATOM     19  C   UNL     1       3.061   2.695  21.274  0.00  0.00    +0.000 A 
ATOM     20  N   UNL     1       1.937   2.966  21.893  0.00  0.00    +0.000 NA
ATOM     21  C   UNL     1       1.047   3.096  20.865  0.00  0.00    +0.000 A 
ATOM     22  N   UNL     1       1.563   2.956  19.642  0.00  0.00    +0.000 NA
ENDBRANCH  17  18
ENDBRANCH   1  17
TORSDOF 8
ENDMDL
MODEL 6
REMARK VINA RESULT:      -6.9      2.089      4.545
REMARK  Name = 
REMARK  9 active torsions:
REMARK  status: ('A' for Active; 'I' for Inactive)
REMARK    1  A    between atoms: C_1  and  C_2
REMARK    2  A    between atoms: C_2  and  C_3
REMARK    3  A    between atoms: C_3  and  C_4
REMARK    4  A    between atoms: C_4  and  C_5
REMARK    5  A    between atoms: C_5  and  O_6
REMARK    6  A    between atoms: C_5  and  C_7
REMARK    7  A    between atoms: C_5  and  C_13
REMARK    8  A    between atoms: C_7  and  N_8
REMARK    9  A    between atoms: C_13  and  C_15
REMARK                            x       y       z     vdW  Elec       q    Type
REMARK                         _______ _______ _______ _____ _____    ______ ____
ROOT
ATOM      1  C   UNL     1       5.588   4.538  15.801  0.00  0.00    +0.000 C 
ENDROOT
BRANCH   1   2
ATOM      2  O   UNL     1       5.508   3.212  16.361  0.00  0.00    +0.000 OA
ATOM      3  H   UNL     1       5.410   2.567  15.639  0.00  0.00    +0.000 HD
ENDBRANCH   1   2
BRANCH   1   4
ATOM      4  C   UNL     1       4.627   5.460  16.602  0.00  0.00    +0.000 C 
ATOM      5  O   UNL     1       4.561   6.670  16.381  0.00  0.00    +0.000 OA
BRANCH   4   6
ATOM      6  C   UNL     1       3.772   4.905  17.705  0.00  0.00    +0.000 A 
ATOM      7  C   UNL     1       4.074   5.057  19.064  0.00  0.00    +0.000 A 
ATOM      8  C   UNL     1       3.242   4.509  20.045  0.00  0.00    +0.000 A 
ATOM      9  C   UNL     1       2.102   3.802  19.672  0.00  0.00    +0.000 A 
ATOM     10 CL   UNL     1       1.101   3.103  20.882  0.00  0.00    +0.000 Cl
ATOM     11  C   UNL     1       1.776   3.655  18.327  0.00  0.00    +0.000 A 
ATOM     12  C   UNL     1       2.604   4.213  17.345  0.00  0.00    +0.000 A 
ENDBRANCH   4   6
ENDBRANCH   1   4
BRANCH   1  13
ATOM     13  C   UNL     1       5.107   4.448  14.323  0.00  0.00    +0.000 C 
BRANCH  13  14
ATOM     14  C   UNL     1       6.044   3.637  13.416  0.00  0.00    +0.000 C 
BRANCH  14  16
ATOM     15  C   UNL     1       5.959   1.978  11.550  0.00  0.00    +0.000 C 
ATOM     16  C   UNL     1       5.450   3.328  12.043  0.00  0.00    +0.000 C 
ENDBRANCH  14  16
ENDBRANCH  13  14
ENDBRANCH   1  13
BRANCH   1  17
ATOM     17  C   UNL     1       7.034   5.051  15.943  0.00  0.00    +0.000 C 
BRANCH  17  18
ATOM     18  N   UNL     1       7.414   5.485  17.265  0.00  0.00    +0.000 N 
ATOM     19  C   UNL     1       7.652   4.711  18.358  0.00  0.00    +0.000 A 
ATOM     20  N   UNL     1       8.072   5.467  19.344  0.00  0.00    +0.000 NA
ATOM     21  C   UNL     1       8.078   6.715  18.789  0.00  0.00    +0.000 A 
ATOM     22  N   UNL     1       7.718   6.772  17.505  0.00  0.00    +0.000 NA
ENDBRANCH  17  18
ENDBRANCH   1  17
TORSDOF 8
ENDMDL
MODEL 7
REMARK VINA RESULT:      -6.8      2.865      5.236
REMARK  Name = 
REMARK  9 active torsions:
REMARK  status: ('A' for Active; 'I' for Inactive)
REMARK    1  A    between atoms: C_1  and  C_2
REMARK    2  A    between atoms: C_2  and  C_3
REMARK    3  A    between atoms: C_3  and  C_4
REMARK    4  A    between atoms: C_4  and  C_5
REMARK    5  A    between atoms: C_5  and  O_6
REMARK    6  A    between atoms: C_5  and  C_7
REMARK    7  A    between atoms: C_5  and  C_13
REMARK    8  A    between atoms: C_7  and  N_8
REMARK    9  A    between atoms: C_13  and  C_15
REMARK                            x       y       z     vdW  Elec       q    Type
REMARK                         _______ _______ _______ _____ _____    ______ ____
ROOT
ATOM      1  C   UNL     1       3.393   4.311  18.090  0.00  0.00    +0.000 C 
ENDROOT
BRANCH   1   2
ATOM      2  O   UNL     1       3.878   3.088  18.678  0.00  0.00    +0.000 OA
ATOM      3  H   UNL     1       4.554   3.301  19.344  0.00  0.00    +0.000 HD
ENDBRANCH   1   2
BRANCH   1   4
ATOM      4  C   UNL     1       3.748   5.481  19.048  0.00  0.00    +0.000 C 
ATOM      5  O   UNL     1       4.700   5.411  19.827  0.00  0.00    +0.000 OA
BRANCH   4   6
ATOM      6  C   UNL     1       2.911   6.728  19.082  0.00  0.00    +0.000 A 
ATOM      7  C   UNL     1       2.145   7.111  20.190  0.00  0.00    +0.000 A 
ATOM      8  C   UNL     1       1.378   8.280  20.157  0.00  0.00    +0.000 A 
ATOM      9  C   UNL     1       1.371   9.072  19.013  0.00  0.00    +0.000 A 
ATOM     10 CL   UNL     1       0.400  10.491  18.967  0.00  0.00    +0.000 Cl
ATOM     11  C   UNL     1       2.139   8.716  17.908  0.00  0.00    +0.000 A 
ATOM     12  C   UNL     1       2.914   7.552  17.945  0.00  0.00    +0.000 A 
ENDBRANCH   4   6
ENDBRANCH   1   4
BRANCH   1  13
ATOM     13  C   UNL     1       1.845   4.189  17.973  0.00  0.00    +0.000 C 
BRANCH  13  14
ATOM     14  C   UNL     1       1.239   3.110  18.884  0.00  0.00    +0.000 C 
BRANCH  14  16
ATOM     15  C   UNL     1       1.621   3.087  21.354  0.00  0.00    +0.000 C 
ATOM     16  C   UNL     1       0.756   3.648  20.230  0.00  0.00    +0.000 C 
ENDBRANCH  14  16
ENDBRANCH  13  14
ENDBRANCH   1  13
BRANCH   1  17
ATOM     17  C   UNL     1       4.094   4.523  16.734  0.00  0.00    +0.000 C 
BRANCH  17  18
ATOM     18  N   UNL     1       5.471   4.946  16.804  0.00  0.00    +0.000 N 
ATOM     19  C   UNL     1       6.574   4.164  16.954  0.00  0.00    +0.000 A 
ATOM     20  N   UNL     1       7.650   4.908  16.869  0.00  0.00    +0.000 NA
ATOM     21  C   UNL     1       7.140   6.158  16.658  0.00  0.00    +0.000 A 
ATOM     22  N   UNL     1       5.810   6.225  16.573  0.00  0.00    +0.000 NA
ENDBRANCH  17  18
ENDBRANCH   1  17
TORSDOF 8
ENDMDL
MODEL 8
REMARK VINA RESULT:      -6.8      2.960      5.306
REMARK  Name = 
REMARK  9 active torsions:
REMARK  status: ('A' for Active; 'I' for Inactive)
REMARK    1  A    between atoms: C_1  and  C_2
REMARK    2  A    between atoms: C_2  and  C_3
REMARK    3  A    between atoms: C_3  and  C_4
REMARK    4  A    between atoms: C_4  and  C_5
REMARK    5  A    between atoms: C_5  and  O_6
REMARK    6  A    between atoms: C_5  and  C_7
REMARK    7  A    between atoms: C_5  and  C_13
REMARK    8  A    between atoms: C_7  and  N_8
REMARK    9  A    between atoms: C_13  and  C_15
REMARK                            x       y       z     vdW  Elec       q    Type
REMARK                         _______ _______ _______ _____ _____    ______ ____
ROOT
ATOM      1  C   UNL     1       3.488   4.368  18.057  0.00  0.00    +0.000 C 
ENDROOT
BRANCH   1   2
ATOM      2  O   UNL     1       4.065   3.195  18.664  0.00  0.00    +0.000 OA
ATOM      3  H   UNL     1       3.349   2.615  18.978  0.00  0.00    +0.000 HD
ENDBRANCH   1   2
BRANCH   1   4
ATOM      4  C   UNL     1       3.823   5.591  18.955  0.00  0.00    +0.000 C 
ATOM      5  O   UNL     1       4.759   5.566  19.757  0.00  0.00    +0.000 OA
BRANCH   4   6
ATOM      6  C   UNL     1       2.987   6.837  18.899  0.00  0.00    +0.000 A 
ATOM      7  C   UNL     1       2.920   7.670  17.775  0.00  0.00    +0.000 A 
ATOM      8  C   UNL     1       2.129   8.823  17.788  0.00  0.00    +0.000 A 
ATOM      9  C   UNL     1       1.402   9.152  18.928  0.00  0.00    +0.000 A 
ATOM     10 CL   UNL     1       0.457  10.589  18.948  0.00  0.00    +0.000 Cl
ATOM     11  C   UNL     1       1.442   8.328  20.049  0.00  0.00    +0.000 A 
ATOM     12  C   UNL     1       2.226   7.168  20.032  0.00  0.00    +0.000 A 
ENDBRANCH   4   6
ENDBRANCH   1   4
BRANCH   1  13
ATOM     13  C   UNL     1       1.946   4.161  18.019  0.00  0.00    +0.000 C 
BRANCH  13  14
ATOM     14  C   UNL     1       1.507   2.722  18.327  0.00  0.00    +0.000 C 
BRANCH  14  16
ATOM     15  C   UNL     1       0.858   3.898  20.434  0.00  0.00    +0.000 C 
ATOM     16  C   UNL     1       0.882   2.556  19.710  0.00  0.00    +0.000 C 
ENDBRANCH  14  16
ENDBRANCH  13  14
ENDBRANCH   1  13
BRANCH   1  17
ATOM     17  C   UNL     1       4.114   4.564  16.662  0.00  0.00    +0.000 C 
BRANCH  17  18
ATOM     18  N   UNL     1       5.512   4.917  16.651  0.00  0.00    +0.000 N 
ATOM     19  C   UNL     1       6.071   6.090  16.248  0.00  0.00    +0.000 A 
ATOM     20  N   UNL     1       7.360   6.063  16.484  0.00  0.00    +0.000 NA
ATOM     21  C   UNL     1       7.541   4.831  17.046  0.00  0.00    +0.000 A 
ATOM     22  N   UNL     1       6.431   4.107  17.203  0.00  0.00    +0.000 NA
ENDBRANCH  17  18
ENDBRANCH   1  17
TORSDOF 8
ENDMDL
MODEL 9
REMARK VINA RESULT:      -6.7      3.999      6.088
REMARK  Name = 
REMARK  9 active torsions:
REMARK  status: ('A' for Active; 'I' for Inactive)
REMARK    1  A    between atoms: C_1  and  C_2
REMARK    2  A    between atoms: C_2  and  C_3
REMARK    3  A    between atoms: C_3  and  C_4
REMARK    4  A    between atoms: C_4  and  C_5
REMARK    5  A    between atoms: C_5  and  O_6
REMARK    6  A    between atoms: C_5  and  C_7
REMARK    7  A    between atoms: C_5  and  C_13
REMARK    8  A    between atoms: C_7  and  N_8
REMARK    9  A    between atoms: C_13  and  C_15
REMARK                            x       y       z     vdW  Elec       q    Type
REMARK                         _______ _______ _______ _____ _____    ______ ____
ROOT
ATOM      1  C   UNL     1       3.612   5.121  18.690  0.00  0.00    +0.000 C 
ENDROOT
BRANCH   1   2
ATOM      2  O   UNL     1       3.526   5.738  19.990  0.00  0.00    +0.000 OA
ATOM      3  H   UNL     1       3.930   6.622  19.950  0.00  0.00    +0.000 HD
ENDBRANCH   1   2
BRANCH   1   4
ATOM      4  C   UNL     1       5.096   4.744  18.431  0.00  0.00    +0.000 C 
ATOM      5  O   UNL     1       5.859   4.452  19.354  0.00  0.00    +0.000 OA
BRANCH   4   6
ATOM      6  C   UNL     1       5.662   4.762  17.040  0.00  0.00    +0.000 A 
ATOM      7  C   UNL     1       5.178   3.955  16.002  0.00  0.00    +0.000 A 
ATOM      8  C   UNL     1       5.753   4.010  14.729  0.00  0.00    +0.000 A 
ATOM      9  C   UNL     1       6.819   4.872  14.486  0.00  0.00    +0.000 A 
ATOM     10 CL   UNL     1       7.542   4.911  12.927  0.00  0.00    +0.000 Cl
ATOM     11  C   UNL     1       7.302   5.694  15.500  0.00  0.00    +0.000 A 
ATOM     12  C   UNL     1       6.719   5.646  16.772  0.00  0.00    +0.000 A 
ENDBRANCH   4   6
ENDBRANCH   1   4
BRANCH   1  13
ATOM     13  C   UNL     1       3.155   6.178  17.643  0.00  0.00    +0.000 C 
BRANCH  13  14
ATOM     14  C   UNL     1       3.183   7.622  18.168  0.00  0.00    +0.000 C 
BRANCH  14  16
ATOM     15  C   UNL     1       1.416   9.230  18.900  0.00  0.00    +0.000 C 
ATOM     16  C   UNL     1       1.990   8.460  17.716  0.00  0.00    +0.000 C 
ENDBRANCH  14  16
ENDBRANCH  13  14
ENDBRANCH   1  13
BRANCH   1  17
ATOM     17  C   UNL     1       2.747   3.845  18.689  0.00  0.00    +0.000 C 
BRANCH  17  18
ATOM     18  N   UNL     1       2.427   3.307  19.988  0.00  0.00    +0.000 N 
ATOM     19  C   UNL     1       3.236   2.589  20.813  0.00  0.00    +0.000 A 
ATOM     20  N   UNL     1       2.617   2.369  21.947  0.00  0.00    +0.000 NA
ATOM     21  C   UNL     1       1.413   2.987  21.761  0.00  0.00    +0.000 A 
ATOM     22  N   UNL     1       1.265   3.608  20.590  0.00  0.00    +0.000 NA
ENDBRANCH  17  18
ENDBRANCH   1  17
TORSDOF 8
ENDMDL
