MODEL 1
REMARK VINA RESULT:      -8.3      0.000      0.000
REMARK  Name = 
REMARK  5 active torsions:
REMARK  status: ('A' for Active; 'I' for Inactive)
REMARK    1  A    between atoms: C_2  and  C_20
REMARK    2  A    between atoms: N_3  and  C_4
REMARK    3  A    between atoms: C_4  and  C_5
REMARK    4  A    between atoms: C_8  and  S_9
REMARK    5  A    between atoms: S_9  and  N_12
REMARK                            x       y       z     vdW  Elec       q    Type
REMARK                         _______ _______ _______ _____ _____    ______ ____
ROOT
ATOM      1  C   UNL     1       1.884   7.501  19.961  0.00  0.00    +0.000 A 
ATOM      2  C   UNL     1       2.386   7.447  18.653  0.00  0.00    +0.000 A 
ATOM      3  C   UNL     1       2.798   6.231  18.104  0.00  0.00    +0.000 A 
ATOM      4  C   UNL     1       2.727   5.059  18.861  0.00  0.00    +0.000 A 
ATOM      5  C   UNL     1       2.188   5.090  20.153  0.00  0.00    +0.000 A 
ATOM      6  C   UNL     1       1.781   6.313  20.702  0.00  0.00    +0.000 A 
ENDROOT
BRANCH   4   7
ATOM      7  S   UNL     1       3.228   3.518  18.108  0.00  0.00    +0.000 S 
ATOM      8  O   UNL     1       3.321   2.536  19.173  0.00  0.00    +0.000 OA
ATOM      9  O   UNL     1       2.362   3.296  16.970  0.00  0.00    +0.000 OA
BRANCH   7  10
ATOM     10  N   UNL     1       4.815   3.816  17.517  0.00  0.00    +0.000 NA
ATOM     11  C   UNL     1       4.896   4.163  16.077  0.00  0.00    +0.000 C 
ATOM     12  C   UNL     1       6.337   4.255  15.589  0.00  0.00    +0.000 C 
ATOM     13  C   UNL     1       7.162   5.174  16.474  0.00  0.00    +0.000 C 
ATOM     14  C   UNL     1       7.134   4.657  17.902  0.00  0.00    +0.000 C 
ATOM     15  C   UNL     1       5.708   4.559  18.438  0.00  0.00    +0.000 C 
ENDBRANCH   7  10
ENDBRANCH   4   7
BRANCH   1  16
ATOM     16  C   UNL     1       1.454   8.810  20.561  0.00  0.00    +0.000 C 
BRANCH  16  19
ATOM     17  O   UNL     1       1.067  10.813  18.772  0.00  0.00    +0.000 OA
ATOM     18  C   UNL     1       0.056  10.252  19.201  0.00  0.00    +0.000 C 
ATOM     19  N   UNL     1       0.147   9.231  20.124  0.00  0.00    +0.000 N 
ATOM     20  H   UNL     1      -0.687   8.719  20.384  0.00  0.00    +0.000 HD
BRANCH  18  21
ATOM     21  C   UNL     1      -1.267  10.623  18.758  0.00  0.00    +0.000 A 
ATOM     22  C   UNL     1      -1.877  10.354  17.546  0.00  0.00    +0.000 A 
ATOM     23  C   UNL     1      -3.144  10.978  17.567  0.00  0.00    +0.000 A 
ATOM     24  C   UNL     1      -4.211  11.093  16.667  0.00  0.00    +0.000 A 
ATOM     25  C   UNL     1      -5.287  11.858  17.094  0.00  0.00    +0.000 A 
ATOM     26  N   UNL     1      -5.366  12.483  18.293  0.00  0.00    +0.000 NA
ATOM     27  C   UNL     1      -4.334  12.363  19.171  0.00  0.00    +0.000 A 
ATOM     28  C   UNL     1      -3.234  11.606  18.801  0.00  0.00    +0.000 A 
ATOM     29  O   UNL     1      -2.107  11.375  19.543  0.00  0.00    +0.000 OA
ENDBRANCH  18  21
ENDBRANCH  16  19
ENDBRANCH   1  16
TORSDOF 5
ENDMDL
MODEL 2
REMARK VINA RESULT:      -8.3      2.684      3.525
REMARK  Name = 
REMARK  5 active torsions:
REMARK  status: ('A' for Active; 'I' for Inactive)
REMARK    1  A    between atoms: C_2  and  C_20
REMARK    2  A    between atoms: N_3  and  C_4
REMARK    3  A    between atoms: C_4  and  C_5
REMARK    4  A    between atoms: C_8  and  S_9
REMARK    5  A    between atoms: S_9  and  N_12
REMARK                            x       y       z     vdW  Elec       q    Type
REMARK                         _______ _______ _______ _____ _____    ______ ____
ROOT
ATOM      1  C   UNL     1       1.449   9.756  19.125  0.00  0.00    +0.000 A 
ATOM      2  C   UNL     1       2.015   9.238  17.951  0.00  0.00    +0.000 A 
ATOM      3  C   UNL     1       2.468   7.917  17.907  0.00  0.00    +0.000 A 
ATOM      4  C   UNL     1       2.375   7.106  19.041  0.00  0.00    +0.000 A 
ATOM      5  C   UNL     1       1.773   7.595  20.207  0.00  0.00    +0.000 A 
ATOM      6  C   UNL     1       1.324   8.923  20.247  0.00  0.00    +0.000 A 
ENDROOT
BRANCH   4   7
ATOM      7  S   UNL     1       2.931   5.412  18.932  0.00  0.00    +0.000 S 
ATOM      8  O   UNL     1       3.070   4.922  20.291  0.00  0.00    +0.000 OA
ATOM      9  O   UNL     1       2.066   4.737  17.988  0.00  0.00    +0.000 OA
BRANCH   7  10
ATOM     10  N   UNL     1       4.501   5.511  18.237  0.00  0.00    +0.000 NA
ATOM     11  C   UNL     1       5.622   5.260  19.175  0.00  0.00    +0.000 C 
ATOM     12  C   UNL     1       6.978   5.522  18.530  0.00  0.00    +0.000 C 
ATOM     13  C   UNL     1       7.119   4.775  17.215  0.00  0.00    +0.000 C 
ATOM     14  C   UNL     1       6.008   5.204  16.271  0.00  0.00    +0.000 C 
ATOM     15  C   UNL     1       4.628   4.949  16.872  0.00  0.00    +0.000 C 
ENDBRANCH   7  10
ENDBRANCH   4   7
BRANCH   1  16
ATOM     16  C   UNL     1       0.974  11.181  19.179  0.00  0.00    +0.000 C 
BRANCH  16  19
ATOM     17  O   UNL     1       0.805  12.695  21.423  0.00  0.00    +0.000 OA
ATOM     18  C   UNL     1      -0.234  12.145  21.049  0.00  0.00    +0.000 C 
ATOM     19  N   UNL     1      -0.247  11.343  19.926  0.00  0.00    +0.000 N 
ATOM     20  H   UNL     1      -1.129  10.984  19.581  0.00  0.00    +0.000 HD
BRANCH  18  21
ATOM     21  C   UNL     1      -1.483  12.314  21.752  0.00  0.00    +0.000 A 
ATOM     22  C   UNL     1      -1.718  12.263  23.113  0.00  0.00    +0.000 A 
ATOM     23  C   UNL     1      -3.108  12.427  23.306  0.00  0.00    +0.000 A 
ATOM     24  C   UNL     1      -3.963  12.455  24.415  0.00  0.00    +0.000 A 
ATOM     25  C   UNL     1      -5.314  12.605  24.137  0.00  0.00    +0.000 A 
ATOM     26  N   UNL     1      -5.842  12.722  22.895  0.00  0.00    +0.000 NA
ATOM     27  C   UNL     1      -5.011  12.705  21.818  0.00  0.00    +0.000 A 
ATOM     28  C   UNL     1      -3.650  12.563  22.034  0.00  0.00    +0.000 A 
ATOM     29  O   UNL     1      -2.666  12.520  21.084  0.00  0.00    +0.000 OA
ENDBRANCH  18  21
ENDBRANCH  16  19
ENDBRANCH   1  16
TORSDOF 5
ENDMDL
MODEL 3
REMARK VINA RESULT:      -8.3      3.225     10.341
REMARK  Name = 
REMARK  5 active torsions:
REMARK  status: ('A' for Active; 'I' for Inactive)
REMARK    1  A    between atoms: C_2  and  C_20
REMARK    2  A    between atoms: N_3  and  C_4
REMARK    3  A    between atoms: C_4  and  C_5
REMARK    4  A    between atoms: C_8  and  S_9
REMARK    5  A    between atoms: S_9  and  N_12
REMARK                            x       y       z     vdW  Elec       q    Type
REMARK                         _______ _______ _______ _____ _____    ______ ____
ROOT
ATOM      1  C   UNL     1       0.962   8.399  21.080  0.00  0.00    +0.000 A 
ATOM      2  C   UNL     1       0.974   9.216  19.941  0.00  0.00    +0.000 A 
ATOM      3  C   UNL     1       0.476  10.519  20.000  0.00  0.00    +0.000 A 
ATOM      4  C   UNL     1      -0.055  11.013  21.194  0.00  0.00    +0.000 A 
ATOM      5  C   UNL     1      -0.035  10.224  22.351  0.00  0.00    +0.000 A 
ATOM      6  C   UNL     1       0.462   8.916  22.285  0.00  0.00    +0.000 A 
ENDROOT
BRANCH   4   7
ATOM      7  S   UNL     1      -0.648  12.698  21.238  0.00  0.00    +0.000 S 
ATOM      8  O   UNL     1       0.137  13.399  22.238  0.00  0.00    +0.000 OA
ATOM      9  O   UNL     1      -0.697  13.171  19.871  0.00  0.00    +0.000 OA
BRANCH   7  10
ATOM     10  N   UNL     1      -2.263  12.577  21.816  0.00  0.00    +0.000 NA
ATOM     11  C   UNL     1      -2.447  12.916  23.249  0.00  0.00    +0.000 C 
ATOM     12  C   UNL     1      -3.866  12.632  23.727  0.00  0.00    +0.000 C 
ATOM     13  C   UNL     1      -4.896  13.285  22.821  0.00  0.00    +0.000 C 
ATOM     14  C   UNL     1      -4.718  12.768  21.403  0.00  0.00    +0.000 C 
ATOM     15  C   UNL     1      -3.311  13.041  20.877  0.00  0.00    +0.000 C 
ENDBRANCH   7  10
ENDBRANCH   4   7
BRANCH   1  16
ATOM     16  C   UNL     1       1.484   6.990  21.016  0.00  0.00    +0.000 C 
BRANCH  16  19
ATOM     17  O   UNL     1       2.656   4.596  20.514  0.00  0.00    +0.000 OA
ATOM     18  C   UNL     1       3.029   5.549  19.825  0.00  0.00    +0.000 C 
ATOM     19  N   UNL     1       2.503   6.810  20.013  0.00  0.00    +0.000 N 
ATOM     20  H   UNL     1       2.749   7.553  19.370  0.00  0.00    +0.000 HD
BRANCH  18  21
ATOM     21  C   UNL     1       4.021   5.396  18.788  0.00  0.00    +0.000 A 
ATOM     22  C   UNL     1       3.844   5.415  17.417  0.00  0.00    +0.000 A 
ATOM     23  C   UNL     1       5.102   5.162  16.827  0.00  0.00    +0.000 A 
ATOM     24  C   UNL     1       5.581   5.039  15.517  0.00  0.00    +0.000 A 
ATOM     25  C   UNL     1       6.929   4.737  15.387  0.00  0.00    +0.000 A 
ATOM     26  N   UNL     1       7.786   4.558  16.421  0.00  0.00    +0.000 NA
ATOM     27  C   UNL     1       7.324   4.688  17.694  0.00  0.00    +0.000 A 
ATOM     28  C   UNL     1       5.986   4.994  17.885  0.00  0.00    +0.000 A 
ATOM     29  O   UNL     1       5.343   5.160  19.081  0.00  0.00    +0.000 OA
ENDBRANCH  18  21
ENDBRANCH  16  19
ENDBRANCH   1  16
TORSDOF 5
ENDMDL
MODEL 4
REMARK VINA RESULT:      -8.2      2.622      9.961
REMARK  Name = 
REMARK  5 active torsions:
REMARK  status: ('A' for Active; 'I' for Inactive)
REMARK    1  A    between atoms: C_2  and  C_20
REMARK    2  A    between atoms: N_3  and  C_4
REMARK    3  A    between atoms: C_4  and  C_5
REMARK    4  A    between atoms: C_8  and  S_9
REMARK    5  A    between atoms: S_9  and  N_12
REMARK                            x       y       z     vdW  Elec       q    Type
REMARK                         _______ _______ _______ _____ _____    ______ ____
ROOT
ATOM      1  C   UNL     1       0.896   8.572  20.704  0.00  0.00    +0.000 A 
ATOM      2  C   UNL     1       1.021   9.233  19.473  0.00  0.00    +0.000 A 
ATOM      3  C   UNL     1       0.277  10.386  19.213  0.00  0.00    +0.000 A 
ATOM      4  C   UNL     1      -0.608  10.882  20.172  0.00  0.00    +0.000 A 
ATOM      5  C   UNL     1      -0.712  10.258  21.422  0.00  0.00    +0.000 A 
ATOM      6  C   UNL     1       0.033   9.098  21.677  0.00  0.00    +0.000 A 
ENDROOT
BRANCH   4   7
ATOM      7  S   UNL     1      -1.512  12.381  19.815  0.00  0.00    +0.000 S 
ATOM      8  O   UNL     1      -1.852  12.987  21.089  0.00  0.00    +0.000 OA
ATOM      9  O   UNL     1      -0.751  13.114  18.826  0.00  0.00    +0.000 OA
BRANCH   7  10
ATOM     10  N   UNL     1      -2.969  11.847  19.072  0.00  0.00    +0.000 NA
ATOM     11  C   UNL     1      -4.203  12.512  19.556  0.00  0.00    +0.000 C 
ATOM     12  C   UNL     1      -5.461  11.878  18.974  0.00  0.00    +0.000 C 
ATOM     13  C   UNL     1      -5.384  11.786  17.459  0.00  0.00    +0.000 C 
ATOM     14  C   UNL     1      -4.166  10.967  17.066  0.00  0.00    +0.000 C 
ATOM     15  C   UNL     1      -2.878  11.572  17.619  0.00  0.00    +0.000 C 
ENDBRANCH   7  10
ENDBRANCH   4   7
BRANCH   1  16
ATOM     16  C   UNL     1       1.683   7.322  20.982  0.00  0.00    +0.000 C 
BRANCH  16  19
ATOM     17  O   UNL     1       2.660   4.831  20.534  0.00  0.00    +0.000 OA
ATOM     18  C   UNL     1       3.091   5.732  19.810  0.00  0.00    +0.000 C 
ATOM     19  N   UNL     1       2.667   7.034  19.969  0.00  0.00    +0.000 N 
ATOM     20  H   UNL     1       2.956   7.738  19.300  0.00  0.00    +0.000 HD
BRANCH  18  21
ATOM     21  C   UNL     1       4.049   5.474  18.761  0.00  0.00    +0.000 A 
ATOM     22  C   UNL     1       3.818   5.285  17.412  0.00  0.00    +0.000 A 
ATOM     23  C   UNL     1       5.065   5.005  16.808  0.00  0.00    +0.000 A 
ATOM     24  C   UNL     1       5.498   4.713  15.508  0.00  0.00    +0.000 A 
ATOM     25  C   UNL     1       6.853   4.455  15.363  0.00  0.00    +0.000 A 
ATOM     26  N   UNL     1       7.757   4.467  16.371  0.00  0.00    +0.000 NA
ATOM     27  C   UNL     1       7.339   4.760  17.632  0.00  0.00    +0.000 A 
ATOM     28  C   UNL     1       5.996   5.032  17.838  0.00  0.00    +0.000 A 
ATOM     29  O   UNL     1       5.391   5.341  19.026  0.00  0.00    +0.000 OA
ENDBRANCH  18  21
ENDBRANCH  16  19
ENDBRANCH   1  16
TORSDOF 5
ENDMDL
MODEL 5
REMARK VINA RESULT:      -8.2      0.689      1.455
REMARK  Name = 
REMARK  5 active torsions:
REMARK  status: ('A' for Active; 'I' for Inactive)
REMARK    1  A    between atoms: C_2  and  C_20
REMARK    2  A    between atoms: N_3  and  C_4
REMARK    3  A    between atoms: C_4  and  C_5
REMARK    4  A    between atoms: C_8  and  S_9
REMARK    5  A    between atoms: S_9  and  N_12
REMARK                            x       y       z     vdW  Elec       q    Type
REMARK                         _______ _______ _______ _____ _____    ______ ____
ROOT
ATOM      1  C   UNL     1       1.965   7.444  20.012  0.00  0.00    +0.000 A 
ATOM      2  C   UNL     1       1.843   6.225  20.694  0.00  0.00    +0.000 A 
ATOM      3  C   UNL     1       2.212   5.029  20.075  0.00  0.00    +0.000 A 
ATOM      4  C   UNL     1       2.692   5.037  18.763  0.00  0.00    +0.000 A 
ATOM      5  C   UNL     1       2.860   6.250  18.084  0.00  0.00    +0.000 A 
ATOM      6  C   UNL     1       2.483   7.447  18.708  0.00  0.00    +0.000 A 
ENDROOT
BRANCH   4   7
ATOM      7  S   UNL     1       3.189   3.489  18.021  0.00  0.00    +0.000 S 
ATOM      8  O   UNL     1       3.272   2.512  19.090  0.00  0.00    +0.000 OA
ATOM      9  O   UNL     1       2.329   3.266  16.879  0.00  0.00    +0.000 OA
BRANCH   7  10
ATOM     10  N   UNL     1       4.781   3.778  17.437  0.00  0.00    +0.000 NA
ATOM     11  C   UNL     1       4.871   4.125  15.997  0.00  0.00    +0.000 C 
ATOM     12  C   UNL     1       6.315   4.208  15.516  0.00  0.00    +0.000 C 
ATOM     13  C   UNL     1       7.142   5.120  16.405  0.00  0.00    +0.000 C 
ATOM     14  C   UNL     1       7.104   4.601  17.833  0.00  0.00    +0.000 C 
ATOM     15  C   UNL     1       5.675   4.513  18.362  0.00  0.00    +0.000 C 
ENDBRANCH   7  10
ENDBRANCH   4   7
BRANCH   1  16
ATOM     16  C   UNL     1       1.555   8.732  20.670  0.00  0.00    +0.000 C 
BRANCH  16  19
ATOM     17  O   UNL     1       1.320  10.835  18.973  0.00  0.00    +0.000 OA
ATOM     18  C   UNL     1       0.271  10.294  19.331  0.00  0.00    +0.000 C 
ATOM     19  N   UNL     1       0.284   9.226  20.204  0.00  0.00    +0.000 N 
ATOM     20  H   UNL     1      -0.579   8.736  20.404  0.00  0.00    +0.000 HD
BRANCH  18  21
ATOM     21  C   UNL     1      -1.017  10.740  18.855  0.00  0.00    +0.000 A 
ATOM     22  C   UNL     1      -1.980  11.466  19.531  0.00  0.00    +0.000 A 
ATOM     23  C   UNL     1      -3.088  11.602  18.664  0.00  0.00    +0.000 A 
ATOM     24  C   UNL     1      -4.353  12.197  18.751  0.00  0.00    +0.000 A 
ATOM     25  C   UNL     1      -5.171  12.053  17.640  0.00  0.00    +0.000 A 
ATOM     26  N   UNL     1      -4.832  11.390  16.509  0.00  0.00    +0.000 NA
ATOM     27  C   UNL     1      -3.600  10.820  16.420  0.00  0.00    +0.000 A 
ATOM     28  C   UNL     1      -2.737  10.936  17.498  0.00  0.00    +0.000 A 
ATOM     29  O   UNL     1      -1.469  10.430  17.595  0.00  0.00    +0.000 OA
ENDBRANCH  18  21
ENDBRANCH  16  19
ENDBRANCH   1  16
TORSDOF 5
ENDMDL
MODEL 6
REMARK VINA RESULT:      -8.1      3.456     10.307
REMARK  Name = 
REMARK  5 active torsions:
REMARK  status: ('A' for Active; 'I' for Inactive)
REMARK    1  A    between atoms: C_2  and  C_20
REMARK    2  A    between atoms: N_3  and  C_4
REMARK    3  A    between atoms: C_4  and  C_5
REMARK    4  A    between atoms: C_8  and  S_9
REMARK    5  A    between atoms: S_9  and  N_12
REMARK                            x       y       z     vdW  Elec       q    Type
REMARK                         _______ _______ _______ _____ _____    ______ ____
ROOT
ATOM      1  C   UNL     1       0.919   8.482  20.939  0.00  0.00    +0.000 A 
ATOM      2  C   UNL     1       1.039   9.235  19.762  0.00  0.00    +0.000 A 
ATOM      3  C   UNL     1       0.427  10.486  19.658  0.00  0.00    +0.000 A 
ATOM      4  C   UNL     1      -0.324  10.990  20.723  0.00  0.00    +0.000 A 
ATOM      5  C   UNL     1      -0.417  10.270  21.921  0.00  0.00    +0.000 A 
ATOM      6  C   UNL     1       0.195   9.013  22.018  0.00  0.00    +0.000 A 
ENDROOT
BRANCH   4   7
ATOM      7  S   UNL     1      -1.058  12.612  20.565  0.00  0.00    +0.000 S 
ATOM      8  O   UNL     1       0.017  13.538  20.261  0.00  0.00    +0.000 OA
ATOM      9  O   UNL     1      -2.196  12.482  19.680  0.00  0.00    +0.000 OA
BRANCH   7  10
ATOM     10  N   UNL     1      -1.650  12.978  22.138  0.00  0.00    +0.000 NA
ATOM     11  C   UNL     1      -1.124  14.231  22.732  0.00  0.00    +0.000 C 
ATOM     12  C   UNL     1      -1.564  14.407  24.181  0.00  0.00    +0.000 C 
ATOM     13  C   UNL     1      -3.070  14.262  24.323  0.00  0.00    +0.000 C 
ATOM     14  C   UNL     1      -3.494  12.893  23.818  0.00  0.00    +0.000 C 
ATOM     15  C   UNL     1      -3.083  12.677  22.364  0.00  0.00    +0.000 C 
ENDBRANCH   7  10
ENDBRANCH   4   7
BRANCH   1  16
ATOM     16  C   UNL     1       1.564   7.129  21.049  0.00  0.00    +0.000 C 
BRANCH  16  19
ATOM     17  O   UNL     1       2.558   4.669  20.488  0.00  0.00    +0.000 OA
ATOM     18  C   UNL     1       3.006   5.609  19.827  0.00  0.00    +0.000 C 
ATOM     19  N   UNL     1       2.574   6.900  20.047  0.00  0.00    +0.000 N 
ATOM     20  H   UNL     1       2.879   7.640  19.427  0.00  0.00    +0.000 HD
BRANCH  18  21
ATOM     21  C   UNL     1       3.992   5.412  18.791  0.00  0.00    +0.000 A 
ATOM     22  C   UNL     1       3.800   5.322  17.425  0.00  0.00    +0.000 A 
ATOM     23  C   UNL     1       5.061   5.067  16.840  0.00  0.00    +0.000 A 
ATOM     24  C   UNL     1       5.529   4.861  15.537  0.00  0.00    +0.000 A 
ATOM     25  C   UNL     1       6.885   4.594  15.413  0.00  0.00    +0.000 A 
ATOM     26  N   UNL     1       7.758   4.521  16.446  0.00  0.00    +0.000 NA
ATOM     27  C   UNL     1       7.305   4.731  17.711  0.00  0.00    +0.000 A 
ATOM     28  C   UNL     1       5.960   5.007  17.896  0.00  0.00    +0.000 A 
ATOM     29  O   UNL     1       5.324   5.241  19.085  0.00  0.00    +0.000 OA
ENDBRANCH  18  21
ENDBRANCH  16  19
ENDBRANCH   1  16
TORSDOF 5
ENDMDL
MODEL 7
REMARK VINA RESULT:      -8.1      0.536      1.084
REMARK  Name = 
REMARK  5 active torsions:
REMARK  status: ('A' for Active; 'I' for Inactive)
REMARK    1  A    between atoms: C_2  and  C_20
REMARK    2  A    between atoms: N_3  and  C_4
REMARK    3  A    between atoms: C_4  and  C_5
REMARK    4  A    between atoms: C_8  and  S_9
REMARK    5  A    between atoms: S_9  and  N_12
REMARK                            x       y       z     vdW  Elec       q    Type
REMARK                         _______ _______ _______ _____ _____    ______ ____
ROOT
ATOM      1  C   UNL     1       1.724   7.819  20.121  0.00  0.00    +0.000 A 
ATOM      2  C   UNL     1       2.205   7.877  18.805  0.00  0.00    +0.000 A 
ATOM      3  C   UNL     1       2.704   6.730  18.184  0.00  0.00    +0.000 A 
ATOM      4  C   UNL     1       2.741   5.517  18.877  0.00  0.00    +0.000 A 
ATOM      5  C   UNL     1       2.224   5.434  20.176  0.00  0.00    +0.000 A 
ATOM      6  C   UNL     1       1.729   6.589  20.796  0.00  0.00    +0.000 A 
ENDROOT
BRANCH   4   7
ATOM      7  S   UNL     1       3.351   4.065  18.033  0.00  0.00    +0.000 S 
ATOM      8  O   UNL     1       3.869   3.169  19.051  0.00  0.00    +0.000 OA
ATOM      9  O   UNL     1       2.314   3.631  17.123  0.00  0.00    +0.000 OA
BRANCH   7  10
ATOM     10  N   UNL     1       4.678   4.630  17.095  0.00  0.00    +0.000 NA
ATOM     11  C   UNL     1       5.932   4.861  17.852  0.00  0.00    +0.000 C 
ATOM     12  C   UNL     1       7.010   5.510  16.991  0.00  0.00    +0.000 C 
ATOM     13  C   UNL     1       7.223   4.741  15.699  0.00  0.00    +0.000 C 
ATOM     14  C   UNL     1       5.915   4.680  14.928  0.00  0.00    +0.000 C 
ATOM     15  C   UNL     1       4.807   4.026  15.748  0.00  0.00    +0.000 C 
ENDBRANCH   7  10
ENDBRANCH   4   7
BRANCH   1  16
ATOM     16  C   UNL     1       1.200   9.055  20.797  0.00  0.00    +0.000 C 
BRANCH  16  19
ATOM     17  O   UNL     1       0.836  11.098  19.050  0.00  0.00    +0.000 OA
ATOM     18  C   UNL     1      -0.178  10.500  19.420  0.00  0.00    +0.000 C 
ATOM     19  N   UNL     1      -0.098   9.456  20.318  0.00  0.00    +0.000 N 
ATOM     20  H   UNL     1      -0.929   8.916  20.528  0.00  0.00    +0.000 HD
BRANCH  18  21
ATOM     21  C   UNL     1      -1.491  10.852  18.932  0.00  0.00    +0.000 A 
ATOM     22  C   UNL     1      -2.042  10.604  17.689  0.00  0.00    +0.000 A 
ATOM     23  C   UNL     1      -3.325  11.195  17.674  0.00  0.00    +0.000 A 
ATOM     24  C   UNL     1      -4.356  11.311  16.733  0.00  0.00    +0.000 A 
ATOM     25  C   UNL     1      -5.469  12.036  17.136  0.00  0.00    +0.000 A 
ATOM     26  N   UNL     1      -5.614  12.622  18.349  0.00  0.00    +0.000 NA
ATOM     27  C   UNL     1      -4.617  12.501  19.266  0.00  0.00    +0.000 A 
ATOM     28  C   UNL     1      -3.482  11.784  18.921  0.00  0.00    +0.000 A 
ATOM     29  O   UNL     1      -2.382  11.559  19.703  0.00  0.00    +0.000 OA
ENDBRANCH  18  21
ENDBRANCH  16  19
ENDBRANCH   1  16
TORSDOF 5
ENDMDL
MODEL 8
REMARK VINA RESULT:      -8.1      1.559      2.436
REMARK  Name = 
REMARK  5 active torsions:
REMARK  status: ('A' for Active; 'I' for Inactive)
REMARK    1  A    between atoms: C_2  and  C_20
REMARK    2  A    between atoms: N_3  and  C_4
REMARK    3  A    between atoms: C_4  and  C_5
REMARK    4  A    between atoms: C_8  and  S_9
REMARK    5  A    between atoms: S_9  and  N_12
REMARK                            x       y       z     vdW  Elec       q    Type
REMARK                         _______ _______ _______ _____ _____    ______ ____
ROOT
ATOM      1  C   UNL     1       1.379   9.567  19.061  0.00  0.00    +0.000 A 
ATOM      2  C   UNL     1       1.332   8.720  20.177  0.00  0.00    +0.000 A 
ATOM      3  C   UNL     1       1.863   7.430  20.107  0.00  0.00    +0.000 A 
ATOM      4  C   UNL     1       2.432   6.969  18.917  0.00  0.00    +0.000 A 
ATOM      5  C   UNL     1       2.525   7.819  17.807  0.00  0.00    +0.000 A 
ATOM      6  C   UNL     1       1.986   9.110  17.882  0.00  0.00    +0.000 A 
ENDROOT
BRANCH   4   7
ATOM      7  S   UNL     1       3.134   5.326  18.880  0.00  0.00    +0.000 S 
ATOM      8  O   UNL     1       3.257   4.886  20.257  0.00  0.00    +0.000 OA
ATOM      9  O   UNL     1       2.372   4.556  17.921  0.00  0.00    +0.000 OA
BRANCH   7  10
ATOM     10  N   UNL     1       4.719   5.544  18.246  0.00  0.00    +0.000 NA
ATOM     11  C   UNL     1       5.821   5.304  19.209  0.00  0.00    +0.000 C 
ATOM     12  C   UNL     1       7.181   5.670  18.626  0.00  0.00    +0.000 C 
ATOM     13  C   UNL     1       7.404   5.000  17.281  0.00  0.00    +0.000 C 
ATOM     14  C   UNL     1       6.303   5.418  16.321  0.00  0.00    +0.000 C 
ATOM     15  C   UNL     1       4.920   5.061  16.860  0.00  0.00    +0.000 C 
ENDBRANCH   7  10
ENDBRANCH   4   7
BRANCH   1  16
ATOM     16  C   UNL     1       0.795  10.951  19.129  0.00  0.00    +0.000 C 
BRANCH  16  19
ATOM     17  O   UNL     1      -0.800  12.821  17.981  0.00  0.00    +0.000 OA
ATOM     18  C   UNL     1      -1.364  11.942  18.636  0.00  0.00    +0.000 C 
ATOM     19  N   UNL     1      -0.639  10.954  19.270  0.00  0.00    +0.000 N 
ATOM     20  H   UNL     1      -1.128  10.187  19.717  0.00  0.00    +0.000 HD
BRANCH  18  21
ATOM     21  C   UNL     1      -2.801  11.893  18.769  0.00  0.00    +0.000 A 
ATOM     22  C   UNL     1      -3.732  11.405  17.872  0.00  0.00    +0.000 A 
ATOM     23  C   UNL     1      -5.011  11.635  18.428  0.00  0.00    +0.000 A 
ATOM     24  C   UNL     1      -6.330  11.395  18.023  0.00  0.00    +0.000 A 
ATOM     25  C   UNL     1      -7.321  11.834  18.889  0.00  0.00    +0.000 A 
ATOM     26  N   UNL     1      -7.098  12.461  20.069  0.00  0.00    +0.000 NA
ATOM     27  C   UNL     1      -5.816  12.685  20.467  0.00  0.00    +0.000 A 
ATOM     28  C   UNL     1      -4.784  12.265  19.645  0.00  0.00    +0.000 A 
ATOM     29  O   UNL     1      -3.442  12.404  19.872  0.00  0.00    +0.000 OA
ENDBRANCH  18  21
ENDBRANCH  16  19
ENDBRANCH   1  16
TORSDOF 5
ENDMDL
MODEL 9
REMARK VINA RESULT:      -8.1      1.300      1.905
REMARK  Name = 
REMARK  5 active torsions:
REMARK  status: ('A' for Active; 'I' for Inactive)
REMARK    1  A    between atoms: C_2  and  C_20
REMARK    2  A    between atoms: N_3  and  C_4
REMARK    3  A    between atoms: C_4  and  C_5
REMARK    4  A    between atoms: C_8  and  S_9
REMARK    5  A    between atoms: S_9  and  N_12
REMARK                            x       y       z     vdW  Elec       q    Type
REMARK                         _______ _______ _______ _____ _____    ______ ____
ROOT
ATOM      1  C   UNL     1       1.473   9.102  19.411  0.00  0.00    +0.000 A 
ATOM      2  C   UNL     1       2.007   8.711  18.175  0.00  0.00    +0.000 A 
ATOM      3  C   UNL     1       2.525   7.425  18.005  0.00  0.00    +0.000 A 
ATOM      4  C   UNL     1       2.530   6.524  19.072  0.00  0.00    +0.000 A 
ATOM      5  C   UNL     1       1.961   6.886  20.300  0.00  0.00    +0.000 A 
ATOM      6  C   UNL     1       1.447   8.179  20.467  0.00  0.00    +0.000 A 
ENDROOT
BRANCH   4   7
ATOM      7  S   UNL     1       3.167   4.876  18.803  0.00  0.00    +0.000 S 
ATOM      8  O   UNL     1       3.261   4.239  20.103  0.00  0.00    +0.000 OA
ATOM      9  O   UNL     1       2.382   4.281  17.742  0.00  0.00    +0.000 OA
BRANCH   7  10
ATOM     10  N   UNL     1       4.763   5.117  18.209  0.00  0.00    +0.000 NA
ATOM     11  C   UNL     1       5.814   5.215  19.251  0.00  0.00    +0.000 C 
ATOM     12  C   UNL     1       7.171   5.588  18.664  0.00  0.00    +0.000 C 
ATOM     13  C   UNL     1       7.548   4.666  17.517  0.00  0.00    +0.000 C 
ATOM     14  C   UNL     1       6.481   4.742  16.438  0.00  0.00    +0.000 C 
ATOM     15  C   UNL     1       5.105   4.365  16.979  0.00  0.00    +0.000 C 
ENDBRANCH   7  10
ENDBRANCH   4   7
BRANCH   1  16
ATOM     16  C   UNL     1       0.928  10.490  19.602  0.00  0.00    +0.000 C 
BRANCH  16  19
ATOM     17  O   UNL     1      -0.400  12.765  18.955  0.00  0.00    +0.000 OA
ATOM     18  C   UNL     1      -1.087  11.758  19.140  0.00  0.00    +0.000 C 
ATOM     19  N   UNL     1      -0.507  10.556  19.487  0.00  0.00    +0.000 N 
ATOM     20  H   UNL     1      -1.079   9.722  19.534  0.00  0.00    +0.000 HD
BRANCH  18  21
ATOM     21  C   UNL     1      -2.524  11.779  18.998  0.00  0.00    +0.000 A 
ATOM     22  C   UNL     1      -3.296  11.262  17.975  0.00  0.00    +0.000 A 
ATOM     23  C   UNL     1      -4.641  11.587  18.258  0.00  0.00    +0.000 A 
ATOM     24  C   UNL     1      -5.871  11.371  17.625  0.00  0.00    +0.000 A 
ATOM     25  C   UNL     1      -6.983  11.915  18.253  0.00  0.00    +0.000 A 
ATOM     26  N   UNL     1      -6.951  12.623  19.407  0.00  0.00    +0.000 NA
ATOM     27  C   UNL     1      -5.757  12.824  20.028  0.00  0.00    +0.000 A 
ATOM     28  C   UNL     1      -4.613  12.299  19.450  0.00  0.00    +0.000 A 
ATOM     29  O   UNL     1      -3.332  12.400  19.920  0.00  0.00    +0.000 OA
ENDBRANCH  18  21
ENDBRANCH  16  19
ENDBRANCH   1  16
TORSDOF 5
ENDMDL
