MODEL 1
REMARK VINA RESULT:      -6.3      0.000      0.000
REMARK  Name = 
REMARK  11 active torsions:
REMARK  status: ('A' for Active; 'I' for Inactive)
REMARK    1  A    between atoms: C_1  and  C_2
REMARK    2  A    between atoms: C_2  and  N_3
REMARK    3  A    between atoms: N_3  and  C_4
REMARK    4  A    between atoms: N_3  and  C_6
REMARK    5  A    between atoms: C_4  and  C_5
REMARK    6  A    between atoms: C_6  and  C_7
REMARK    7  A    between atoms: C_7  and  S_8
REMARK    8  A    between atoms: S_8  and  C_9
REMARK    9  A    between atoms: C_9  and  C_12
REMARK   10  A    between atoms: N_10  and  O_11
REMARK   11  A    between atoms: C_12  and  C_14
REMARK                            x       y       z     vdW  Elec       q    Type
REMARK                         _______ _______ _______ _____ _____    ______ ____
ROOT
ATOM      1  C   UNL     1       6.874   5.571  18.482  0.00  0.00    +0.000 C 
ATOM      2  N   UNL     1       7.859   5.937  19.227  0.00  0.00    +0.000 NA
ENDROOT
BRANCH   2   3
ATOM      3  O   UNL     1       8.053   5.447  20.434  0.00  0.00    +0.000 OA
ATOM      4  H   UNL     1       7.871   4.512  20.599  0.00  0.00    +0.000 HD
ENDBRANCH   2   3
BRANCH   1   5
ATOM      5  C   UNL     1       6.703   6.214  17.151  0.00  0.00    +0.000 C 
ATOM      6  O   UNL     1       6.763   7.433  17.079  0.00  0.00    +0.000 OA
BRANCH   5   7
ATOM      7  C   UNL     1       6.478   5.421  15.910  0.00  0.00    +0.000 A 
ATOM      8  C   UNL     1       5.246   4.776  15.669  0.00  0.00    +0.000 A 
ATOM      9  C   UNL     1       5.039   4.052  14.494  0.00  0.00    +0.000 A 
ATOM     10  C   UNL     1       6.061   3.945  13.548  0.00  0.00    +0.000 A 
ATOM     11 CL   UNL     1       5.801   3.019  12.081  0.00  0.00    +0.000 Cl
ATOM     12  C   UNL     1       7.285   4.583  13.770  0.00  0.00    +0.000 A 
ATOM     13  C   UNL     1       7.489   5.327  14.937  0.00  0.00    +0.000 A 
ENDBRANCH   5   7
ENDBRANCH   1   5
BRANCH   1  14
ATOM     14  S   UNL     1       5.667   4.336  19.026  0.00  0.00    +0.000 S 
BRANCH  14  15
ATOM     15  C   UNL     1       4.270   5.453  19.396  0.00  0.00    +0.000 C 
BRANCH  15  16
ATOM     16  C   UNL     1       3.003   5.136  18.589  0.00  0.00    +0.000 C 
BRANCH  16  17
ATOM     17  N   UNL     1       2.083   4.175  19.251  0.00  0.00    +0.000 NA
BRANCH  17  19
ATOM     18  C   UNL     1       2.387   2.249  17.647  0.00  0.00    +0.000 C 
ATOM     19  C   UNL     1       2.516   2.766  19.085  0.00  0.00    +0.000 C 
ENDBRANCH  17  19
BRANCH  17  20
ATOM     20  C   UNL     1       1.826   4.583  20.658  0.00  0.00    +0.000 C 
ATOM     21  C   UNL     1       2.040   3.467  21.691  0.00  0.00    +0.000 C 
ENDBRANCH  17  20
ENDBRANCH  16  17
ENDBRANCH  15  16
ENDBRANCH  14  15
ENDBRANCH   1  14
TORSDOF 9
ENDMDL
MODEL 2
REMARK VINA RESULT:      -6.2      4.091      6.673
REMARK  Name = 
REMARK  11 active torsions:
REMARK  status: ('A' for Active; 'I' for Inactive)
REMARK    1  A    between atoms: C_1  and  C_2
REMARK    2  A    between atoms: C_2  and  N_3
REMARK    3  A    between atoms: N_3  and  C_4
REMARK    4  A    between atoms: N_3  and  C_6
REMARK    5  A    between atoms: C_4  and  C_5
REMARK    6  A    between atoms: C_6  and  C_7
REMARK    7  A    between atoms: C_7  and  S_8
REMARK    8  A    between atoms: S_8  and  C_9
REMARK    9  A    between atoms: C_9  and  C_12
REMARK   10  A    between atoms: N_10  and  O_11
REMARK   11  A    between atoms: C_12  and  C_14
REMARK                            x       y       z     vdW  Elec       q    Type
REMARK                         _______ _______ _______ _____ _____    ______ ____
ROOT
ATOM      1  C   UNL     1       2.317   4.366  19.541  0.00  0.00    +0.000 C 
ATOM      2  N   UNL     1       1.211   4.275  20.194  0.00  0.00    +0.000 NA
ENDROOT
BRANCH   2   3
ATOM      3  O   UNL     1       0.465   3.191  20.174  0.00  0.00    +0.000 OA
ATOM      4  H   UNL     1       0.024   2.934  19.353  0.00  0.00    +0.000 HD
ENDBRANCH   2   3
BRANCH   1   5
ATOM      5  C   UNL     1       3.072   5.648  19.580  0.00  0.00    +0.000 C 
ATOM      6  O   UNL     1       4.278   5.609  19.778  0.00  0.00    +0.000 OA
BRANCH   5   7
ATOM      7  C   UNL     1       2.410   6.966  19.371  0.00  0.00    +0.000 A 
ATOM      8  C   UNL     1       1.799   7.653  20.441  0.00  0.00    +0.000 A 
ATOM      9  C   UNL     1       1.198   8.897  20.238  0.00  0.00    +0.000 A 
ATOM     10  C   UNL     1       1.183   9.467  18.963  0.00  0.00    +0.000 A 
ATOM     11 CL   UNL     1       0.411  11.022  18.710  0.00  0.00    +0.000 Cl
ATOM     12  C   UNL     1       1.789   8.800  17.895  0.00  0.00    +0.000 A 
ATOM     13  C   UNL     1       2.410   7.564  18.098  0.00  0.00    +0.000 A 
ENDBRANCH   5   7
ENDBRANCH   1   5
BRANCH   1  14
ATOM     14  S   UNL     1       2.955   2.998  18.540  0.00  0.00    +0.000 S 
BRANCH  14  15
ATOM     15  C   UNL     1       3.354   3.926  17.018  0.00  0.00    +0.000 C 
BRANCH  15  16
ATOM     16  C   UNL     1       4.857   3.970  16.706  0.00  0.00    +0.000 C 
BRANCH  16  17
ATOM     17  N   UNL     1       5.254   5.052  15.768  0.00  0.00    +0.000 NA
BRANCH  17  19
ATOM     18  C   UNL     1       6.675   6.529  17.244  0.00  0.00    +0.000 C 
ATOM     19  C   UNL     1       5.378   6.369  16.440  0.00  0.00    +0.000 C 
ENDBRANCH  17  19
BRANCH  17  20
ATOM     20  C   UNL     1       6.446   4.645  14.977  0.00  0.00    +0.000 C 
ATOM     21  C   UNL     1       6.119   3.858  13.698  0.00  0.00    +0.000 C 
ENDBRANCH  17  20
ENDBRANCH  16  17
ENDBRANCH  15  16
ENDBRANCH  14  15
ENDBRANCH   1  14
TORSDOF 9
ENDMDL
MODEL 3
REMARK VINA RESULT:      -6.1      3.659      4.981
REMARK  Name = 
REMARK  11 active torsions:
REMARK  status: ('A' for Active; 'I' for Inactive)
REMARK    1  A    between atoms: C_1  and  C_2
REMARK    2  A    between atoms: C_2  and  N_3
REMARK    3  A    between atoms: N_3  and  C_4
REMARK    4  A    between atoms: N_3  and  C_6
REMARK    5  A    between atoms: C_4  and  C_5
REMARK    6  A    between atoms: C_6  and  C_7
REMARK    7  A    between atoms: C_7  and  S_8
REMARK    8  A    between atoms: S_8  and  C_9
REMARK    9  A    between atoms: C_9  and  C_12
REMARK   10  A    between atoms: N_10  and  O_11
REMARK   11  A    between atoms: C_12  and  C_14
REMARK                            x       y       z     vdW  Elec       q    Type
REMARK                         _______ _______ _______ _____ _____    ______ ____
ROOT
ATOM      1  C   UNL     1       2.836   3.248  19.769  0.00  0.00    +0.000 C 
ATOM      2  N   UNL     1       3.186   2.564  20.802  0.00  0.00    +0.000 NA
ENDROOT
BRANCH   2   3
ATOM      3  O   UNL     1       2.483   2.554  21.914  0.00  0.00    +0.000 OA
ATOM      4  H   UNL     1       2.693   1.906  22.601  0.00  0.00    +0.000 HD
ENDBRANCH   2   3
BRANCH   1   5
ATOM      5  C   UNL     1       3.717   3.242  18.569  0.00  0.00    +0.000 C 
ATOM      6  O   UNL     1       3.644   2.297  17.797  0.00  0.00    +0.000 OA
BRANCH   5   7
ATOM      7  C   UNL     1       4.666   4.352  18.275  0.00  0.00    +0.000 A 
ATOM      8  C   UNL     1       5.689   4.697  19.185  0.00  0.00    +0.000 A 
ATOM      9  C   UNL     1       6.585   5.727  18.890  0.00  0.00    +0.000 A 
ATOM     10  C   UNL     1       6.467   6.437  17.694  0.00  0.00    +0.000 A 
ATOM     11 CL   UNL     1       7.585   7.741  17.338  0.00  0.00    +0.000 Cl
ATOM     12  C   UNL     1       5.463   6.102  16.781  0.00  0.00    +0.000 A 
ATOM     13  C   UNL     1       4.576   5.058  17.063  0.00  0.00    +0.000 A 
ENDBRANCH   5   7
ENDBRANCH   1   5
BRANCH   1  14
ATOM     14  S   UNL     1       1.331   4.255  19.750  0.00  0.00    +0.000 S 
BRANCH  14  15
ATOM     15  C   UNL     1       1.992   5.763  20.542  0.00  0.00    +0.000 C 
BRANCH  15  16
ATOM     16  C   UNL     1       2.224   6.918  19.557  0.00  0.00    +0.000 C 
BRANCH  16  17
ATOM     17  N   UNL     1       1.914   8.262  20.109  0.00  0.00    +0.000 NA
BRANCH  17  19
ATOM     18  C   UNL     1       2.032   9.247  17.787  0.00  0.00    +0.000 C 
ATOM     19  C   UNL     1       1.267   9.151  19.113  0.00  0.00    +0.000 C 
ENDBRANCH  17  19
BRANCH  17  20
ATOM     20  C   UNL     1       1.183   8.141  21.399  0.00  0.00    +0.000 C 
ATOM     21  C   UNL     1      -0.148   8.907  21.447  0.00  0.00    +0.000 C 
ENDBRANCH  17  20
ENDBRANCH  16  17
ENDBRANCH  15  16
ENDBRANCH  14  15
ENDBRANCH   1  14
TORSDOF 9
ENDMDL
MODEL 4
REMARK VINA RESULT:      -6.1      4.261      6.762
REMARK  Name = 
REMARK  11 active torsions:
REMARK  status: ('A' for Active; 'I' for Inactive)
REMARK    1  A    between atoms: C_1  and  C_2
REMARK    2  A    between atoms: C_2  and  N_3
REMARK    3  A    between atoms: N_3  and  C_4
REMARK    4  A    between atoms: N_3  and  C_6
REMARK    5  A    between atoms: C_4  and  C_5
REMARK    6  A    between atoms: C_6  and  C_7
REMARK    7  A    between atoms: C_7  and  S_8
REMARK    8  A    between atoms: S_8  and  C_9
REMARK    9  A    between atoms: C_9  and  C_12
REMARK   10  A    between atoms: N_10  and  O_11
REMARK   11  A    between atoms: C_12  and  C_14
REMARK                            x       y       z     vdW  Elec       q    Type
REMARK                         _______ _______ _______ _____ _____    ______ ____
ROOT
ATOM      1  C   UNL     1       2.670   5.292  18.344  0.00  0.00    +0.000 C 
ATOM      2  N   UNL     1       1.809   4.688  17.601  0.00  0.00    +0.000 NA
ENDROOT
BRANCH   2   3
ATOM      3  O   UNL     1       1.529   3.410  17.738  0.00  0.00    +0.000 OA
ATOM      4  H   UNL     1       0.685   3.072  17.408  0.00  0.00    +0.000 HD
ENDBRANCH   2   3
BRANCH   1   5
ATOM      5  C   UNL     1       2.962   6.728  18.087  0.00  0.00    +0.000 C 
ATOM      6  O   UNL     1       3.872   7.011  17.321  0.00  0.00    +0.000 OA
BRANCH   5   7
ATOM      7  C   UNL     1       2.173   7.824  18.717  0.00  0.00    +0.000 A 
ATOM      8  C   UNL     1       1.840   7.788  20.088  0.00  0.00    +0.000 A 
ATOM      9  C   UNL     1       1.117   8.830  20.672  0.00  0.00    +0.000 A 
ATOM     10  C   UNL     1       0.701   9.914  19.897  0.00  0.00    +0.000 A 
ATOM     11 CL   UNL     1      -0.222  11.212  20.633  0.00  0.00    +0.000 Cl
ATOM     12  C   UNL     1       1.028   9.966  18.540  0.00  0.00    +0.000 A 
ATOM     13  C   UNL     1       1.771   8.935  17.954  0.00  0.00    +0.000 A 
ENDBRANCH   5   7
ENDBRANCH   1   5
BRANCH   1  14
ATOM     14  S   UNL     1       3.570   4.433  19.660  0.00  0.00    +0.000 S 
BRANCH  14  15
ATOM     15  C   UNL     1       5.266   4.963  19.233  0.00  0.00    +0.000 C 
BRANCH  15  16
ATOM     16  C   UNL     1       5.843   4.236  18.010  0.00  0.00    +0.000 C 
BRANCH  16  17
ATOM     17  N   UNL     1       7.062   4.869  17.444  0.00  0.00    +0.000 NA
BRANCH  17  19
ATOM     18  C   UNL     1       5.638   4.628  15.372  0.00  0.00    +0.000 C 
ATOM     19  C   UNL     1       6.919   5.190  16.002  0.00  0.00    +0.000 C 
ENDBRANCH  17  19
BRANCH  17  20
ATOM     20  C   UNL     1       7.501   6.009  18.292  0.00  0.00    +0.000 C 
ATOM     21  C   UNL     1       7.558   7.359  17.561  0.00  0.00    +0.000 C 
ENDBRANCH  17  20
ENDBRANCH  16  17
ENDBRANCH  15  16
ENDBRANCH  14  15
ENDBRANCH   1  14
TORSDOF 9
ENDMDL
MODEL 5
REMARK VINA RESULT:      -6.1      4.184      6.633
REMARK  Name = 
REMARK  11 active torsions:
REMARK  status: ('A' for Active; 'I' for Inactive)
REMARK    1  A    between atoms: C_1  and  C_2
REMARK    2  A    between atoms: C_2  and  N_3
REMARK    3  A    between atoms: N_3  and  C_4
REMARK    4  A    between atoms: N_3  and  C_6
REMARK    5  A    between atoms: C_4  and  C_5
REMARK    6  A    between atoms: C_6  and  C_7
REMARK    7  A    between atoms: C_7  and  S_8
REMARK    8  A    between atoms: S_8  and  C_9
REMARK    9  A    between atoms: C_9  and  C_12
REMARK   10  A    between atoms: N_10  and  O_11
REMARK   11  A    between atoms: C_12  and  C_14
REMARK                            x       y       z     vdW  Elec       q    Type
REMARK                         _______ _______ _______ _____ _____    ______ ____
ROOT
ATOM      1  C   UNL     1       2.052   4.563  19.380  0.00  0.00    +0.000 C 
ATOM      2  N   UNL     1       1.425   4.101  20.406  0.00  0.00    +0.000 NA
ENDROOT
BRANCH   2   3
ATOM      3  O   UNL     1       0.650   3.038  20.341  0.00  0.00    +0.000 OA
ATOM      4  H   UNL     1       0.445   2.654  19.477  0.00  0.00    +0.000 HD
ENDBRANCH   2   3
BRANCH   1   5
ATOM      5  C   UNL     1       2.867   5.798  19.533  0.00  0.00    +0.000 C 
ATOM      6  O   UNL     1       4.053   5.684  19.810  0.00  0.00    +0.000 OA
BRANCH   5   7
ATOM      7  C   UNL     1       2.290   7.159  19.344  0.00  0.00    +0.000 A 
ATOM      8  C   UNL     1       2.352   7.810  18.094  0.00  0.00    +0.000 A 
ATOM      9  C   UNL     1       1.791   9.077  17.923  0.00  0.00    +0.000 A 
ATOM     10  C   UNL     1       1.174   9.720  18.999  0.00  0.00    +0.000 A 
ATOM     11 CL   UNL     1       0.486  11.320  18.782  0.00  0.00    +0.000 Cl
ATOM     12  C   UNL     1       1.101   9.085  20.241  0.00  0.00    +0.000 A 
ATOM     13  C   UNL     1       1.643   7.807  20.411  0.00  0.00    +0.000 A 
ENDBRANCH   5   7
ENDBRANCH   1   5
BRANCH   1  14
ATOM     14  S   UNL     1       1.930   3.784  17.750  0.00  0.00    +0.000 S 
BRANCH  14  15
ATOM     15  C   UNL     1       3.700   3.420  17.480  0.00  0.00    +0.000 C 
BRANCH  15  16
ATOM     16  C   UNL     1       4.432   4.508  16.683  0.00  0.00    +0.000 C 
BRANCH  16  17
ATOM     17  N   UNL     1       5.841   4.174  16.346  0.00  0.00    +0.000 NA
BRANCH  17  19
ATOM     18  C   UNL     1       6.945   4.781  14.158  0.00  0.00    +0.000 C 
ATOM     19  C   UNL     1       6.015   3.824  14.915  0.00  0.00    +0.000 C 
ENDBRANCH  17  19
BRANCH  17  20
ATOM     20  C   UNL     1       6.761   5.230  16.843  0.00  0.00    +0.000 C 
ATOM     21  C   UNL     1       7.506   4.865  18.136  0.00  0.00    +0.000 C 
ENDBRANCH  17  20
ENDBRANCH  16  17
ENDBRANCH  15  16
ENDBRANCH  14  15
ENDBRANCH   1  14
TORSDOF 9
ENDMDL
MODEL 6
REMARK VINA RESULT:      -6.1      3.629      6.374
REMARK  Name = 
REMARK  11 active torsions:
REMARK  status: ('A' for Active; 'I' for Inactive)
REMARK    1  A    between atoms: C_1  and  C_2
REMARK    2  A    between atoms: C_2  and  N_3
REMARK    3  A    between atoms: N_3  and  C_4
REMARK    4  A    between atoms: N_3  and  C_6
REMARK    5  A    between atoms: C_4  and  C_5
REMARK    6  A    between atoms: C_6  and  C_7
REMARK    7  A    between atoms: C_7  and  S_8
REMARK    8  A    between atoms: S_8  and  C_9
REMARK    9  A    between atoms: C_9  and  C_12
REMARK   10  A    between atoms: N_10  and  O_11
REMARK   11  A    between atoms: C_12  and  C_14
REMARK                            x       y       z     vdW  Elec       q    Type
REMARK                         _______ _______ _______ _____ _____    ______ ____
ROOT
ATOM      1  C   UNL     1       2.620   3.187  19.406  0.00  0.00    +0.000 C 
ATOM      2  N   UNL     1       1.839   2.686  18.512  0.00  0.00    +0.000 NA
ENDROOT
BRANCH   2   3
ATOM      3  O   UNL     1       2.211   1.703  17.719  0.00  0.00    +0.000 OA
ATOM      4  H   UNL     1       1.553   1.063  17.418  0.00  0.00    +0.000 HD
ENDBRANCH   2   3
BRANCH   1   5
ATOM      5  C   UNL     1       2.133   4.330  20.225  0.00  0.00    +0.000 C 
ATOM      6  O   UNL     1       1.761   4.112  21.369  0.00  0.00    +0.000 OA
BRANCH   5   7
ATOM      7  C   UNL     1       2.102   5.725  19.702  0.00  0.00    +0.000 A 
ATOM      8  C   UNL     1       2.397   6.004  18.351  0.00  0.00    +0.000 A 
ATOM      9  C   UNL     1       2.346   7.313  17.867  0.00  0.00    +0.000 A 
ATOM     10  C   UNL     1       2.015   8.364  18.725  0.00  0.00    +0.000 A 
ATOM     11 CL   UNL     1       1.970  10.009  18.115  0.00  0.00    +0.000 Cl
ATOM     12  C   UNL     1       1.715   8.102  20.064  0.00  0.00    +0.000 A 
ATOM     13  C   UNL     1       1.745   6.790  20.549  0.00  0.00    +0.000 A 
ENDBRANCH   5   7
ENDBRANCH   1   5
BRANCH   1  14
ATOM     14  S   UNL     1       4.305   2.575  19.660  0.00  0.00    +0.000 S 
BRANCH  14  15
ATOM     15  C   UNL     1       5.223   3.952  18.888  0.00  0.00    +0.000 C 
BRANCH  15  16
ATOM     16  C   UNL     1       5.229   3.899  17.354  0.00  0.00    +0.000 C 
BRANCH  16  17
ATOM     17  N   UNL     1       6.456   4.458  16.728  0.00  0.00    +0.000 NA
BRANCH  17  19
ATOM     18  C   UNL     1       6.555   4.658  14.213  0.00  0.00    +0.000 C 
ATOM     19  C   UNL     1       6.157   5.303  15.546  0.00  0.00    +0.000 C 
ENDBRANCH  17  19
BRANCH  17  20
ATOM     20  C   UNL     1       7.315   5.108  17.754  0.00  0.00    +0.000 C 
ATOM     21  C   UNL     1       7.470   6.627  17.581  0.00  0.00    +0.000 C 
ENDBRANCH  17  20
ENDBRANCH  16  17
ENDBRANCH  15  16
ENDBRANCH  14  15
ENDBRANCH   1  14
TORSDOF 9
ENDMDL
MODEL 7
REMARK VINA RESULT:      -6.1      4.212      6.545
REMARK  Name = 
REMARK  11 active torsions:
REMARK  status: ('A' for Active; 'I' for Inactive)
REMARK    1  A    between atoms: C_1  and  C_2
REMARK    2  A    between atoms: C_2  and  N_3
REMARK    3  A    between atoms: N_3  and  C_4
REMARK    4  A    between atoms: N_3  and  C_6
REMARK    5  A    between atoms: C_4  and  C_5
REMARK    6  A    between atoms: C_6  and  C_7
REMARK    7  A    between atoms: C_7  and  S_8
REMARK    8  A    between atoms: S_8  and  C_9
REMARK    9  A    between atoms: C_9  and  C_12
REMARK   10  A    between atoms: N_10  and  O_11
REMARK   11  A    between atoms: C_12  and  C_14
REMARK                            x       y       z     vdW  Elec       q    Type
REMARK                         _______ _______ _______ _____ _____    ______ ____
ROOT
ATOM      1  C   UNL     1       2.019   4.553  19.747  0.00  0.00    +0.000 C 
ATOM      2  N   UNL     1       1.476   4.230  20.869  0.00  0.00    +0.000 NA
ENDROOT
BRANCH   2   3
ATOM      3  O   UNL     1       0.701   3.174  21.001  0.00  0.00    +0.000 OA
ATOM      4  H   UNL     1      -0.179   3.278  21.387  0.00  0.00    +0.000 HD
ENDBRANCH   2   3
BRANCH   1   5
ATOM      5  C   UNL     1       2.841   5.792  19.677  0.00  0.00    +0.000 C 
ATOM      6  O   UNL     1       4.057   5.691  19.760  0.00  0.00    +0.000 OA
BRANCH   5   7
ATOM      7  C   UNL     1       2.232   7.139  19.494  0.00  0.00    +0.000 A 
ATOM      8  C   UNL     1       1.553   7.782  20.550  0.00  0.00    +0.000 A 
ATOM      9  C   UNL     1       1.002   9.053  20.374  0.00  0.00    +0.000 A 
ATOM     10  C   UNL     1       1.108   9.696  19.138  0.00  0.00    +0.000 A 
ATOM     11 CL   UNL     1       0.399  11.286  18.917  0.00  0.00    +0.000 Cl
ATOM     12  C   UNL     1       1.783   9.074  18.085  0.00  0.00    +0.000 A 
ATOM     13  C   UNL     1       2.354   7.809  18.264  0.00  0.00    +0.000 A 
ENDBRANCH   5   7
ENDBRANCH   1   5
BRANCH   1  14
ATOM     14  S   UNL     1       1.772   3.573  18.244  0.00  0.00    +0.000 S 
BRANCH  14  15
ATOM     15  C   UNL     1       3.020   4.376  17.178  0.00  0.00    +0.000 C 
BRANCH  15  16
ATOM     16  C   UNL     1       4.333   3.586  17.074  0.00  0.00    +0.000 C 
BRANCH  16  17
ATOM     17  N   UNL     1       5.493   4.390  16.610  0.00  0.00    +0.000 NA
BRANCH  17  19
ATOM     18  C   UNL     1       5.695   4.168  14.102  0.00  0.00    +0.000 C 
ATOM     19  C   UNL     1       6.214   3.749  15.483  0.00  0.00    +0.000 C 
ENDBRANCH  17  19
BRANCH  17  20
ATOM     20  C   UNL     1       5.086   5.799  16.363  0.00  0.00    +0.000 C 
ATOM     21  C   UNL     1       6.010   6.847  17.004  0.00  0.00    +0.000 C 
ENDBRANCH  17  20
ENDBRANCH  16  17
ENDBRANCH  15  16
ENDBRANCH  14  15
ENDBRANCH   1  14
TORSDOF 9
ENDMDL
MODEL 8
REMARK VINA RESULT:      -6.0      2.933      6.151
REMARK  Name = 
REMARK  11 active torsions:
REMARK  status: ('A' for Active; 'I' for Inactive)
REMARK    1  A    between atoms: C_1  and  C_2
REMARK    2  A    between atoms: C_2  and  N_3
REMARK    3  A    between atoms: N_3  and  C_4
REMARK    4  A    between atoms: N_3  and  C_6
REMARK    5  A    between atoms: C_4  and  C_5
REMARK    6  A    between atoms: C_6  and  C_7
REMARK    7  A    between atoms: C_7  and  S_8
REMARK    8  A    between atoms: S_8  and  C_9
REMARK    9  A    between atoms: C_9  and  C_12
REMARK   10  A    between atoms: N_10  and  O_11
REMARK   11  A    between atoms: C_12  and  C_14
REMARK                            x       y       z     vdW  Elec       q    Type
REMARK                         _______ _______ _______ _____ _____    ______ ____
ROOT
ATOM      1  C   UNL     1       6.318   6.264  17.818  0.00  0.00    +0.000 C 
ATOM      2  N   UNL     1       7.323   7.069  17.838  0.00  0.00    +0.000 NA
ENDROOT
BRANCH   2   3
ATOM      3  O   UNL     1       7.556   7.933  16.872  0.00  0.00    +0.000 OA
ATOM      4  H   UNL     1       8.441   7.984  16.486  0.00  0.00    +0.000 HD
ENDBRANCH   2   3
BRANCH   1   5
ATOM      5  C   UNL     1       6.158   5.286  18.928  0.00  0.00    +0.000 C 
ATOM      6  O   UNL     1       7.155   4.928  19.539  0.00  0.00    +0.000 OA
BRANCH   5   7
ATOM      7  C   UNL     1       4.828   4.746  19.324  0.00  0.00    +0.000 A 
ATOM      8  C   UNL     1       3.753   5.607  19.631  0.00  0.00    +0.000 A 
ATOM      9  C   UNL     1       2.504   5.090  19.982  0.00  0.00    +0.000 A 
ATOM     10  C   UNL     1       2.313   3.708  20.049  0.00  0.00    +0.000 A 
ATOM     11 CL   UNL     1       0.747   3.064  20.508  0.00  0.00    +0.000 Cl
ATOM     12  C   UNL     1       3.366   2.843  19.743  0.00  0.00    +0.000 A 
ATOM     13  C   UNL     1       4.613   3.357  19.370  0.00  0.00    +0.000 A 
ENDBRANCH   5   7
ENDBRANCH   1   5
BRANCH   1  14
ATOM     14  S   UNL     1       5.125   6.254  16.456  0.00  0.00    +0.000 S 
BRANCH  14  15
ATOM     15  C   UNL     1       5.415   4.558  15.841  0.00  0.00    +0.000 C 
BRANCH  15  16
ATOM     16  C   UNL     1       5.289   4.432  14.316  0.00  0.00    +0.000 C 
BRANCH  16  17
ATOM     17  N   UNL     1       6.488   3.859  13.650  0.00  0.00    +0.000 NA
BRANCH  17  19
ATOM     18  C   UNL     1       4.703   3.408  11.922  0.00  0.00    +0.000 C 
ATOM     19  C   UNL     1       6.187   3.321  12.301  0.00  0.00    +0.000 C 
ENDBRANCH  17  19
BRANCH  17  20
ATOM     20  C   UNL     1       7.620   4.823  13.694  0.00  0.00    +0.000 C 
ATOM     21  C   UNL     1       7.829   5.616  12.395  0.00  0.00    +0.000 C 
ENDBRANCH  17  20
ENDBRANCH  16  17
ENDBRANCH  15  16
ENDBRANCH  14  15
ENDBRANCH   1  14
TORSDOF 9
ENDMDL
MODEL 9
REMARK VINA RESULT:      -5.9      3.765      6.559
REMARK  Name = 
REMARK  11 active torsions:
REMARK  status: ('A' for Active; 'I' for Inactive)
REMARK    1  A    between atoms: C_1  and  C_2
REMARK    2  A    between atoms: C_2  and  N_3
REMARK    3  A    between atoms: N_3  and  C_4
REMARK    4  A    between atoms: N_3  and  C_6
REMARK    5  A    between atoms: C_4  and  C_5
REMARK    6  A    between atoms: C_6  and  C_7
REMARK    7  A    between atoms: C_7  and  S_8
REMARK    8  A    between atoms: S_8  and  C_9
REMARK    9  A    between atoms: C_9  and  C_12
REMARK   10  A    between atoms: N_10  and  O_11
REMARK   11  A    between atoms: C_12  and  C_14
REMARK                            x       y       z     vdW  Elec       q    Type
REMARK                         _______ _______ _______ _____ _____    ______ ____
ROOT
ATOM      1  C   UNL     1       2.768   4.017  19.011  0.00  0.00    +0.000 C 
ATOM      2  N   UNL     1       1.918   3.761  18.078  0.00  0.00    +0.000 NA
ENDROOT
BRANCH   2   3
ATOM      3  O   UNL     1       2.156   2.883  17.127  0.00  0.00    +0.000 OA
ATOM      4  H   UNL     1       2.970   2.954  16.609  0.00  0.00    +0.000 HD
ENDBRANCH   2   3
BRANCH   1   5
ATOM      5  C   UNL     1       2.436   5.061  20.018  0.00  0.00    +0.000 C 
ATOM      6  O   UNL     1       2.380   4.739  21.197  0.00  0.00    +0.000 OA
BRANCH   5   7
ATOM      7  C   UNL     1       2.188   6.480  19.638  0.00  0.00    +0.000 A 
ATOM      8  C   UNL     1       2.529   6.963  18.356  0.00  0.00    +0.000 A 
ATOM      9  C   UNL     1       2.274   8.289  18.004  0.00  0.00    +0.000 A 
ATOM     10  C   UNL     1       1.690   9.159  18.928  0.00  0.00    +0.000 A 
ATOM     11 CL   UNL     1       1.388  10.830  18.485  0.00  0.00    +0.000 Cl
ATOM     12  C   UNL     1       1.342   8.694  20.199  0.00  0.00    +0.000 A 
ATOM     13  C   UNL     1       1.576   7.360  20.549  0.00  0.00    +0.000 A 
ENDBRANCH   5   7
ENDBRANCH   1   5
BRANCH   1  14
ATOM     14  S   UNL     1       4.371   3.180  19.105  0.00  0.00    +0.000 S 
BRANCH  14  15
ATOM     15  C   UNL     1       5.450   4.651  19.204  0.00  0.00    +0.000 C 
BRANCH  15  16
ATOM     16  C   UNL     1       6.298   4.872  17.944  0.00  0.00    +0.000 C 
BRANCH  16  17
ATOM     17  N   UNL     1       5.698   5.811  16.961  0.00  0.00    +0.000 NA
BRANCH  17  19
ATOM     18  C   UNL     1       7.593   7.358  17.588  0.00  0.00    +0.000 C 
ATOM     19  C   UNL     1       6.120   7.215  17.185  0.00  0.00    +0.000 C 
ENDBRANCH  17  19
BRANCH  17  20
ATOM     20  C   UNL     1       5.903   5.316  15.573  0.00  0.00    +0.000 C 
ATOM     21  C   UNL     1       5.937   3.786  15.445  0.00  0.00    +0.000 C 
ENDBRANCH  17  20
ENDBRANCH  16  17
ENDBRANCH  15  16
ENDBRANCH  14  15
ENDBRANCH   1  14
TORSDOF 9
ENDMDL
