MODEL 1
REMARK VINA RESULT:      -7.2      0.000      0.000
REMARK  Name = 
REMARK  9 active torsions:
REMARK  status: ('A' for Active; 'I' for Inactive)
REMARK    1  A    between atoms: C_1  and  C_2
REMARK    2  A    between atoms: C_2  and  C_3
REMARK    3  A    between atoms: C_2  and  C_4
REMARK    4  A    between atoms: C_4  and  O_5
REMARK    5  A    between atoms: O_5  and  C_6
REMARK    6  A    between atoms: C_8  and  O_9
REMARK    7  A    between atoms: O_9  and  C_10
REMARK    8  A    between atoms: N_13  and  C_14
REMARK    9  A    between atoms: N_19  and  C_20
REMARK                            x       y       z     vdW  Elec       q    Type
REMARK                         _______ _______ _______ _____ _____    ______ ____
ROOT
ATOM      1  C   UNL     1       1.391   9.400  19.076  0.00  0.00    +0.000 A 
ATOM      2  C   UNL     1       1.013  10.695  18.771  0.00  0.00    +0.000 A 
ATOM      3  C   UNL     1       0.118  11.411  19.572  0.00  0.00    +0.000 A 
ATOM      4  C   UNL     1      -0.237  10.903  20.853  0.00  0.00    +0.000 A 
ATOM      5  C   UNL     1      -1.066  11.510  21.832  0.00  0.00    +0.000 A 
ATOM      6  N   UNL     1      -1.802  12.682  21.532  0.00  0.00    +0.000 N 
ATOM      7  N   UNL     1      -1.222  10.980  23.060  0.00  0.00    +0.000 NA
ATOM      8  C   UNL     1      -0.645   9.799  23.297  0.00  0.00    +0.000 A 
ATOM      9  N   UNL     1       0.067   9.091  22.420  0.00  0.00    +0.000 NA
ATOM     10  C   UNL     1       0.273   9.640  21.222  0.00  0.00    +0.000 A 
ATOM     11  C   UNL     1       1.021   8.894  20.314  0.00  0.00    +0.000 A 
ATOM     12  H   UNL     1      -1.201  13.401  21.138  0.00  0.00    +0.000 HD
ENDROOT
BRANCH   6  13
ATOM     13  C   UNL     1      -2.911  13.180  22.255  0.00  0.00    +0.000 A 
ATOM     14  C   UNL     1      -2.758  13.990  23.400  0.00  0.00    +0.000 A 
ATOM     15 CL   UNL     1      -1.183  14.449  23.949  0.00  0.00    +0.000 Cl
ATOM     16  C   UNL     1      -3.872  14.455  24.136  0.00  0.00    +0.000 A 
ATOM     17  C   UNL     1      -5.170  14.123  23.746  0.00  0.00    +0.000 A 
ATOM     18  C   UNL     1      -5.314  13.353  22.614  0.00  0.00    +0.000 A 
ATOM     19  C   UNL     1      -4.228  12.908  21.886  0.00  0.00    +0.000 A 
ATOM     20  O   UNL     1      -4.629  12.236  20.764  0.00  0.00    +0.000 OA
ATOM     21  C   UNL     1      -6.056  12.254  20.909  0.00  0.00    +0.000 C 
ATOM     22  O   UNL     1      -6.504  12.969  22.077  0.00  0.00    +0.000 OA
ENDBRANCH   6  13
BRANCH   1  23
ATOM     23  O   UNL     1       2.113   8.587  18.232  0.00  0.00    +0.000 OA
BRANCH  23  24
ATOM     24  C   UNL     1       2.491   7.321  18.798  0.00  0.00    +0.000 C 
BRANCH  24  26
ATOM     25  C   UNL     1       4.453   6.661  17.339  0.00  0.00    +0.000 C 
ATOM     26  C   UNL     1       3.016   6.340  17.744  0.00  0.00    +0.000 C 
ATOM     27  C   UNL     1       2.929   4.913  18.297  0.00  0.00    +0.000 C 
ENDBRANCH  24  26
ENDBRANCH  23  24
ENDBRANCH   1  23
BRANCH   3  28
ATOM     28  O   UNL     1      -0.379  12.629  19.149  0.00  0.00    +0.000 OA
BRANCH  28  29
ATOM     29  C   UNL     1       0.597  13.682  19.041  0.00  0.00    +0.000 C 
ATOM     30  C   UNL     1       1.473  13.727  20.289  0.00  0.00    +0.000 C 
ATOM     31  C   UNL     1       2.520  14.832  20.136  0.00  0.00    +0.000 C 
ATOM     32  N   UNL     1       1.889  16.130  19.858  0.00  0.00    +0.000 NA
ATOM     33  C   UNL     1       2.907  17.172  19.714  0.00  0.00    +0.000 C 
ATOM     34  C   UNL     1       1.026  16.090  18.666  0.00  0.00    +0.000 C 
ATOM     35  C   UNL     1      -0.068  15.030  18.807  0.00  0.00    +0.000 C 
ENDBRANCH  28  29
ENDBRANCH   3  28
TORSDOF 6
ENDMDL
MODEL 2
REMARK VINA RESULT:      -7.1      1.803      2.315
REMARK  Name = 
REMARK  9 active torsions:
REMARK  status: ('A' for Active; 'I' for Inactive)
REMARK    1  A    between atoms: C_1  and  C_2
REMARK    2  A    between atoms: C_2  and  C_3
REMARK    3  A    between atoms: C_2  and  C_4
REMARK    4  A    between atoms: C_4  and  O_5
REMARK    5  A    between atoms: O_5  and  C_6
REMARK    6  A    between atoms: C_8  and  O_9
REMARK    7  A    between atoms: O_9  and  C_10
REMARK    8  A    between atoms: N_13  and  C_14
REMARK    9  A    between atoms: N_19  and  C_20
REMARK                            x       y       z     vdW  Elec       q    Type
REMARK                         _______ _______ _______ _____ _____    ______ ____
ROOT
ATOM      1  C   UNL     1       1.450   9.255  19.030  0.00  0.00    +0.000 A 
ATOM      2  C   UNL     1       1.298  10.609  18.792  0.00  0.00    +0.000 A 
ATOM      3  C   UNL     1       0.518  11.422  19.621  0.00  0.00    +0.000 A 
ATOM      4  C   UNL     1       0.056  10.914  20.867  0.00  0.00    +0.000 A 
ATOM      5  C   UNL     1      -0.681  11.598  21.868  0.00  0.00    +0.000 A 
ATOM      6  N   UNL     1      -1.207  12.890  21.625  0.00  0.00    +0.000 N 
ATOM      7  N   UNL     1      -0.950  11.038  23.063  0.00  0.00    +0.000 NA
ATOM      8  C   UNL     1      -0.581   9.766  23.242  0.00  0.00    +0.000 A 
ATOM      9  N   UNL     1       0.022   8.997  22.336  0.00  0.00    +0.000 NA
ATOM     10  C   UNL     1       0.341   9.566  21.173  0.00  0.00    +0.000 A 
ATOM     11  C   UNL     1       0.975   8.754  20.234  0.00  0.00    +0.000 A 
ATOM     12  H   UNL     1      -0.487  13.519  21.278  0.00  0.00    +0.000 HD
ENDROOT
BRANCH   6  13
ATOM     13  C   UNL     1      -2.234  13.527  22.360  0.00  0.00    +0.000 A 
ATOM     14  C   UNL     1      -3.594  13.408  22.006  0.00  0.00    +0.000 A 
ATOM     15 CL   UNL     1      -4.071  12.429  20.662  0.00  0.00    +0.000 Cl
ATOM     16  C   UNL     1      -4.611  14.075  22.727  0.00  0.00    +0.000 A 
ATOM     17  C   UNL     1      -4.294  14.880  23.823  0.00  0.00    +0.000 A 
ATOM     18  C   UNL     1      -2.968  14.971  24.179  0.00  0.00    +0.000 A 
ATOM     19  C   UNL     1      -1.974  14.311  23.484  0.00  0.00    +0.000 A 
ATOM     20  O   UNL     1      -0.755  14.490  24.077  0.00  0.00    +0.000 OA
ATOM     21  C   UNL     1      -1.085  15.375  25.158  0.00  0.00    +0.000 C 
ATOM     22  O   UNL     1      -2.492  15.681  25.237  0.00  0.00    +0.000 OA
ENDBRANCH   6  13
BRANCH   1  23
ATOM     23  O   UNL     1       2.045   8.379  18.152  0.00  0.00    +0.000 OA
BRANCH  23  24
ATOM     24  C   UNL     1       2.799   7.325  18.775  0.00  0.00    +0.000 C 
BRANCH  24  26
ATOM     25  C   UNL     1       3.790   5.381  17.491  0.00  0.00    +0.000 C 
ATOM     26  C   UNL     1       2.533   5.957  18.138  0.00  0.00    +0.000 C 
ATOM     27  C   UNL     1       2.002   4.997  19.208  0.00  0.00    +0.000 C 
ENDBRANCH  24  26
ENDBRANCH  23  24
ENDBRANCH   1  23
BRANCH   3  28
ATOM     28  O   UNL     1       0.238  12.726  19.259  0.00  0.00    +0.000 OA
BRANCH  28  29
ATOM     29  C   UNL     1       1.389  13.578  19.112  0.00  0.00    +0.000 C 
ATOM     30  C   UNL     1       2.182  13.634  20.414  0.00  0.00    +0.000 C 
ATOM     31  C   UNL     1       3.414  14.519  20.221  0.00  0.00    +0.000 C 
ATOM     32  N   UNL     1       3.040  15.858  19.744  0.00  0.00    +0.000 NA
ATOM     33  C   UNL     1       4.233  16.688  19.565  0.00  0.00    +0.000 C 
ATOM     34  C   UNL     1       2.258  15.812  18.498  0.00  0.00    +0.000 C 
ATOM     35  C   UNL     1       0.987  14.976  18.670  0.00  0.00    +0.000 C 
ENDBRANCH  28  29
ENDBRANCH   3  28
TORSDOF 6
ENDMDL
MODEL 3
REMARK VINA RESULT:      -7.1      1.354      1.762
REMARK  Name = 
REMARK  9 active torsions:
REMARK  status: ('A' for Active; 'I' for Inactive)
REMARK    1  A    between atoms: C_1  and  C_2
REMARK    2  A    between atoms: C_2  and  C_3
REMARK    3  A    between atoms: C_2  and  C_4
REMARK    4  A    between atoms: C_4  and  O_5
REMARK    5  A    between atoms: O_5  and  C_6
REMARK    6  A    between atoms: C_8  and  O_9
REMARK    7  A    between atoms: O_9  and  C_10
REMARK    8  A    between atoms: N_13  and  C_14
REMARK    9  A    between atoms: N_19  and  C_20
REMARK                            x       y       z     vdW  Elec       q    Type
REMARK                         _______ _______ _______ _____ _____    ______ ____
ROOT
ATOM      1  C   UNL     1       1.616   8.412  19.602  0.00  0.00    +0.000 A 
ATOM      2  C   UNL     1       1.475   9.631  18.962  0.00  0.00    +0.000 A 
ATOM      3  C   UNL     1       0.614  10.623  19.444  0.00  0.00    +0.000 A 
ATOM      4  C   UNL     1       0.044  10.486  20.741  0.00  0.00    +0.000 A 
ATOM      5  C   UNL     1      -0.788  11.408  21.428  0.00  0.00    +0.000 A 
ATOM      6  N   UNL     1      -1.300  12.552  20.769  0.00  0.00    +0.000 N 
ATOM      7  N   UNL     1      -1.160  11.213  22.707  0.00  0.00    +0.000 NA
ATOM      8  C   UNL     1      -0.799  10.065  23.285  0.00  0.00    +0.000 A 
ATOM      9  N   UNL     1      -0.108   9.085  22.701  0.00  0.00    +0.000 NA
ATOM     10  C   UNL     1       0.312   9.299  21.454  0.00  0.00    +0.000 A 
ATOM     11  C   UNL     1       1.036   8.270  20.855  0.00  0.00    +0.000 A 
ATOM     12  H   UNL     1      -0.556  13.077  20.316  0.00  0.00    +0.000 HD
ENDROOT
BRANCH   6  13
ATOM     13  C   UNL     1      -2.395  13.340  21.193  0.00  0.00    +0.000 A 
ATOM     14  C   UNL     1      -2.252  14.379  22.137  0.00  0.00    +0.000 A 
ATOM     15 CL   UNL     1      -0.697  14.764  22.791  0.00  0.00    +0.000 Cl
ATOM     16  C   UNL     1      -3.358  15.139  22.580  0.00  0.00    +0.000 A 
ATOM     17  C   UNL     1      -4.639  14.882  22.090  0.00  0.00    +0.000 A 
ATOM     18  C   UNL     1      -4.769  13.884  21.151  0.00  0.00    +0.000 A 
ATOM     19  C   UNL     1      -3.688  13.148  20.707  0.00  0.00    +0.000 A 
ATOM     20  O   UNL     1      -4.056  12.278  19.718  0.00  0.00    +0.000 OA
ATOM     21  C   UNL     1      -5.472  12.503  19.646  0.00  0.00    +0.000 C 
ATOM     22  O   UNL     1      -5.935  13.528  20.547  0.00  0.00    +0.000 OA
ENDBRANCH   6  13
BRANCH   1  23
ATOM     23  O   UNL     1       2.297   7.338  19.076  0.00  0.00    +0.000 OA
BRANCH  23  24
ATOM     24  C   UNL     1       2.541   6.270  20.006  0.00  0.00    +0.000 C 
BRANCH  24  26
ATOM     25  C   UNL     1       1.150   4.157  20.123  0.00  0.00    +0.000 C 
ATOM     26  C   UNL     1       2.276   4.889  19.397  0.00  0.00    +0.000 C 
ATOM     27  C   UNL     1       1.930   5.051  17.913  0.00  0.00    +0.000 C 
ENDBRANCH  24  26
ENDBRANCH  23  24
ENDBRANCH   1  23
BRANCH   3  28
ATOM     28  O   UNL     1       0.359  11.752  18.691  0.00  0.00    +0.000 OA
BRANCH  28  29
ATOM     29  C   UNL     1       1.268  12.848  18.905  0.00  0.00    +0.000 C 
ATOM     30  C   UNL     1       0.568  14.179  18.653  0.00  0.00    +0.000 C 
ATOM     31  C   UNL     1       1.545  15.325  18.918  0.00  0.00    +0.000 C 
ATOM     32  N   UNL     1       2.766  15.182  18.113  0.00  0.00    +0.000 NA
ATOM     33  C   UNL     1       3.688  16.288  18.383  0.00  0.00    +0.000 C 
ATOM     34  C   UNL     1       3.437  13.891  18.336  0.00  0.00    +0.000 C 
ATOM     35  C   UNL     1       2.504  12.719  18.029  0.00  0.00    +0.000 C 
ENDBRANCH  28  29
ENDBRANCH   3  28
TORSDOF 6
ENDMDL
MODEL 4
REMARK VINA RESULT:      -6.9      1.257      1.620
REMARK  Name = 
REMARK  9 active torsions:
REMARK  status: ('A' for Active; 'I' for Inactive)
REMARK    1  A    between atoms: C_1  and  C_2
REMARK    2  A    between atoms: C_2  and  C_3
REMARK    3  A    between atoms: C_2  and  C_4
REMARK    4  A    between atoms: C_4  and  O_5
REMARK    5  A    between atoms: O_5  and  C_6
REMARK    6  A    between atoms: C_8  and  O_9
REMARK    7  A    between atoms: O_9  and  C_10
REMARK    8  A    between atoms: N_13  and  C_14
REMARK    9  A    between atoms: N_19  and  C_20
REMARK                            x       y       z     vdW  Elec       q    Type
REMARK                         _______ _______ _______ _____ _____    ______ ____
ROOT
ATOM      1  C   UNL     1       1.651   8.401  19.534  0.00  0.00    +0.000 A 
ATOM      2  C   UNL     1       1.513   9.626  18.905  0.00  0.00    +0.000 A 
ATOM      3  C   UNL     1       0.666  10.621  19.404  0.00  0.00    +0.000 A 
ATOM      4  C   UNL     1       0.108  10.479  20.705  0.00  0.00    +0.000 A 
ATOM      5  C   UNL     1      -0.709  11.402  21.408  0.00  0.00    +0.000 A 
ATOM      6  N   UNL     1      -1.218  12.556  20.764  0.00  0.00    +0.000 N 
ATOM      7  N   UNL     1      -1.069  11.200  22.690  0.00  0.00    +0.000 NA
ATOM      8  C   UNL     1      -0.712  10.044  23.255  0.00  0.00    +0.000 A 
ATOM      9  N   UNL     1      -0.035   9.064  22.656  0.00  0.00    +0.000 NA
ATOM     10  C   UNL     1       0.374   9.283  21.406  0.00  0.00    +0.000 A 
ATOM     11  C   UNL     1       1.083   8.253  20.792  0.00  0.00    +0.000 A 
ATOM     12  H   UNL     1      -0.475  13.077  20.307  0.00  0.00    +0.000 HD
ENDROOT
BRANCH   6  13
ATOM     13  C   UNL     1      -2.302  13.349  21.206  0.00  0.00    +0.000 A 
ATOM     14  C   UNL     1      -2.139  14.386  22.148  0.00  0.00    +0.000 A 
ATOM     15 CL   UNL     1      -0.571  14.761  22.779  0.00  0.00    +0.000 Cl
ATOM     16  C   UNL     1      -3.233  15.152  22.609  0.00  0.00    +0.000 A 
ATOM     17  C   UNL     1      -4.524  14.902  22.139  0.00  0.00    +0.000 A 
ATOM     18  C   UNL     1      -4.674  13.906  21.201  0.00  0.00    +0.000 A 
ATOM     19  C   UNL     1      -3.604  13.165  20.739  0.00  0.00    +0.000 A 
ATOM     20  O   UNL     1      -3.992  12.298  19.755  0.00  0.00    +0.000 OA
ATOM     21  C   UNL     1      -5.407  12.530  19.706  0.00  0.00    +0.000 C 
ATOM     22  O   UNL     1      -5.851  13.557  20.615  0.00  0.00    +0.000 OA
ENDBRANCH   6  13
BRANCH   1  23
ATOM     23  O   UNL     1       2.317   7.326  18.992  0.00  0.00    +0.000 OA
BRANCH  23  24
ATOM     24  C   UNL     1       3.180   7.650  17.889  0.00  0.00    +0.000 C 
BRANCH  24  26
ATOM     25  C   UNL     1       3.563   5.163  17.603  0.00  0.00    +0.000 C 
ATOM     26  C   UNL     1       4.205   6.548  17.602  0.00  0.00    +0.000 C 
ATOM     27  C   UNL     1       4.872   6.820  16.249  0.00  0.00    +0.000 C 
ENDBRANCH  24  26
ENDBRANCH  23  24
ENDBRANCH   1  23
BRANCH   3  28
ATOM     28  O   UNL     1       0.412  11.759  18.662  0.00  0.00    +0.000 OA
BRANCH  28  29
ATOM     29  C   UNL     1       1.315  12.855  18.897  0.00  0.00    +0.000 C 
ATOM     30  C   UNL     1       0.607  14.187  18.675  0.00  0.00    +0.000 C 
ATOM     31  C   UNL     1       1.578  15.333  18.961  0.00  0.00    +0.000 C 
ATOM     32  N   UNL     1       2.797  15.214  18.149  0.00  0.00    +0.000 NA
ATOM     33  C   UNL     1       3.713  16.319  18.439  0.00  0.00    +0.000 C 
ATOM     34  C   UNL     1       3.476  13.923  18.343  0.00  0.00    +0.000 C 
ATOM     35  C   UNL     1       2.549  12.752  18.014  0.00  0.00    +0.000 C 
ENDBRANCH  28  29
ENDBRANCH   3  28
TORSDOF 6
ENDMDL
MODEL 5
REMARK VINA RESULT:      -6.9      1.223      1.471
REMARK  Name = 
REMARK  9 active torsions:
REMARK  status: ('A' for Active; 'I' for Inactive)
REMARK    1  A    between atoms: C_1  and  C_2
REMARK    2  A    between atoms: C_2  and  C_3
REMARK    3  A    between atoms: C_2  and  C_4
REMARK    4  A    between atoms: C_4  and  O_5
REMARK    5  A    between atoms: O_5  and  C_6
REMARK    6  A    between atoms: C_8  and  O_9
REMARK    7  A    between atoms: O_9  and  C_10
REMARK    8  A    between atoms: N_13  and  C_14
REMARK    9  A    between atoms: N_19  and  C_20
REMARK                            x       y       z     vdW  Elec       q    Type
REMARK                         _______ _______ _______ _____ _____    ______ ____
ROOT
ATOM      1  C   UNL     1       0.953   9.834  18.846  0.00  0.00    +0.000 A 
ATOM      2  C   UNL     1       0.984  11.213  18.735  0.00  0.00    +0.000 A 
ATOM      3  C   UNL     1       0.392  12.044  19.691  0.00  0.00    +0.000 A 
ATOM      4  C   UNL     1      -0.050  11.490  20.925  0.00  0.00    +0.000 A 
ATOM      5  C   UNL     1      -0.605  12.172  22.038  0.00  0.00    +0.000 A 
ATOM      6  N   UNL     1      -0.953  13.542  21.948  0.00  0.00    +0.000 N 
ATOM      7  N   UNL     1      -0.867  11.544  23.200  0.00  0.00    +0.000 NA
ATOM      8  C   UNL     1      -0.676  10.222  23.241  0.00  0.00    +0.000 A 
ATOM      9  N   UNL     1      -0.258   9.466  22.226  0.00  0.00    +0.000 NA
ATOM     10  C   UNL     1       0.057  10.092  21.092  0.00  0.00    +0.000 A 
ATOM     11  C   UNL     1       0.497   9.292  20.039  0.00  0.00    +0.000 A 
ATOM     12  H   UNL     1      -0.175  14.094  21.596  0.00  0.00    +0.000 HD
ENDROOT
BRANCH   6  13
ATOM     13  C   UNL     1      -1.820  14.243  22.818  0.00  0.00    +0.000 A 
ATOM     14  C   UNL     1      -1.388  15.352  23.575  0.00  0.00    +0.000 A 
ATOM     15 CL   UNL     1       0.235  15.934  23.435  0.00  0.00    +0.000 Cl
ATOM     16  C   UNL     1      -2.253  16.026  24.467  0.00  0.00    +0.000 A 
ATOM     17  C   UNL     1      -3.576  15.609  24.626  0.00  0.00    +0.000 A 
ATOM     18  C   UNL     1      -3.999  14.542  23.865  0.00  0.00    +0.000 A 
ATOM     19  C   UNL     1      -3.159  13.890  22.984  0.00  0.00    +0.000 A 
ATOM     20  O   UNL     1      -3.830  12.923  22.287  0.00  0.00    +0.000 OA
ATOM     21  C   UNL     1      -5.139  12.999  22.872  0.00  0.00    +0.000 C 
ATOM     22  O   UNL     1      -5.260  14.032  23.871  0.00  0.00    +0.000 OA
ENDBRANCH   6  13
BRANCH   1  23
ATOM     23  O   UNL     1       1.350   8.971  17.850  0.00  0.00    +0.000 OA
BRANCH  23  24
ATOM     24  C   UNL     1       2.703   8.500  17.970  0.00  0.00    +0.000 C 
BRANCH  24  26
ATOM     25  C   UNL     1       4.104   6.462  17.423  0.00  0.00    +0.000 C 
ATOM     26  C   UNL     1       2.791   6.970  18.013  0.00  0.00    +0.000 C 
ATOM     27  C   UNL     1       2.645   6.498  19.464  0.00  0.00    +0.000 C 
ENDBRANCH  24  26
ENDBRANCH  23  24
ENDBRANCH   1  23
BRANCH   3  28
ATOM     28  O   UNL     1       0.281  13.403  19.464  0.00  0.00    +0.000 OA
BRANCH  28  29
ATOM     29  C   UNL     1       1.521  14.077  19.182  0.00  0.00    +0.000 C 
ATOM     30  C   UNL     1       2.425  14.067  20.411  0.00  0.00    +0.000 C 
ATOM     31  C   UNL     1       3.745  14.761  20.076  0.00  0.00    +0.000 C 
ATOM     32  N   UNL     1       3.519  16.122  19.569  0.00  0.00    +0.000 NA
ATOM     33  C   UNL     1       4.795  16.768  19.253  0.00  0.00    +0.000 C 
ATOM     34  C   UNL     1       2.632  16.143  18.395  0.00  0.00    +0.000 C 
ATOM     35  C   UNL     1       1.278  15.502  18.709  0.00  0.00    +0.000 C 
ENDBRANCH  28  29
ENDBRANCH   3  28
TORSDOF 6
ENDMDL
MODEL 6
REMARK VINA RESULT:      -6.8      0.753      1.119
REMARK  Name = 
REMARK  9 active torsions:
REMARK  status: ('A' for Active; 'I' for Inactive)
REMARK    1  A    between atoms: C_1  and  C_2
REMARK    2  A    between atoms: C_2  and  C_3
REMARK    3  A    between atoms: C_2  and  C_4
REMARK    4  A    between atoms: C_4  and  O_5
REMARK    5  A    between atoms: O_5  and  C_6
REMARK    6  A    between atoms: C_8  and  O_9
REMARK    7  A    between atoms: O_9  and  C_10
REMARK    8  A    between atoms: N_13  and  C_14
REMARK    9  A    between atoms: N_19  and  C_20
REMARK                            x       y       z     vdW  Elec       q    Type
REMARK                         _______ _______ _______ _____ _____    ______ ____
ROOT
ATOM      1  C   UNL     1       1.631   9.141  18.935  0.00  0.00    +0.000 A 
ATOM      2  C   UNL     1       1.264  10.427  18.584  0.00  0.00    +0.000 A 
ATOM      3  C   UNL     1       0.352  11.168  19.342  0.00  0.00    +0.000 A 
ATOM      4  C   UNL     1      -0.037  10.697  20.628  0.00  0.00    +0.000 A 
ATOM      5  C   UNL     1      -0.887  11.333  21.569  0.00  0.00    +0.000 A 
ATOM      6  N   UNL     1      -1.613  12.497  21.218  0.00  0.00    +0.000 N 
ATOM      7  N   UNL     1      -1.075  10.837  22.806  0.00  0.00    +0.000 NA
ATOM      8  C   UNL     1      -0.507   9.662  23.092  0.00  0.00    +0.000 A 
ATOM      9  N   UNL     1       0.224   8.929  22.252  0.00  0.00    +0.000 NA
ATOM     10  C   UNL     1       0.461   9.444  21.045  0.00  0.00    +0.000 A 
ATOM     11  C   UNL     1       1.230   8.670  20.177  0.00  0.00    +0.000 A 
ATOM     12  H   UNL     1      -1.001  13.203  20.819  0.00  0.00    +0.000 HD
ENDROOT
BRANCH   6  13
ATOM     13  C   UNL     1      -2.738  13.017  21.899  0.00  0.00    +0.000 A 
ATOM     14  C   UNL     1      -2.613  13.803  23.064  0.00  0.00    +0.000 A 
ATOM     15 CL   UNL     1      -1.051  14.203  23.691  0.00  0.00    +0.000 Cl
ATOM     16  C   UNL     1      -3.745  14.290  23.757  0.00  0.00    +0.000 A 
ATOM     17  C   UNL     1      -5.033  14.005  23.303  0.00  0.00    +0.000 A 
ATOM     18  C   UNL     1      -5.149  13.260  22.151  0.00  0.00    +0.000 A 
ATOM     19  C   UNL     1      -4.045  12.793  21.465  0.00  0.00    +0.000 A 
ATOM     20  O   UNL     1      -4.414  12.153  20.314  0.00  0.00    +0.000 OA
ATOM     21  C   UNL     1      -5.845  12.213  20.395  0.00  0.00    +0.000 C 
ATOM     22  O   UNL     1      -6.324  12.922  21.555  0.00  0.00    +0.000 OA
ENDBRANCH   6  13
BRANCH   1  23
ATOM     23  O   UNL     1       2.372   8.303  18.132  0.00  0.00    +0.000 OA
BRANCH  23  24
ATOM     24  C   UNL     1       2.135   6.902  18.349  0.00  0.00    +0.000 C 
BRANCH  24  26
ATOM     25  C   UNL     1       3.327   5.310  19.916  0.00  0.00    +0.000 C 
ATOM     26  C   UNL     1       3.425   6.124  18.629  0.00  0.00    +0.000 C 
ATOM     27  C   UNL     1       3.725   5.202  17.442  0.00  0.00    +0.000 C 
ENDBRANCH  24  26
ENDBRANCH  23  24
ENDBRANCH   1  23
BRANCH   3  28
ATOM     28  O   UNL     1      -0.131  12.374  18.872  0.00  0.00    +0.000 OA
BRANCH  28  29
ATOM     29  C   UNL     1       0.730  13.506  19.098  0.00  0.00    +0.000 C 
ATOM     30  C   UNL     1      -0.046  14.808  18.930  0.00  0.00    +0.000 C 
ATOM     31  C   UNL     1       0.882  15.992  19.205  0.00  0.00    +0.000 C 
ATOM     32  N   UNL     1       2.075  15.945  18.347  0.00  0.00    +0.000 NA
ATOM     33  C   UNL     1       2.950  17.085  18.628  0.00  0.00    +0.000 C 
ATOM     34  C   UNL     1       2.819  14.683  18.489  0.00  0.00    +0.000 C 
ATOM     35  C   UNL     1       1.933  13.477  18.169  0.00  0.00    +0.000 C 
ENDBRANCH  28  29
ENDBRANCH   3  28
TORSDOF 6
ENDMDL
MODEL 7
REMARK VINA RESULT:      -6.8      1.961      2.609
REMARK  Name = 
REMARK  9 active torsions:
REMARK  status: ('A' for Active; 'I' for Inactive)
REMARK    1  A    between atoms: C_1  and  C_2
REMARK    2  A    between atoms: C_2  and  C_3
REMARK    3  A    between atoms: C_2  and  C_4
REMARK    4  A    between atoms: C_4  and  O_5
REMARK    5  A    between atoms: O_5  and  C_6
REMARK    6  A    between atoms: C_8  and  O_9
REMARK    7  A    between atoms: O_9  and  C_10
REMARK    8  A    between atoms: N_13  and  C_14
REMARK    9  A    between atoms: N_19  and  C_20
REMARK                            x       y       z     vdW  Elec       q    Type
REMARK                         _______ _______ _______ _____ _____    ______ ____
ROOT
ATOM      1  C   UNL     1       1.661   8.504  19.289  0.00  0.00    +0.000 A 
ATOM      2  C   UNL     1       1.483   9.769  18.760  0.00  0.00    +0.000 A 
ATOM      3  C   UNL     1       0.708  10.738  19.406  0.00  0.00    +0.000 A 
ATOM      4  C   UNL     1       0.280  10.515  20.745  0.00  0.00    +0.000 A 
ATOM      5  C   UNL     1      -0.446  11.397  21.586  0.00  0.00    +0.000 A 
ATOM      6  N   UNL     1      -0.996  12.597  21.074  0.00  0.00    +0.000 N 
ATOM      7  N   UNL     1      -0.681  11.113  22.881  0.00  0.00    +0.000 NA
ATOM      8  C   UNL     1      -0.290   9.917  23.329  0.00  0.00    +0.000 A 
ATOM      9  N   UNL     1       0.306   8.972  22.602  0.00  0.00    +0.000 NA
ATOM     10  C   UNL     1       0.592   9.271  21.335  0.00  0.00    +0.000 A 
ATOM     11  C   UNL     1       1.219   8.277  20.585  0.00  0.00    +0.000 A 
ATOM     12  H   UNL     1      -0.293  13.140  20.580  0.00  0.00    +0.000 HD
ENDROOT
BRANCH   6  13
ATOM     13  C   UNL     1      -2.017  13.371  21.674  0.00  0.00    +0.000 A 
ATOM     14  C   UNL     1      -3.346  13.355  21.201  0.00  0.00    +0.000 A 
ATOM     15 CL   UNL     1      -3.796  12.340  19.874  0.00  0.00    +0.000 Cl
ATOM     16  C   UNL     1      -4.353  14.157  21.785  0.00  0.00    +0.000 A 
ATOM     17  C   UNL     1      -4.057  14.998  22.860  0.00  0.00    +0.000 A 
ATOM     18  C   UNL     1      -2.765  14.990  23.333  0.00  0.00    +0.000 A 
ATOM     19  C   UNL     1      -1.782  14.198  22.772  0.00  0.00    +0.000 A 
ATOM     20  O   UNL     1      -0.609  14.302  23.466  0.00  0.00    +0.000 OA
ATOM     21  C   UNL     1      -0.945  15.280  24.461  0.00  0.00    +0.000 C 
ATOM     22  O   UNL     1      -2.317  15.718  24.391  0.00  0.00    +0.000 OA
ENDBRANCH   6  13
BRANCH   1  23
ATOM     23  O   UNL     1       2.251   7.460  18.614  0.00  0.00    +0.000 OA
BRANCH  23  24
ATOM     24  C   UNL     1       3.329   7.843  17.743  0.00  0.00    +0.000 C 
BRANCH  24  26
ATOM     25  C   UNL     1       3.780   5.355  17.886  0.00  0.00    +0.000 C 
ATOM     26  C   UNL     1       4.366   6.728  17.567  0.00  0.00    +0.000 C 
ATOM     27  C   UNL     1       4.896   6.756  16.130  0.00  0.00    +0.000 C 
ENDBRANCH  24  26
ENDBRANCH  23  24
ENDBRANCH   1  23
BRANCH   3  28
ATOM     28  O   UNL     1       0.402  11.926  18.770  0.00  0.00    +0.000 OA
BRANCH  28  29
ATOM     29  C   UNL     1       1.352  12.989  18.973  0.00  0.00    +0.000 C 
ATOM     30  C   UNL     1       0.676  14.346  18.807  0.00  0.00    +0.000 C 
ATOM     31  C   UNL     1       1.698  15.456  19.058  0.00  0.00    +0.000 C 
ATOM     32  N   UNL     1       2.869  15.311  18.181  0.00  0.00    +0.000 NA
ATOM     33  C   UNL     1       3.834  16.382  18.438  0.00  0.00    +0.000 C 
ATOM     34  C   UNL     1       3.515  13.996  18.321  0.00  0.00    +0.000 C 
ATOM     35  C   UNL     1       2.534  12.860  18.025  0.00  0.00    +0.000 C 
ENDBRANCH  28  29
ENDBRANCH   3  28
TORSDOF 6
ENDMDL
MODEL 8
REMARK VINA RESULT:      -6.6      1.256      1.488
REMARK  Name = 
REMARK  9 active torsions:
REMARK  status: ('A' for Active; 'I' for Inactive)
REMARK    1  A    between atoms: C_1  and  C_2
REMARK    2  A    between atoms: C_2  and  C_3
REMARK    3  A    between atoms: C_2  and  C_4
REMARK    4  A    between atoms: C_4  and  O_5
REMARK    5  A    between atoms: O_5  and  C_6
REMARK    6  A    between atoms: C_8  and  O_9
REMARK    7  A    between atoms: O_9  and  C_10
REMARK    8  A    between atoms: N_13  and  C_14
REMARK    9  A    between atoms: N_19  and  C_20
REMARK                            x       y       z     vdW  Elec       q    Type
REMARK                         _______ _______ _______ _____ _____    ______ ____
ROOT
ATOM      1  C   UNL     1       1.424   8.950  18.857  0.00  0.00    +0.000 A 
ATOM      2  C   UNL     1       1.331  10.282  18.495  0.00  0.00    +0.000 A 
ATOM      3  C   UNL     1       0.671  11.221  19.295  0.00  0.00    +0.000 A 
ATOM      4  C   UNL     1       0.285  10.866  20.618  0.00  0.00    +0.000 A 
ATOM      5  C   UNL     1      -0.326  11.691  21.598  0.00  0.00    +0.000 A 
ATOM      6  N   UNL     1      -0.794  12.985  21.266  0.00  0.00    +0.000 N 
ATOM      7  N   UNL     1      -0.526  11.266  22.860  0.00  0.00    +0.000 NA
ATOM      8  C   UNL     1      -0.219   9.997  23.139  0.00  0.00    +0.000 A 
ATOM      9  N   UNL     1       0.262   9.106  22.271  0.00  0.00    +0.000 NA
ATOM     10  C   UNL     1       0.516   9.538  21.036  0.00  0.00    +0.000 A 
ATOM     11  C   UNL     1       1.022   8.599  20.138  0.00  0.00    +0.000 A 
ATOM     12  H   UNL     1      -0.070  13.529  20.804  0.00  0.00    +0.000 HD
ENDROOT
BRANCH   6  13
ATOM     13  C   UNL     1      -1.717  13.756  22.010  0.00  0.00    +0.000 A 
ATOM     14  C   UNL     1      -1.317  14.864  22.786  0.00  0.00    +0.000 A 
ATOM     15 CL   UNL     1       0.342  15.358  22.824  0.00  0.00    +0.000 Cl
ATOM     16  C   UNL     1      -2.242  15.609  23.552  0.00  0.00    +0.000 A 
ATOM     17  C   UNL     1      -3.594  15.265  23.564  0.00  0.00    +0.000 A 
ATOM     18  C   UNL     1      -3.984  14.199  22.785  0.00  0.00    +0.000 A 
ATOM     19  C   UNL     1      -3.084  13.478  22.025  0.00  0.00    +0.000 A 
ATOM     20  O   UNL     1      -3.721  12.526  21.279  0.00  0.00    +0.000 OA
ATOM     21  C   UNL     1      -5.082  12.687  21.703  0.00  0.00    +0.000 C 
ATOM     22  O   UNL     1      -5.262  13.754  22.655  0.00  0.00    +0.000 OA
ENDBRANCH   6  13
BRANCH   1  23
ATOM     23  O   UNL     1       1.892   7.956  18.029  0.00  0.00    +0.000 OA
BRANCH  23  24
ATOM     24  C   UNL     1       3.304   8.012  17.765  0.00  0.00    +0.000 C 
BRANCH  24  26
ATOM     25  C   UNL     1       5.397   6.703  17.199  0.00  0.00    +0.000 C 
ATOM     26  C   UNL     1       3.927   6.621  17.603  0.00  0.00    +0.000 C 
ATOM     27  C   UNL     1       3.782   5.848  18.918  0.00  0.00    +0.000 C 
ENDBRANCH  24  26
ENDBRANCH  23  24
ENDBRANCH   1  23
BRANCH   3  28
ATOM     28  O   UNL     1       0.439  12.499  18.826  0.00  0.00    +0.000 OA
BRANCH  28  29
ATOM     29  C   UNL     1       1.515  13.432  19.037  0.00  0.00    +0.000 C 
ATOM     30  C   UNL     1       0.996  14.865  18.992  0.00  0.00    +0.000 C 
ATOM     31  C   UNL     1       2.152  15.832  19.251  0.00  0.00    +0.000 C 
ATOM     32  N   UNL     1       3.253  15.614  18.302  0.00  0.00    +0.000 NA
ATOM     33  C   UNL     1       4.349  16.549  18.567  0.00  0.00    +0.000 C 
ATOM     34  C   UNL     1       3.746  14.228  18.325  0.00  0.00    +0.000 C 
ATOM     35  C   UNL     1       2.626  13.233  18.017  0.00  0.00    +0.000 C 
ENDBRANCH  28  29
ENDBRANCH   3  28
TORSDOF 6
ENDMDL
MODEL 9
REMARK VINA RESULT:      -6.6      1.361      1.424
REMARK  Name = 
REMARK  9 active torsions:
REMARK  status: ('A' for Active; 'I' for Inactive)
REMARK    1  A    between atoms: C_1  and  C_2
REMARK    2  A    between atoms: C_2  and  C_3
REMARK    3  A    between atoms: C_2  and  C_4
REMARK    4  A    between atoms: C_4  and  O_5
REMARK    5  A    between atoms: O_5  and  C_6
REMARK    6  A    between atoms: C_8  and  O_9
REMARK    7  A    between atoms: O_9  and  C_10
REMARK    8  A    between atoms: N_13  and  C_14
REMARK    9  A    between atoms: N_19  and  C_20
REMARK                            x       y       z     vdW  Elec       q    Type
REMARK                         _______ _______ _______ _____ _____    ______ ____
ROOT
ATOM      1  C   UNL     1       1.880   8.536  19.440  0.00  0.00    +0.000 A 
ATOM      2  C   UNL     1       1.836   9.836  18.969  0.00  0.00    +0.000 A 
ATOM      3  C   UNL     1       0.978  10.793  19.521  0.00  0.00    +0.000 A 
ATOM      4  C   UNL     1       0.300  10.508  20.740  0.00  0.00    +0.000 A 
ATOM      5  C   UNL     1      -0.549  11.365  21.486  0.00  0.00    +0.000 A 
ATOM      6  N   UNL     1      -0.963  12.612  20.959  0.00  0.00    +0.000 N 
ATOM      7  N   UNL     1      -1.029  11.014  22.694  0.00  0.00    +0.000 NA
ATOM      8  C   UNL     1      -0.759   9.781  23.129  0.00  0.00    +0.000 A 
ATOM      9  N   UNL     1      -0.061   8.859  22.466  0.00  0.00    +0.000 NA
ATOM     10  C   UNL     1       0.466   9.221  21.296  0.00  0.00    +0.000 A 
ATOM     11  C   UNL     1       1.197   8.251  20.614  0.00  0.00    +0.000 A 
ATOM     12  H   UNL     1      -0.167  13.157  20.640  0.00  0.00    +0.000 HD
ENDROOT
BRANCH   6  13
ATOM     13  C   UNL     1      -2.059  13.386  21.407  0.00  0.00    +0.000 A 
ATOM     14  C   UNL     1      -1.914  14.401  22.377  0.00  0.00    +0.000 A 
ATOM     15 CL   UNL     1      -0.358  14.772  23.035  0.00  0.00    +0.000 Cl
ATOM     16  C   UNL     1      -3.020  15.146  22.843  0.00  0.00    +0.000 A 
ATOM     17  C   UNL     1      -4.303  14.898  22.352  0.00  0.00    +0.000 A 
ATOM     18  C   UNL     1      -4.434  13.925  21.388  0.00  0.00    +0.000 A 
ATOM     19  C   UNL     1      -3.353  13.203  20.921  0.00  0.00    +0.000 A 
ATOM     20  O   UNL     1      -3.723  12.358  19.911  0.00  0.00    +0.000 OA
ATOM     21  C   UNL     1      -5.139  12.581  19.851  0.00  0.00    +0.000 C 
ATOM     22  O   UNL     1      -5.601  13.581  20.780  0.00  0.00    +0.000 OA
ENDBRANCH   6  13
BRANCH   1  23
ATOM     23  O   UNL     1       2.561   7.513  18.820  0.00  0.00    +0.000 OA
BRANCH  23  24
ATOM     24  C   UNL     1       2.251   6.201  19.317  0.00  0.00    +0.000 C 
BRANCH  24  26
ATOM     25  C   UNL     1       3.512   4.837  17.596  0.00  0.00    +0.000 C 
ATOM     26  C   UNL     1       2.147   5.158  18.198  0.00  0.00    +0.000 C 
ATOM     27  C   UNL     1       1.502   3.885  18.755  0.00  0.00    +0.000 C 
ENDBRANCH  24  26
ENDBRANCH  23  24
ENDBRANCH   1  23
BRANCH   3  28
ATOM     28  O   UNL     1       0.825  12.027  18.917  0.00  0.00    +0.000 OA
BRANCH  28  29
ATOM     29  C   UNL     1       2.003  12.854  18.915  0.00  0.00    +0.000 C 
ATOM     30  C   UNL     1       2.274  13.400  20.314  0.00  0.00    +0.000 C 
ATOM     31  C   UNL     1       3.546  14.248  20.291  0.00  0.00    +0.000 C 
ATOM     32  N   UNL     1       3.454  15.320  19.289  0.00  0.00    +0.000 NA
ATOM     33  C   UNL     1       4.681  16.119  19.283  0.00  0.00    +0.000 C 
ATOM     34  C   UNL     1       3.173  14.804  17.940  0.00  0.00    +0.000 C 
ATOM     35  C   UNL     1       1.876  13.992  17.914  0.00  0.00    +0.000 C 
ENDBRANCH  28  29
ENDBRANCH   3  28
TORSDOF 6
ENDMDL
