MODEL 1
REMARK VINA RESULT:      -7.9      0.000      0.000
REMARK  Name = 
REMARK  2 active torsions:
REMARK  status: ('A' for Active; 'I' for Inactive)
REMARK    1  A    between atoms: C_4  and  C_5
REMARK    2  A    between atoms: C_17  and  O_18
REMARK                            x       y       z     vdW  Elec       q    Type
REMARK                         _______ _______ _______ _____ _____    ______ ____
ROOT
ATOM      1  O   UNL     1       7.633   6.393  16.198  0.00  0.00    +0.000 OA
ATOM      2  C   UNL     1       6.734   5.627  15.882  0.00  0.00    +0.000 A 
ATOM      3  C   UNL     1       5.662   5.354  16.856  0.00  0.00    +0.000 A 
ATOM      4  C   UNL     1       4.670   4.522  16.522  0.00  0.00    +0.000 A 
ATOM      5  O   UNL     1       4.550   3.880  15.308  0.00  0.00    +0.000 OA
ATOM      6  C   UNL     1       5.522   4.106  14.361  0.00  0.00    +0.000 A 
ATOM      7  C   UNL     1       5.358   3.446  13.140  0.00  0.00    +0.000 A 
ATOM      8  C   UNL     1       6.295   3.617  12.123  0.00  0.00    +0.000 A 
ATOM      9  C   UNL     1       7.402   4.442  12.325  0.00  0.00    +0.000 A 
ATOM     10  C   UNL     1       7.566   5.103  13.546  0.00  0.00    +0.000 A 
ATOM     11  C   UNL     1       6.625   4.942  14.572  0.00  0.00    +0.000 A 
ENDROOT
BRANCH   4  12
ATOM     12  C   UNL     1       3.597   4.243  17.480  0.00  0.00    +0.000 A 
ATOM     13  C   UNL     1       2.841   3.068  17.371  0.00  0.00    +0.000 A 
ATOM     14  C   UNL     1       1.779   2.827  18.244  0.00  0.00    +0.000 A 
ATOM     15  C   UNL     1       1.465   3.760  19.233  0.00  0.00    +0.000 A 
ATOM     16  C   UNL     1       2.218   4.927  19.346  0.00  0.00    +0.000 A 
ATOM     17 CL   UNL     1       1.823   6.080  20.561  0.00  0.00    +0.000 Cl
ATOM     18  C   UNL     1       3.283   5.174  18.479  0.00  0.00    +0.000 A 
ENDBRANCH   4  12
BRANCH  10  19
ATOM     19  O   UNL     1       8.660   5.902  13.716  0.00  0.00    +0.000 OA
ATOM     20  H   UNL     1       9.039   6.150  12.859  0.00  0.00    +0.000 HD
ENDBRANCH  10  19
TORSDOF 2
ENDMDL
MODEL 2
REMARK VINA RESULT:      -7.9      1.132      1.585
REMARK  Name = 
REMARK  2 active torsions:
REMARK  status: ('A' for Active; 'I' for Inactive)
REMARK    1  A    between atoms: C_4  and  C_5
REMARK    2  A    between atoms: C_17  and  O_18
REMARK                            x       y       z     vdW  Elec       q    Type
REMARK                         _______ _______ _______ _____ _____    ______ ____
ROOT
ATOM      1  O   UNL     1       7.735   6.567  16.204  0.00  0.00    +0.000 OA
ATOM      2  C   UNL     1       6.782   5.828  15.999  0.00  0.00    +0.000 A 
ATOM      3  C   UNL     1       5.755   5.692  17.046  0.00  0.00    +0.000 A 
ATOM      4  C   UNL     1       4.705   4.891  16.833  0.00  0.00    +0.000 A 
ATOM      5  O   UNL     1       4.487   4.161  15.684  0.00  0.00    +0.000 OA
ATOM      6  C   UNL     1       5.415   4.258  14.673  0.00  0.00    +0.000 A 
ATOM      7  C   UNL     1       5.151   3.512  13.521  0.00  0.00    +0.000 A 
ATOM      8  C   UNL     1       6.038   3.550  12.447  0.00  0.00    +0.000 A 
ATOM      9  C   UNL     1       7.193   4.328  12.523  0.00  0.00    +0.000 A 
ATOM     10  C   UNL     1       7.458   5.075  13.675  0.00  0.00    +0.000 A 
ATOM     11  C   UNL     1       6.567   5.048  14.758  0.00  0.00    +0.000 A 
ENDROOT
BRANCH   4  12
ATOM     12  C   UNL     1       3.674   4.748  17.865  0.00  0.00    +0.000 A 
ATOM     13  C   UNL     1       3.672   5.595  18.982  0.00  0.00    +0.000 A 
ATOM     14  C   UNL     1       2.729   5.422  19.997  0.00  0.00    +0.000 A 
ATOM     15  C   UNL     1       1.783   4.402  19.902  0.00  0.00    +0.000 A 
ATOM     16  C   UNL     1       1.780   3.562  18.790  0.00  0.00    +0.000 A 
ATOM     17 CL   UNL     1       0.617   2.299  18.681  0.00  0.00    +0.000 Cl
ATOM     18  C   UNL     1       2.718   3.729  17.771  0.00  0.00    +0.000 A 
ENDBRANCH   4  12
BRANCH  10  19
ATOM     19  O   UNL     1       8.597   5.825  13.722  0.00  0.00    +0.000 OA
ATOM     20  H   UNL     1       9.326   5.315  14.108  0.00  0.00    +0.000 HD
ENDBRANCH  10  19
TORSDOF 2
ENDMDL
MODEL 3
REMARK VINA RESULT:      -7.6      3.090      6.404
REMARK  Name = 
REMARK  2 active torsions:
REMARK  status: ('A' for Active; 'I' for Inactive)
REMARK    1  A    between atoms: C_4  and  C_5
REMARK    2  A    between atoms: C_17  and  O_18
REMARK                            x       y       z     vdW  Elec       q    Type
REMARK                         _______ _______ _______ _____ _____    ______ ____
ROOT
ATOM      1  O   UNL     1       3.927   7.541  17.763  0.00  0.00    +0.000 OA
ATOM      2  C   UNL     1       4.185   6.379  17.480  0.00  0.00    +0.000 A 
ATOM      3  C   UNL     1       4.886   6.099  16.215  0.00  0.00    +0.000 A 
ATOM      4  C   UNL     1       5.179   4.834  15.894  0.00  0.00    +0.000 A 
ATOM      5  O   UNL     1       4.880   3.733  16.668  0.00  0.00    +0.000 OA
ATOM      6  C   UNL     1       4.230   3.941  17.862  0.00  0.00    +0.000 A 
ATOM      7  C   UNL     1       3.955   2.801  18.622  0.00  0.00    +0.000 A 
ATOM      8  C   UNL     1       3.299   2.918  19.846  0.00  0.00    +0.000 A 
ATOM      9  C   UNL     1       2.911   4.175  20.311  0.00  0.00    +0.000 A 
ATOM     10  C   UNL     1       3.186   5.317  19.552  0.00  0.00    +0.000 A 
ATOM     11  C   UNL     1       3.851   5.208  18.323  0.00  0.00    +0.000 A 
ENDROOT
BRANCH   4  12
ATOM     12  C   UNL     1       5.878   4.541  14.640  0.00  0.00    +0.000 A 
ATOM     13  C   UNL     1       7.080   5.192  14.334  0.00  0.00    +0.000 A 
ATOM     14  C   UNL     1       7.717   4.961  13.113  0.00  0.00    +0.000 A 
ATOM     15  C   UNL     1       7.156   4.078  12.191  0.00  0.00    +0.000 A 
ATOM     16  C   UNL     1       5.963   3.425  12.495  0.00  0.00    +0.000 A 
ATOM     17 CL   UNL     1       5.268   2.344  11.352  0.00  0.00    +0.000 Cl
ATOM     18  C   UNL     1       5.321   3.649  13.714  0.00  0.00    +0.000 A 
ENDBRANCH   4  12
BRANCH  10  19
ATOM     19  O   UNL     1       2.791   6.532  20.031  0.00  0.00    +0.000 OA
ATOM     20  H   UNL     1       3.084   6.650  20.948  0.00  0.00    +0.000 HD
ENDBRANCH  10  19
TORSDOF 2
ENDMDL
MODEL 4
REMARK VINA RESULT:      -7.5      1.224      1.334
REMARK  Name = 
REMARK  2 active torsions:
REMARK  status: ('A' for Active; 'I' for Inactive)
REMARK    1  A    between atoms: C_4  and  C_5
REMARK    2  A    between atoms: C_17  and  O_18
REMARK                            x       y       z     vdW  Elec       q    Type
REMARK                         _______ _______ _______ _____ _____    ______ ____
ROOT
ATOM      1  O   UNL     1       7.804   6.413  16.166  0.00  0.00    +0.000 OA
ATOM      2  C   UNL     1       6.906   5.627  15.896  0.00  0.00    +0.000 A 
ATOM      3  C   UNL     1       5.892   5.331  16.923  0.00  0.00    +0.000 A 
ATOM      4  C   UNL     1       4.902   4.479  16.640  0.00  0.00    +0.000 A 
ATOM      5  O   UNL     1       4.734   3.834  15.433  0.00  0.00    +0.000 OA
ATOM      6  C   UNL     1       5.652   4.081  14.438  0.00  0.00    +0.000 A 
ATOM      7  C   UNL     1       5.440   3.417  13.226  0.00  0.00    +0.000 A 
ATOM      8  C   UNL     1       6.320   3.607  12.163  0.00  0.00    +0.000 A 
ATOM      9  C   UNL     1       7.417   4.456  12.309  0.00  0.00    +0.000 A 
ATOM     10  C   UNL     1       7.630   5.121  13.520  0.00  0.00    +0.000 A 
ATOM     11  C   UNL     1       6.745   4.940  14.593  0.00  0.00    +0.000 A 
ENDROOT
BRANCH   4  12
ATOM     12  C   UNL     1       3.886   4.177  17.652  0.00  0.00    +0.000 A 
ATOM     13  C   UNL     1       2.600   4.724  17.545  0.00  0.00    +0.000 A 
ATOM     14  C   UNL     1       1.647   4.488  18.538  0.00  0.00    +0.000 A 
ATOM     15  C   UNL     1       1.974   3.704  19.644  0.00  0.00    +0.000 A 
ATOM     16  C   UNL     1       3.251   3.155  19.750  0.00  0.00    +0.000 A 
ATOM     17 CL   UNL     1       3.654   2.196  21.121  0.00  0.00    +0.000 Cl
ATOM     18  C   UNL     1       4.208   3.385  18.761  0.00  0.00    +0.000 A 
ENDBRANCH   4  12
BRANCH  10  19
ATOM     19  O   UNL     1       8.713   5.943  13.635  0.00  0.00    +0.000 OA
ATOM     20  H   UNL     1       9.098   5.880  14.522  0.00  0.00    +0.000 HD
ENDBRANCH  10  19
TORSDOF 2
ENDMDL
MODEL 5
REMARK VINA RESULT:      -7.5      3.537      5.459
REMARK  Name = 
REMARK  2 active torsions:
REMARK  status: ('A' for Active; 'I' for Inactive)
REMARK    1  A    between atoms: C_4  and  C_5
REMARK    2  A    between atoms: C_17  and  O_18
REMARK                            x       y       z     vdW  Elec       q    Type
REMARK                         _______ _______ _______ _____ _____    ______ ____
ROOT
ATOM      1  O   UNL     1       2.928   3.619  20.117  0.00  0.00    +0.000 OA
ATOM      2  C   UNL     1       3.018   4.687  19.527  0.00  0.00    +0.000 A 
ATOM      3  C   UNL     1       2.264   5.844  20.039  0.00  0.00    +0.000 A 
ATOM      4  C   UNL     1       2.356   7.019  19.407  0.00  0.00    +0.000 A 
ATOM      5  O   UNL     1       3.123   7.255  18.286  0.00  0.00    +0.000 OA
ATOM      6  C   UNL     1       3.851   6.208  17.771  0.00  0.00    +0.000 A 
ATOM      7  C   UNL     1       4.624   6.492  16.642  0.00  0.00    +0.000 A 
ATOM      8  C   UNL     1       5.394   5.490  16.053  0.00  0.00    +0.000 A 
ATOM      9  C   UNL     1       5.389   4.202  16.587  0.00  0.00    +0.000 A 
ATOM     10  C   UNL     1       4.617   3.917  17.718  0.00  0.00    +0.000 A 
ATOM     11  C   UNL     1       3.845   4.920  18.320  0.00  0.00    +0.000 A 
ENDROOT
BRANCH   4  12
ATOM     12  C   UNL     1       1.613   8.178  19.907  0.00  0.00    +0.000 A 
ATOM     13  C   UNL     1       1.342   9.261  19.059  0.00  0.00    +0.000 A 
ATOM     14  C   UNL     1       0.687  10.394  19.547  0.00  0.00    +0.000 A 
ATOM     15  C   UNL     1       0.299  10.451  20.886  0.00  0.00    +0.000 A 
ATOM     16  C   UNL     1       0.563   9.373  21.729  0.00  0.00    +0.000 A 
ATOM     17 CL   UNL     1       0.091   9.451  23.382  0.00  0.00    +0.000 Cl
ATOM     18  C   UNL     1       1.215   8.237  21.249  0.00  0.00    +0.000 A 
ENDBRANCH   4  12
BRANCH  10  19
ATOM     19  O   UNL     1       4.630   2.647  18.216  0.00  0.00    +0.000 OA
ATOM     20  H   UNL     1       3.837   2.480  18.748  0.00  0.00    +0.000 HD
ENDBRANCH  10  19
TORSDOF 2
ENDMDL
MODEL 6
REMARK VINA RESULT:      -7.4      3.119      6.647
REMARK  Name = 
REMARK  2 active torsions:
REMARK  status: ('A' for Active; 'I' for Inactive)
REMARK    1  A    between atoms: C_4  and  C_5
REMARK    2  A    between atoms: C_17  and  O_18
REMARK                            x       y       z     vdW  Elec       q    Type
REMARK                         _______ _______ _______ _____ _____    ______ ____
ROOT
ATOM      1  O   UNL     1       2.806   7.092  19.088  0.00  0.00    +0.000 OA
ATOM      2  C   UNL     1       3.090   6.001  18.613  0.00  0.00    +0.000 A 
ATOM      3  C   UNL     1       4.064   5.942  17.509  0.00  0.00    +0.000 A 
ATOM      4  C   UNL     1       4.388   4.755  16.984  0.00  0.00    +0.000 A 
ATOM      5  O   UNL     1       3.881   3.542  17.398  0.00  0.00    +0.000 OA
ATOM      6  C   UNL     1       2.971   3.542  18.430  0.00  0.00    +0.000 A 
ATOM      7  C   UNL     1       2.491   2.291  18.828  0.00  0.00    +0.000 A 
ATOM      8  C   UNL     1       1.566   2.197  19.866  0.00  0.00    +0.000 A 
ATOM      9  C   UNL     1       1.114   3.352  20.505  0.00  0.00    +0.000 A 
ATOM     10  C   UNL     1       1.595   4.604  20.109  0.00  0.00    +0.000 A 
ATOM     11  C   UNL     1       2.531   4.707  19.070  0.00  0.00    +0.000 A 
ENDROOT
BRANCH   4  12
ATOM     12  C   UNL     1       5.356   4.682  15.887  0.00  0.00    +0.000 A 
ATOM     13  C   UNL     1       6.598   5.322  15.998  0.00  0.00    +0.000 A 
ATOM     14  C   UNL     1       7.499   5.306  14.932  0.00  0.00    +0.000 A 
ATOM     15  C   UNL     1       7.165   4.650  13.748  0.00  0.00    +0.000 A 
ATOM     16  C   UNL     1       5.932   4.009  13.636  0.00  0.00    +0.000 A 
ATOM     17 CL   UNL     1       5.519   3.208  12.170  0.00  0.00    +0.000 Cl
ATOM     18  C   UNL     1       5.027   4.019  14.698  0.00  0.00    +0.000 A 
ENDBRANCH   4  12
BRANCH  10  19
ATOM     19  O   UNL     1       1.133   5.716  20.750  0.00  0.00    +0.000 OA
ATOM     20  H   UNL     1       1.403   5.711  21.681  0.00  0.00    +0.000 HD
ENDBRANCH  10  19
TORSDOF 2
ENDMDL
MODEL 7
REMARK VINA RESULT:      -7.4      3.104      6.958
REMARK  Name = 
REMARK  2 active torsions:
REMARK  status: ('A' for Active; 'I' for Inactive)
REMARK    1  A    between atoms: C_4  and  C_5
REMARK    2  A    between atoms: C_17  and  O_18
REMARK                            x       y       z     vdW  Elec       q    Type
REMARK                         _______ _______ _______ _____ _____    ______ ____
ROOT
ATOM      1  O   UNL     1       2.246   1.908  18.634  0.00  0.00    +0.000 OA
ATOM      2  C   UNL     1       2.750   2.997  18.397  0.00  0.00    +0.000 A 
ATOM      3  C   UNL     1       3.769   3.090  17.337  0.00  0.00    +0.000 A 
ATOM      4  C   UNL     1       4.325   4.275  17.064  0.00  0.00    +0.000 A 
ATOM      5  O   UNL     1       4.017   5.458  17.701  0.00  0.00    +0.000 OA
ATOM      6  C   UNL     1       3.066   5.426  18.695  0.00  0.00    +0.000 A 
ATOM      7  C   UNL     1       2.775   6.649  19.307  0.00  0.00    +0.000 A 
ATOM      8  C   UNL     1       1.825   6.710  20.326  0.00  0.00    +0.000 A 
ATOM      9  C   UNL     1       1.168   5.550  20.738  0.00  0.00    +0.000 A 
ATOM     10  C   UNL     1       1.459   4.327  20.125  0.00  0.00    +0.000 A 
ATOM     11  C   UNL     1       2.409   4.258  19.096  0.00  0.00    +0.000 A 
ENDROOT
BRANCH   4  12
ATOM     12  C   UNL     1       5.338   4.382  16.011  0.00  0.00    +0.000 A 
ATOM     13  C   UNL     1       6.516   5.106  16.237  0.00  0.00    +0.000 A 
ATOM     14  C   UNL     1       7.457   5.262  15.217  0.00  0.00    +0.000 A 
ATOM     15  C   UNL     1       7.225   4.694  13.965  0.00  0.00    +0.000 A 
ATOM     16  C   UNL     1       6.056   3.969  13.739  0.00  0.00    +0.000 A 
ATOM     17 CL   UNL     1       5.770   3.278  12.189  0.00  0.00    +0.000 Cl
ATOM     18  C   UNL     1       5.113   3.807  14.754  0.00  0.00    +0.000 A 
ENDBRANCH   4  12
BRANCH  10  19
ATOM     19  O   UNL     1       0.803   3.209  20.552  0.00  0.00    +0.000 OA
ATOM     20  H   UNL     1       0.089   3.444  21.164  0.00  0.00    +0.000 HD
ENDBRANCH  10  19
TORSDOF 2
ENDMDL
MODEL 8
REMARK VINA RESULT:      -7.4      5.072      7.721
REMARK  Name = 
REMARK  2 active torsions:
REMARK  status: ('A' for Active; 'I' for Inactive)
REMARK    1  A    between atoms: C_4  and  C_5
REMARK    2  A    between atoms: C_17  and  O_18
REMARK                            x       y       z     vdW  Elec       q    Type
REMARK                         _______ _______ _______ _____ _____    ______ ____
ROOT
ATOM      1  O   UNL     1       2.084   9.663  17.333  0.00  0.00    +0.000 OA
ATOM      2  C   UNL     1       1.869   9.081  18.386  0.00  0.00    +0.000 A 
ATOM      3  C   UNL     1       2.384   7.711  18.557  0.00  0.00    +0.000 A 
ATOM      4  C   UNL     1       2.160   7.064  19.706  0.00  0.00    +0.000 A 
ATOM      5  O   UNL     1       1.472   7.581  20.783  0.00  0.00    +0.000 OA
ATOM      6  C   UNL     1       0.974   8.860  20.676  0.00  0.00    +0.000 A 
ATOM      7  C   UNL     1       0.294   9.351  21.794  0.00  0.00    +0.000 A 
ATOM      8  C   UNL     1      -0.244  10.636  21.775  0.00  0.00    +0.000 A 
ATOM      9  C   UNL     1      -0.108  11.432  20.637  0.00  0.00    +0.000 A 
ATOM     10  C   UNL     1       0.573  10.942  19.518  0.00  0.00    +0.000 A 
ATOM     11  C   UNL     1       1.123   9.652  19.532  0.00  0.00    +0.000 A 
ENDROOT
BRANCH   4  12
ATOM     12  C   UNL     1       2.669   5.702  19.889  0.00  0.00    +0.000 A 
ATOM     13  C   UNL     1       3.821   5.283  19.212  0.00  0.00    +0.000 A 
ATOM     14  C   UNL     1       4.275   3.968  19.336  0.00  0.00    +0.000 A 
ATOM     15  C   UNL     1       3.579   3.065  20.139  0.00  0.00    +0.000 A 
ATOM     16  C   UNL     1       2.434   3.481  20.817  0.00  0.00    +0.000 A 
ATOM     17 CL   UNL     1       1.572   2.361  21.799  0.00  0.00    +0.000 Cl
ATOM     18  C   UNL     1       1.976   4.794  20.699  0.00  0.00    +0.000 A 
ENDBRANCH   4  12
BRANCH  10  19
ATOM     19  O   UNL     1       0.687  11.741  18.419  0.00  0.00    +0.000 OA
ATOM     20  H   UNL     1       1.618  11.856  18.173  0.00  0.00    +0.000 HD
ENDBRANCH  10  19
TORSDOF 2
ENDMDL
MODEL 9
REMARK VINA RESULT:      -7.4      3.316      5.379
REMARK  Name = 
REMARK  2 active torsions:
REMARK  status: ('A' for Active; 'I' for Inactive)
REMARK    1  A    between atoms: C_4  and  C_5
REMARK    2  A    between atoms: C_17  and  O_18
REMARK                            x       y       z     vdW  Elec       q    Type
REMARK                         _______ _______ _______ _____ _____    ______ ____
ROOT
ATOM      1  O   UNL     1       5.199   5.877  16.635  0.00  0.00    +0.000 OA
ATOM      2  C   UNL     1       4.237   5.766  17.382  0.00  0.00    +0.000 A 
ATOM      3  C   UNL     1       3.586   6.990  17.882  0.00  0.00    +0.000 A 
ATOM      4  C   UNL     1       2.530   6.884  18.696  0.00  0.00    +0.000 A 
ATOM      5  O   UNL     1       1.974   5.696  19.120  0.00  0.00    +0.000 OA
ATOM      6  C   UNL     1       2.542   4.524  18.677  0.00  0.00    +0.000 A 
ATOM      7  C   UNL     1       1.942   3.343  19.120  0.00  0.00    +0.000 A 
ATOM      8  C   UNL     1       2.452   2.108  18.721  0.00  0.00    +0.000 A 
ATOM      9  C   UNL     1       3.566   2.052  17.884  0.00  0.00    +0.000 A 
ATOM     10  C   UNL     1       4.167   3.234  17.439  0.00  0.00    +0.000 A 
ATOM     11  C   UNL     1       3.656   4.479  17.831  0.00  0.00    +0.000 A 
ENDROOT
BRANCH   4  12
ATOM     12  C   UNL     1       1.871   8.093  19.198  0.00  0.00    +0.000 A 
ATOM     13  C   UNL     1       1.670   9.191  18.351  0.00  0.00    +0.000 A 
ATOM     14  C   UNL     1       1.099  10.366  18.842  0.00  0.00    +0.000 A 
ATOM     15  C   UNL     1       0.724  10.452  20.182  0.00  0.00    +0.000 A 
ATOM     16  C   UNL     1       0.919   9.359  21.026  0.00  0.00    +0.000 A 
ATOM     17 CL   UNL     1       0.464   9.470  22.682  0.00  0.00    +0.000 Cl
ATOM     18  C   UNL     1       1.488   8.180  20.542  0.00  0.00    +0.000 A 
ENDBRANCH   4  12
BRANCH  10  19
ATOM     19  O   UNL     1       5.258   3.147  16.624  0.00  0.00    +0.000 OA
ATOM     20  H   UNL     1       5.066   3.529  15.753  0.00  0.00    +0.000 HD
ENDBRANCH  10  19
TORSDOF 2
ENDMDL
