MODEL 1
REMARK VINA RESULT:      -7.6      0.000      0.000
REMARK  Name = 
REMARK  3 active torsions:
REMARK  status: ('A' for Active; 'I' for Inactive)
REMARK    1  A    between atoms: C_1  and  C_2
REMARK    2  A    between atoms: C_5  and  C_6
REMARK    3  A    between atoms: C_10  and  N_11
REMARK                            x       y       z     vdW  Elec       q    Type
REMARK                         _______ _______ _______ _____ _____    ______ ____
ROOT
ATOM      1  C   UNL     1       4.456   3.968  17.329  0.00  0.00    +0.000 A 
ATOM      2  N   UNL     1       4.757   3.781  18.603  0.00  0.00    +0.000 NA
ATOM      3  C   UNL     1       3.552   3.479  19.180  0.00  0.00    +0.000 A 
ATOM      4  C   UNL     1       3.225   3.163  20.504  0.00  0.00    +0.000 A 
ATOM      5  C   UNL     1       1.883   2.900  20.825  0.00  0.00    +0.000 A 
ATOM      6  C   UNL     1       0.917   2.872  19.805  0.00  0.00    +0.000 A 
ATOM      7  C   UNL     1       1.221   3.200  18.475  0.00  0.00    +0.000 A 
ATOM      8  C   UNL     1       2.552   3.496  18.224  0.00  0.00    +0.000 A 
ATOM      9  O   UNL     1       3.124   3.820  17.029  0.00  0.00    +0.000 OA
ENDROOT
BRANCH   1  14
ATOM     10  C   UNL     1       8.052   5.170  12.952  0.00  0.00    +0.000 C 
ATOM     11  C   UNL     1       7.090   4.872  14.066  0.00  0.00    +0.000 A 
ATOM     12  C   UNL     1       7.318   5.425  15.336  0.00  0.00    +0.000 A 
ATOM     13  C   UNL     1       6.457   5.151  16.403  0.00  0.00    +0.000 A 
ATOM     14  C   UNL     1       5.353   4.309  16.231  0.00  0.00    +0.000 A 
ATOM     15  C   UNL     1       5.112   3.771  14.958  0.00  0.00    +0.000 A 
ATOM     16  C   UNL     1       5.968   4.050  13.888  0.00  0.00    +0.000 A 
ATOM     17 BR   UNL     1       5.553   3.264  12.208  0.00  0.00    +0.000 Br
ENDBRANCH   1  14
BRANCH   5  18
ATOM     18  N   UNL     1       1.558   2.439  22.107  0.00  0.00    +0.000 N 
ATOM     19  H   UNL     1       1.051   1.557  22.112  0.00  0.00    +0.000 HD
ATOM     20  H   UNL     1       2.334   2.440  22.760  0.00  0.00    +0.000 HD
ENDBRANCH   5  18
TORSDOF 2
ENDMDL
MODEL 2
REMARK VINA RESULT:      -7.2      5.520      6.838
REMARK  Name = 
REMARK  3 active torsions:
REMARK  status: ('A' for Active; 'I' for Inactive)
REMARK    1  A    between atoms: C_1  and  C_2
REMARK    2  A    between atoms: C_5  and  C_6
REMARK    3  A    between atoms: C_10  and  N_11
REMARK                            x       y       z     vdW  Elec       q    Type
REMARK                         _______ _______ _______ _____ _____    ______ ____
ROOT
ATOM      1  C   UNL     1       2.385   6.691  19.721  0.00  0.00    +0.000 A 
ATOM      2  N   UNL     1       3.409   6.131  19.101  0.00  0.00    +0.000 NA
ATOM      3  C   UNL     1       3.475   4.878  19.651  0.00  0.00    +0.000 A 
ATOM      4  C   UNL     1       4.339   3.808  19.391  0.00  0.00    +0.000 A 
ATOM      5  C   UNL     1       4.184   2.619  20.122  0.00  0.00    +0.000 A 
ATOM      6  C   UNL     1       3.118   2.495  21.029  0.00  0.00    +0.000 A 
ATOM      7  C   UNL     1       2.249   3.559  21.315  0.00  0.00    +0.000 A 
ATOM      8  C   UNL     1       2.477   4.724  20.597  0.00  0.00    +0.000 A 
ATOM      9  O   UNL     1       1.775   5.892  20.657  0.00  0.00    +0.000 OA
ENDROOT
BRANCH   1  14
ATOM     10  C   UNL     1       0.081  11.957  19.011  0.00  0.00    +0.000 C 
ATOM     11  C   UNL     1       0.699  10.604  19.225  0.00  0.00    +0.000 A 
ATOM     12  C   UNL     1       1.395   9.994  18.171  0.00  0.00    +0.000 A 
ATOM     13  C   UNL     1       1.962   8.725  18.325  0.00  0.00    +0.000 A 
ATOM     14  C   UNL     1       1.841   8.032  19.535  0.00  0.00    +0.000 A 
ATOM     15  C   UNL     1       1.163   8.649  20.596  0.00  0.00    +0.000 A 
ATOM     16  C   UNL     1       0.601   9.920  20.446  0.00  0.00    +0.000 A 
ATOM     17 BR   UNL     1      -0.301  10.661  21.945  0.00  0.00    +0.000 Br
ENDBRANCH   1  14
BRANCH   5  18
ATOM     18  N   UNL     1       4.940   1.492  19.775  0.00  0.00    +0.000 N 
ATOM     19  H   UNL     1       5.342   1.003  20.571  0.00  0.00    +0.000 HD
ATOM     20  H   UNL     1       4.476   0.860  19.130  0.00  0.00    +0.000 HD
ENDBRANCH   5  18
TORSDOF 2
ENDMDL
MODEL 3
REMARK VINA RESULT:      -7.1      6.454      8.077
REMARK  Name = 
REMARK  3 active torsions:
REMARK  status: ('A' for Active; 'I' for Inactive)
REMARK    1  A    between atoms: C_1  and  C_2
REMARK    2  A    between atoms: C_5  and  C_6
REMARK    3  A    between atoms: C_10  and  N_11
REMARK                            x       y       z     vdW  Elec       q    Type
REMARK                         _______ _______ _______ _____ _____    ______ ____
ROOT
ATOM      1  C   UNL     1       8.439   8.968  18.376  0.00  0.00    +0.000 A 
ATOM      2  N   UNL     1       7.538   8.862  17.414  0.00  0.00    +0.000 NA
ATOM      3  C   UNL     1       7.198   7.535  17.434  0.00  0.00    +0.000 A 
ATOM      4  C   UNL     1       6.279   6.814  16.663  0.00  0.00    +0.000 A 
ATOM      5  C   UNL     1       6.135   5.436  16.894  0.00  0.00    +0.000 A 
ATOM      6  C   UNL     1       6.844   4.830  17.945  0.00  0.00    +0.000 A 
ATOM      7  C   UNL     1       7.780   5.531  18.721  0.00  0.00    +0.000 A 
ATOM      8  C   UNL     1       7.915   6.878  18.418  0.00  0.00    +0.000 A 
ATOM      9  O   UNL     1       8.725   7.792  19.025  0.00  0.00    +0.000 OA
ENDROOT
BRANCH   1  14
ATOM     10  C   UNL     1      11.400  13.653  20.058  0.00  0.00    +0.000 C 
ATOM     11  C   UNL     1      10.609  12.460  19.601  0.00  0.00    +0.000 A 
ATOM     12  C   UNL     1      10.010  11.626  20.557  0.00  0.00    +0.000 A 
ATOM     13  C   UNL     1       9.287  10.494  20.169  0.00  0.00    +0.000 A 
ATOM     14  C   UNL     1       9.151  10.162  18.817  0.00  0.00    +0.000 A 
ATOM     15  C   UNL     1       9.732  11.006  17.859  0.00  0.00    +0.000 A 
ATOM     16  C   UNL     1      10.450  12.142  18.244  0.00  0.00    +0.000 A 
ATOM     17 BR   UNL     1      11.202  13.212  16.865  0.00  0.00    +0.000 Br
ENDBRANCH   1  14
BRANCH   5  18
ATOM     18  N   UNL     1       5.120   4.729  16.237  0.00  0.00    +0.000 N 
ATOM     19  H   UNL     1       4.789   5.177  15.386  0.00  0.00    +0.000 HD
ATOM     20  H   UNL     1       5.318   3.743  16.102  0.00  0.00    +0.000 HD
ENDBRANCH   5  18
TORSDOF 2
ENDMDL
MODEL 4
REMARK VINA RESULT:      -7.0      5.303      5.736
REMARK  Name = 
REMARK  3 active torsions:
REMARK  status: ('A' for Active; 'I' for Inactive)
REMARK    1  A    between atoms: C_1  and  C_2
REMARK    2  A    between atoms: C_5  and  C_6
REMARK    3  A    between atoms: C_10  and  N_11
REMARK                            x       y       z     vdW  Elec       q    Type
REMARK                         _______ _______ _______ _____ _____    ______ ____
ROOT
ATOM      1  C   UNL     1       2.210   7.594  19.227  0.00  0.00    +0.000 A 
ATOM      2  N   UNL     1       1.859   7.411  20.488  0.00  0.00    +0.000 NA
ATOM      3  C   UNL     1       1.144   8.539  20.793  0.00  0.00    +0.000 A 
ATOM      4  C   UNL     1       0.496   8.922  21.973  0.00  0.00    +0.000 A 
ATOM      5  C   UNL     1      -0.167  10.160  22.010  0.00  0.00    +0.000 A 
ATOM      6  C   UNL     1      -0.242  10.943  20.846  0.00  0.00    +0.000 A 
ATOM      7  C   UNL     1       0.412  10.586  19.658  0.00  0.00    +0.000 A 
ATOM      8  C   UNL     1       1.089   9.375  19.692  0.00  0.00    +0.000 A 
ATOM      9  O   UNL     1       1.782   8.778  18.680  0.00  0.00    +0.000 OA
ENDROOT
BRANCH   1  14
ATOM     10  C   UNL     1       5.340   3.990  15.947  0.00  0.00    +0.000 C 
ATOM     11  C   UNL     1       4.496   4.912  16.781  0.00  0.00    +0.000 A 
ATOM     12  C   UNL     1       4.743   6.292  16.741  0.00  0.00    +0.000 A 
ATOM     13  C   UNL     1       3.994   7.178  17.522  0.00  0.00    +0.000 A 
ATOM     14  C   UNL     1       2.985   6.705  18.368  0.00  0.00    +0.000 A 
ATOM     15  C   UNL     1       2.723   5.328  18.395  0.00  0.00    +0.000 A 
ATOM     16  C   UNL     1       3.467   4.441  17.610  0.00  0.00    +0.000 A 
ATOM     17 BR   UNL     1       3.033   2.594  17.726  0.00  0.00    +0.000 Br
ENDBRANCH   1  14
BRANCH   5  18
ATOM     18  N   UNL     1      -0.942  10.493  23.128  0.00  0.00    +0.000 N 
ATOM     19  H   UNL     1      -0.970   9.769  23.842  0.00  0.00    +0.000 HD
ATOM     20  H   UNL     1      -0.743  11.409  23.517  0.00  0.00    +0.000 HD
ENDBRANCH   5  18
TORSDOF 2
ENDMDL
MODEL 5
REMARK VINA RESULT:      -6.9      5.048      6.246
REMARK  Name = 
REMARK  3 active torsions:
REMARK  status: ('A' for Active; 'I' for Inactive)
REMARK    1  A    between atoms: C_1  and  C_2
REMARK    2  A    between atoms: C_5  and  C_6
REMARK    3  A    between atoms: C_10  and  N_11
REMARK                            x       y       z     vdW  Elec       q    Type
REMARK                         _______ _______ _______ _____ _____    ______ ____
ROOT
ATOM      1  C   UNL     1       2.580   6.078  18.944  0.00  0.00    +0.000 A 
ATOM      2  N   UNL     1       3.368   5.445  19.797  0.00  0.00    +0.000 NA
ATOM      3  C   UNL     1       3.412   4.166  19.309  0.00  0.00    +0.000 A 
ATOM      4  C   UNL     1       4.097   3.034  19.767  0.00  0.00    +0.000 A 
ATOM      5  C   UNL     1       3.954   1.827  19.065  0.00  0.00    +0.000 A 
ATOM      6  C   UNL     1       3.205   1.797  17.877  0.00  0.00    +0.000 A 
ATOM      7  C   UNL     1       2.499   2.915  17.408  0.00  0.00    +0.000 A 
ATOM      8  C   UNL     1       2.640   4.069  18.165  0.00  0.00    +0.000 A 
ATOM      9  O   UNL     1       2.091   5.295  17.928  0.00  0.00    +0.000 OA
ENDROOT
BRANCH   1  14
ATOM     10  C   UNL     1       0.826  11.597  19.028  0.00  0.00    +0.000 C 
ATOM     11  C   UNL     1       1.303  10.172  19.037  0.00  0.00    +0.000 A 
ATOM     12  C   UNL     1       1.910   9.645  17.887  0.00  0.00    +0.000 A 
ATOM     13  C   UNL     1       2.345   8.316  17.850  0.00  0.00    +0.000 A 
ATOM     14  C   UNL     1       2.176   7.479  18.959  0.00  0.00    +0.000 A 
ATOM     15  C   UNL     1       1.587   8.010  20.116  0.00  0.00    +0.000 A 
ATOM     16  C   UNL     1       1.158   9.340  20.157  0.00  0.00    +0.000 A 
ATOM     17 BR   UNL     1       0.368   9.955  21.772  0.00  0.00    +0.000 Br
ENDBRANCH   1  14
BRANCH   5  18
ATOM     18  N   UNL     1       4.744   0.725  19.420  0.00  0.00    +0.000 N 
ATOM     19  H   UNL     1       4.303  -0.174  19.241  0.00  0.00    +0.000 HD
ATOM     20  H   UNL     1       5.696   0.763  19.069  0.00  0.00    +0.000 HD
ENDBRANCH   5  18
TORSDOF 2
ENDMDL
MODEL 6
REMARK VINA RESULT:      -6.9      5.601      7.417
REMARK  Name = 
REMARK  3 active torsions:
REMARK  status: ('A' for Active; 'I' for Inactive)
REMARK    1  A    between atoms: C_1  and  C_2
REMARK    2  A    between atoms: C_5  and  C_6
REMARK    3  A    between atoms: C_10  and  N_11
REMARK                            x       y       z     vdW  Elec       q    Type
REMARK                         _______ _______ _______ _____ _____    ______ ____
ROOT
ATOM      1  C   UNL     1       2.603   7.374  18.363  0.00  0.00    +0.000 A 
ATOM      2  N   UNL     1       3.671   7.429  17.587  0.00  0.00    +0.000 NA
ATOM      3  C   UNL     1       4.003   6.113  17.399  0.00  0.00    +0.000 A 
ATOM      4  C   UNL     1       5.033   5.525  16.654  0.00  0.00    +0.000 A 
ATOM      5  C   UNL     1       5.147   4.126  16.644  0.00  0.00    +0.000 A 
ATOM      6  C   UNL     1       4.182   3.345  17.302  0.00  0.00    +0.000 A 
ATOM      7  C   UNL     1       3.151   3.913  18.065  0.00  0.00    +0.000 A 
ATOM      8  C   UNL     1       3.113   5.299  18.077  0.00  0.00    +0.000 A 
ATOM      9  O   UNL     1       2.212   6.104  18.710  0.00  0.00    +0.000 OA
ENDROOT
BRANCH   1  14
ATOM     10  C   UNL     1      -0.663  11.666  20.473  0.00  0.00    +0.000 C 
ATOM     11  C   UNL     1       0.210  10.560  19.952  0.00  0.00    +0.000 A 
ATOM     12  C   UNL     1       0.604  10.574  18.606  0.00  0.00    +0.000 A 
ATOM     13  C   UNL     1       1.398   9.549  18.080  0.00  0.00    +0.000 A 
ATOM     14  C   UNL     1       1.809   8.481  18.885  0.00  0.00    +0.000 A 
ATOM     15  C   UNL     1       1.433   8.476  20.236  0.00  0.00    +0.000 A 
ATOM     16  C   UNL     1       0.645   9.503  20.765  0.00  0.00    +0.000 A 
ATOM     17 BR   UNL     1       0.188   9.395  22.606  0.00  0.00    +0.000 Br
ENDBRANCH   1  14
BRANCH   5  18
ATOM     18  N   UNL     1       6.075   3.516  15.790  0.00  0.00    +0.000 N 
ATOM     19  H   UNL     1       7.037   3.574  16.118  0.00  0.00    +0.000 HD
ATOM     20  H   UNL     1       5.823   2.577  15.501  0.00  0.00    +0.000 HD
ENDBRANCH   5  18
TORSDOF 2
ENDMDL
MODEL 7
REMARK VINA RESULT:      -6.8      5.273      5.708
REMARK  Name = 
REMARK  3 active torsions:
REMARK  status: ('A' for Active; 'I' for Inactive)
REMARK    1  A    between atoms: C_1  and  C_2
REMARK    2  A    between atoms: C_5  and  C_6
REMARK    3  A    between atoms: C_10  and  N_11
REMARK                            x       y       z     vdW  Elec       q    Type
REMARK                         _______ _______ _______ _____ _____    ______ ____
ROOT
ATOM      1  C   UNL     1       2.409   7.617  18.733  0.00  0.00    +0.000 A 
ATOM      2  N   UNL     1       1.825   8.717  18.290  0.00  0.00    +0.000 NA
ATOM      3  C   UNL     1       1.201   9.223  19.399  0.00  0.00    +0.000 A 
ATOM      4  C   UNL     1       0.435  10.382  19.571  0.00  0.00    +0.000 A 
ATOM      5  C   UNL     1      -0.101  10.656  20.840  0.00  0.00    +0.000 A 
ATOM      6  C   UNL     1       0.212   9.818  21.923  0.00  0.00    +0.000 A 
ATOM      7  C   UNL     1       0.965   8.645  21.771  0.00  0.00    +0.000 A 
ATOM      8  C   UNL     1       1.431   8.399  20.487  0.00  0.00    +0.000 A 
ATOM      9  O   UNL     1       2.201   7.355  20.065  0.00  0.00    +0.000 OA
ENDROOT
BRANCH   1  14
ATOM     10  C   UNL     1       5.710   3.786  15.911  0.00  0.00    +0.000 C 
ATOM     11  C   UNL     1       4.823   4.764  16.627  0.00  0.00    +0.000 A 
ATOM     12  C   UNL     1       5.027   6.140  16.441  0.00  0.00    +0.000 A 
ATOM     13  C   UNL     1       4.236   7.080  17.110  0.00  0.00    +0.000 A 
ATOM     14  C   UNL     1       3.227   6.667  17.987  0.00  0.00    +0.000 A 
ATOM     15  C   UNL     1       3.008   5.293  18.159  0.00  0.00    +0.000 A 
ATOM     16  C   UNL     1       3.794   4.351  17.486  0.00  0.00    +0.000 A 
ATOM     17 BR   UNL     1       3.416   2.515  17.796  0.00  0.00    +0.000 Br
ENDBRANCH   1  14
BRANCH   5  18
ATOM     18  N   UNL     1      -0.743  11.881  21.067  0.00  0.00    +0.000 N 
ATOM     19  H   UNL     1      -1.745  11.799  21.222  0.00  0.00    +0.000 HD
ATOM     20  H   UNL     1      -0.293  12.466  21.763  0.00  0.00    +0.000 HD
ENDBRANCH   5  18
TORSDOF 2
ENDMDL
MODEL 8
REMARK VINA RESULT:      -6.7      6.216      8.020
REMARK  Name = 
REMARK  3 active torsions:
REMARK  status: ('A' for Active; 'I' for Inactive)
REMARK    1  A    between atoms: C_1  and  C_2
REMARK    2  A    between atoms: C_5  and  C_6
REMARK    3  A    between atoms: C_10  and  N_11
REMARK                            x       y       z     vdW  Elec       q    Type
REMARK                         _______ _______ _______ _____ _____    ______ ____
ROOT
ATOM      1  C   UNL     1       2.084   8.056  18.971  0.00  0.00    +0.000 A 
ATOM      2  N   UNL     1       2.376   6.991  19.697  0.00  0.00    +0.000 NA
ATOM      3  C   UNL     1       3.349   6.359  18.969  0.00  0.00    +0.000 A 
ATOM      4  C   UNL     1       4.071   5.187  19.226  0.00  0.00    +0.000 A 
ATOM      5  C   UNL     1       5.021   4.757  18.286  0.00  0.00    +0.000 A 
ATOM      6  C   UNL     1       5.291   5.550  17.158  0.00  0.00    +0.000 A 
ATOM      7  C   UNL     1       4.571   6.720  16.874  0.00  0.00    +0.000 A 
ATOM      8  C   UNL     1       3.613   7.073  17.813  0.00  0.00    +0.000 A 
ATOM      9  O   UNL     1       2.795   8.164  17.801  0.00  0.00    +0.000 OA
ENDROOT
BRANCH   1  14
ATOM     10  C   UNL     1      -1.868  12.114  20.177  0.00  0.00    +0.000 C 
ATOM     11  C   UNL     1      -0.818  11.079  19.888  0.00  0.00    +0.000 A 
ATOM     12  C   UNL     1      -0.415  10.863  18.562  0.00  0.00    +0.000 A 
ATOM     13  C   UNL     1       0.542   9.891  18.252  0.00  0.00    +0.000 A 
ATOM     14  C   UNL     1       1.113   9.106  19.259  0.00  0.00    +0.000 A 
ATOM     15  C   UNL     1       0.726   9.334  20.588  0.00  0.00    +0.000 A 
ATOM     16  C   UNL     1      -0.226  10.310  20.900  0.00  0.00    +0.000 A 
ATOM     17 BR   UNL     1      -0.682  10.532  22.732  0.00  0.00    +0.000 Br
ENDBRANCH   1  14
BRANCH   5  18
ATOM     18  N   UNL     1       5.853   3.673  18.593  0.00  0.00    +0.000 N 
ATOM     19  H   UNL     1       6.635   3.558  17.952  0.00  0.00    +0.000 HD
ATOM     20  H   UNL     1       6.143   3.631  19.565  0.00  0.00    +0.000 HD
ENDBRANCH   5  18
TORSDOF 2
ENDMDL
MODEL 9
REMARK VINA RESULT:      -6.7      5.304      7.612
REMARK  Name = 
REMARK  3 active torsions:
REMARK  status: ('A' for Active; 'I' for Inactive)
REMARK    1  A    between atoms: C_1  and  C_2
REMARK    2  A    between atoms: C_5  and  C_6
REMARK    3  A    between atoms: C_10  and  N_11
REMARK                            x       y       z     vdW  Elec       q    Type
REMARK                         _______ _______ _______ _____ _____    ______ ____
ROOT
ATOM      1  C   UNL     1       2.645   7.237  18.739  0.00  0.00    +0.000 A 
ATOM      2  N   UNL     1       2.756   5.922  18.809  0.00  0.00    +0.000 NA
ATOM      3  C   UNL     1       3.668   5.621  17.832  0.00  0.00    +0.000 A 
ATOM      4  C   UNL     1       4.212   4.395  17.432  0.00  0.00    +0.000 A 
ATOM      5  C   UNL     1       5.139   4.377  16.377  0.00  0.00    +0.000 A 
ATOM      6  C   UNL     1       5.566   5.588  15.807  0.00  0.00    +0.000 A 
ATOM      7  C   UNL     1       5.024   6.826  16.182  0.00  0.00    +0.000 A 
ATOM      8  C   UNL     1       4.080   6.780  17.197  0.00  0.00    +0.000 A 
ATOM      9  O   UNL     1       3.417   7.826  17.769  0.00  0.00    +0.000 OA
ENDROOT
BRANCH   1  14
ATOM     10  C   UNL     1      -0.557  10.844  21.946  0.00  0.00    +0.000 C 
ATOM     11  C   UNL     1       0.244   9.905  21.089  0.00  0.00    +0.000 A 
ATOM     12  C   UNL     1       0.746   8.722  21.651  0.00  0.00    +0.000 A 
ATOM     13  C   UNL     1       1.517   7.836  20.891  0.00  0.00    +0.000 A 
ATOM     14  C   UNL     1       1.812   8.116  19.552  0.00  0.00    +0.000 A 
ATOM     15  C   UNL     1       1.295   9.288  18.982  0.00  0.00    +0.000 A 
ATOM     16  C   UNL     1       0.518  10.172  19.739  0.00  0.00    +0.000 A 
ATOM     17 BR   UNL     1      -0.127  11.734  18.871  0.00  0.00    +0.000 Br
ENDBRANCH   1  14
BRANCH   5  18
ATOM     18  N   UNL     1       5.802   3.184  16.062  0.00  0.00    +0.000 N 
ATOM     19  H   UNL     1       5.600   2.834  15.128  0.00  0.00    +0.000 HD
ATOM     20  H   UNL     1       6.797   3.194  16.262  0.00  0.00    +0.000 HD
ENDBRANCH   5  18
TORSDOF 2
ENDMDL
