MODEL 1
REMARK VINA RESULT:      -9.4      0.000      0.000
REMARK  Name = 
REMARK  3 active torsions:
REMARK  status: ('A' for Active; 'I' for Inactive)
REMARK    1  A    between atoms: C_5  and  C_6
REMARK    2  A    between atoms: C_9  and  C_10
REMARK    3  A    between atoms: N_24  and  C_25
REMARK                            x       y       z     vdW  Elec       q    Type
REMARK                         _______ _______ _______ _____ _____    ______ ____
ROOT
ATOM      1  C   UNL     1       1.557   9.166  19.426  0.00  0.00    +0.000 A 
ATOM      2  C   UNL     1       1.918   9.507  18.130  0.00  0.00    +0.000 A 
ATOM      3  C   UNL     1       2.486   8.361  17.524  0.00  0.00    +0.000 A 
ATOM      4  C   UNL     1       2.424   7.352  18.460  0.00  0.00    +0.000 A 
ATOM      5  O   UNL     1       1.870   7.838  19.603  0.00  0.00    +0.000 OA
ENDROOT
BRANCH   4   6
ATOM      6  C   UNL     1       2.777   5.933  18.459  0.00  0.00    +0.000 A 
ATOM      7  C   UNL     1       4.131   5.507  18.515  0.00  0.00    +0.000 A 
ATOM      8  C   UNL     1       4.477   4.147  18.583  0.00  0.00    +0.000 A 
ATOM      9  C   UNL     1       3.442   3.237  18.590  0.00  0.00    +0.000 A 
ATOM     10  C   UNL     1       2.121   3.640  18.515  0.00  0.00    +0.000 A 
ATOM     11  C   UNL     1       1.756   4.969  18.444  0.00  0.00    +0.000 A 
ATOM     12  C   UNL     1       1.289   2.442  18.565  0.00  0.00    +0.000 C 
ATOM     13  O   UNL     1       0.075   2.430  18.530  0.00  0.00    +0.000 OA
ATOM     14  N   UNL     1       2.140   1.388  18.666  0.00  0.00    +0.000 N 
ATOM     15  C   UNL     1       3.445   1.779  18.696  0.00  0.00    +0.000 C 
ATOM     16  O   UNL     1       4.432   1.081  18.803  0.00  0.00    +0.000 OA
ATOM     17  H   UNL     1       1.839   0.429  18.741  0.00  0.00    +0.000 HD
ENDBRANCH   4   6
BRANCH   1  22
ATOM     18  N   UNL     1      -3.265  12.268  18.822  0.00  0.00    +0.000 NA
ATOM     19  C   UNL     1      -2.266  11.852  19.516  0.00  0.00    +0.000 C 
ATOM     20  S   UNL     1      -1.143  10.758  18.778  0.00  0.00    +0.000 S 
ATOM     21  C   UNL     1      -0.174  10.696  20.192  0.00  0.00    +0.000 C 
ATOM     22  C   UNL     1       0.931   9.972  20.415  0.00  0.00    +0.000 C 
ATOM     23  C   UNL     1      -0.760  11.560  21.258  0.00  0.00    +0.000 C 
ATOM     24  O   UNL     1      -0.250  11.617  22.373  0.00  0.00    +0.000 OA
ATOM     25  N   UNL     1      -1.917  12.189  20.802  0.00  0.00    +0.000 N 
ATOM     26  H   UNL     1      -3.208  11.820  17.900  0.00  0.00    +0.000 HD
BRANCH  25  27
ATOM     27  C   UNL     1      -2.672  13.095  21.622  0.00  0.00    +0.000 A 
ATOM     28  C   UNL     1      -3.698  12.637  22.469  0.00  0.00    +0.000 A 
ATOM     29  C   UNL     1      -4.430  13.518  23.278  0.00  0.00    +0.000 A 
ATOM     30  C   UNL     1      -4.153  14.879  23.250  0.00  0.00    +0.000 A 
ATOM     31 CL   UNL     1      -5.051  15.963  24.235  0.00  0.00    +0.000 Cl
ATOM     32  C   UNL     1      -3.149  15.363  22.423  0.00  0.00    +0.000 A 
ATOM     33  C   UNL     1      -2.418  14.477  21.619  0.00  0.00    +0.000 A 
ENDBRANCH  25  27
ENDBRANCH   1  22
TORSDOF 3
ENDMDL
MODEL 2
REMARK VINA RESULT:      -9.3      2.966      3.936
REMARK  Name = 
REMARK  3 active torsions:
REMARK  status: ('A' for Active; 'I' for Inactive)
REMARK    1  A    between atoms: C_5  and  C_6
REMARK    2  A    between atoms: C_9  and  C_10
REMARK    3  A    between atoms: N_24  and  C_25
REMARK                            x       y       z     vdW  Elec       q    Type
REMARK                         _______ _______ _______ _____ _____    ______ ____
ROOT
ATOM      1  C   UNL     1       1.607   8.103  20.414  0.00  0.00    +0.000 A 
ATOM      2  C   UNL     1       1.108   6.940  20.983  0.00  0.00    +0.000 A 
ATOM      3  C   UNL     1       1.687   5.842  20.303  0.00  0.00    +0.000 A 
ATOM      4  C   UNL     1       2.543   6.372  19.363  0.00  0.00    +0.000 A 
ATOM      5  O   UNL     1       2.491   7.730  19.428  0.00  0.00    +0.000 OA
ENDROOT
BRANCH   4   6
ATOM      6  C   UNL     1       3.474   5.802  18.391  0.00  0.00    +0.000 A 
ATOM      7  C   UNL     1       3.164   4.612  17.678  0.00  0.00    +0.000 A 
ATOM      8  C   UNL     1       4.022   4.094  16.694  0.00  0.00    +0.000 A 
ATOM      9  C   UNL     1       5.186   4.790  16.449  0.00  0.00    +0.000 A 
ATOM     10  C   UNL     1       5.508   5.938  17.150  0.00  0.00    +0.000 A 
ATOM     11  C   UNL     1       4.683   6.464  18.124  0.00  0.00    +0.000 A 
ATOM     12  C   UNL     1       6.782   6.429  16.635  0.00  0.00    +0.000 C 
ATOM     13  O   UNL     1       7.355   7.427  17.023  0.00  0.00    +0.000 OA
ATOM     14  N   UNL     1       7.161   5.563  15.660  0.00  0.00    +0.000 N 
ATOM     15  C   UNL     1       6.257   4.560  15.480  0.00  0.00    +0.000 C 
ATOM     16  O   UNL     1       6.299   3.651  14.676  0.00  0.00    +0.000 OA
ATOM     17  H   UNL     1       8.000   5.669  15.111  0.00  0.00    +0.000 HD
ENDBRANCH   4   6
BRANCH   1  22
ATOM     18  N   UNL     1      -1.465  11.936  17.396  0.00  0.00    +0.000 NA
ATOM     19  C   UNL     1      -0.754  11.605  18.414  0.00  0.00    +0.000 C 
ATOM     20  S   UNL     1      -0.162   9.980  18.519  0.00  0.00    +0.000 S 
ATOM     21  C   UNL     1       0.643  10.299  19.999  0.00  0.00    +0.000 C 
ATOM     22  C   UNL     1       1.339   9.452  20.770  0.00  0.00    +0.000 C 
ATOM     23  C   UNL     1       0.433  11.719  20.406  0.00  0.00    +0.000 C 
ATOM     24  O   UNL     1       0.881  12.143  21.467  0.00  0.00    +0.000 OA
ATOM     25  N   UNL     1      -0.341  12.392  19.463  0.00  0.00    +0.000 N 
ATOM     26  H   UNL     1      -1.567  11.101  16.807  0.00  0.00    +0.000 HD
BRANCH  25  27
ATOM     27  C   UNL     1      -0.680  13.782  19.598  0.00  0.00    +0.000 A 
ATOM     28  C   UNL     1       0.006  14.777  18.879  0.00  0.00    +0.000 A 
ATOM     29  C   UNL     1      -0.329  16.134  19.001  0.00  0.00    +0.000 A 
ATOM     30  C   UNL     1      -1.355  16.521  19.853  0.00  0.00    +0.000 A 
ATOM     31 CL   UNL     1      -1.765  18.182  20.011  0.00  0.00    +0.000 Cl
ATOM     32  C   UNL     1      -2.050  15.563  20.578  0.00  0.00    +0.000 A 
ATOM     33  C   UNL     1      -1.713  14.209  20.449  0.00  0.00    +0.000 A 
ENDBRANCH  25  27
ENDBRANCH   1  22
TORSDOF 3
ENDMDL
MODEL 3
REMARK VINA RESULT:      -9.3      3.105      4.177
REMARK  Name = 
REMARK  3 active torsions:
REMARK  status: ('A' for Active; 'I' for Inactive)
REMARK    1  A    between atoms: C_5  and  C_6
REMARK    2  A    between atoms: C_9  and  C_10
REMARK    3  A    between atoms: N_24  and  C_25
REMARK                            x       y       z     vdW  Elec       q    Type
REMARK                         _______ _______ _______ _____ _____    ______ ____
ROOT
ATOM      1  C   UNL     1       1.752   6.671  20.525  0.00  0.00    +0.000 A 
ATOM      2  C   UNL     1       1.301   5.377  20.749  0.00  0.00    +0.000 A 
ATOM      3  C   UNL     1       1.974   4.522  19.844  0.00  0.00    +0.000 A 
ATOM      4  C   UNL     1       2.835   5.319  19.120  0.00  0.00    +0.000 A 
ATOM      5  O   UNL     1       2.697   6.608  19.527  0.00  0.00    +0.000 OA
ENDROOT
BRANCH   4   6
ATOM      6  C   UNL     1       3.838   5.065  18.088  0.00  0.00    +0.000 A 
ATOM      7  C   UNL     1       3.692   4.000  17.158  0.00  0.00    +0.000 A 
ATOM      8  C   UNL     1       4.616   3.790  16.121  0.00  0.00    +0.000 A 
ATOM      9  C   UNL     1       5.680   4.663  16.044  0.00  0.00    +0.000 A 
ATOM     10  C   UNL     1       5.843   5.691  16.956  0.00  0.00    +0.000 A 
ATOM     11  C   UNL     1       4.951   5.915  17.985  0.00  0.00    +0.000 A 
ATOM     12  C   UNL     1       7.045   6.429  16.580  0.00  0.00    +0.000 C 
ATOM     13  O   UNL     1       7.479   7.402  17.162  0.00  0.00    +0.000 OA
ATOM     14  N   UNL     1       7.541   5.817  15.473  0.00  0.00    +0.000 N 
ATOM     15  C   UNL     1       6.778   4.758  15.083  0.00  0.00    +0.000 C 
ATOM     16  O   UNL     1       6.943   4.030  14.126  0.00  0.00    +0.000 OA
ATOM     17  H   UNL     1       8.361   6.131  14.979  0.00  0.00    +0.000 HD
ENDBRANCH   4   6
BRANCH   1  22
ATOM     18  N   UNL     1       0.622  11.790  18.127  0.00  0.00    +0.000 NA
ATOM     19  C   UNL     1       0.747  11.022  19.150  0.00  0.00    +0.000 C 
ATOM     20  S   UNL     1       1.166   9.361  18.893  0.00  0.00    +0.000 S 
ATOM     21  C   UNL     1       1.173   9.034  20.577  0.00  0.00    +0.000 C 
ATOM     22  C   UNL     1       1.387   7.867  21.199  0.00  0.00    +0.000 C 
ATOM     23  C   UNL     1       0.836  10.269  21.344  0.00  0.00    +0.000 C 
ATOM     24  O   UNL     1       0.734  10.242  22.567  0.00  0.00    +0.000 OA
ATOM     25  N   UNL     1       0.630  11.344  20.481  0.00  0.00    +0.000 N 
ATOM     26  H   UNL     1       0.789  11.219  17.290  0.00  0.00    +0.000 HD
BRANCH  25  27
ATOM     27  C   UNL     1       0.311  12.660  20.959  0.00  0.00    +0.000 A 
ATOM     28  C   UNL     1      -1.016  13.039  21.236  0.00  0.00    +0.000 A 
ATOM     29  C   UNL     1      -1.329  14.321  21.711  0.00  0.00    +0.000 A 
ATOM     30  C   UNL     1      -0.319  15.252  21.913  0.00  0.00    +0.000 A 
ATOM     31 CL   UNL     1      -0.699  16.825  22.491  0.00  0.00    +0.000 Cl
ATOM     32  C   UNL     1       1.000  14.910  21.648  0.00  0.00    +0.000 A 
ATOM     33  C   UNL     1       1.307  13.627  21.176  0.00  0.00    +0.000 A 
ENDBRANCH  25  27
ENDBRANCH   1  22
TORSDOF 3
ENDMDL
MODEL 4
REMARK VINA RESULT:      -9.2      0.689      1.104
REMARK  Name = 
REMARK  3 active torsions:
REMARK  status: ('A' for Active; 'I' for Inactive)
REMARK    1  A    between atoms: C_5  and  C_6
REMARK    2  A    between atoms: C_9  and  C_10
REMARK    3  A    between atoms: N_24  and  C_25
REMARK                            x       y       z     vdW  Elec       q    Type
REMARK                         _______ _______ _______ _____ _____    ______ ____
ROOT
ATOM      1  C   UNL     1       1.341   9.341  19.392  0.00  0.00    +0.000 A 
ATOM      2  C   UNL     1       1.704   9.587  18.075  0.00  0.00    +0.000 A 
ATOM      3  C   UNL     1       2.389   8.446  17.594  0.00  0.00    +0.000 A 
ATOM      4  C   UNL     1       2.395   7.531  18.624  0.00  0.00    +0.000 A 
ATOM      5  O   UNL     1       1.769   8.071  19.704  0.00  0.00    +0.000 OA
ENDROOT
BRANCH   4   6
ATOM      6  C   UNL     1       2.875   6.158  18.769  0.00  0.00    +0.000 A 
ATOM      7  C   UNL     1       4.206   5.879  19.183  0.00  0.00    +0.000 A 
ATOM      8  C   UNL     1       4.656   4.565  19.391  0.00  0.00    +0.000 A 
ATOM      9  C   UNL     1       3.749   3.550  19.172  0.00  0.00    +0.000 A 
ATOM     10  C   UNL     1       2.457   3.809  18.750  0.00  0.00    +0.000 A 
ATOM     11  C   UNL     1       1.993   5.091  18.535  0.00  0.00    +0.000 A 
ATOM     12  C   UNL     1       1.764   2.530  18.635  0.00  0.00    +0.000 C 
ATOM     13  O   UNL     1       0.607   2.389  18.295  0.00  0.00    +0.000 OA
ATOM     14  N   UNL     1       2.662   1.574  18.990  0.00  0.00    +0.000 N 
ATOM     15  C   UNL     1       3.869   2.102  19.334  0.00  0.00    +0.000 C 
ATOM     16  O   UNL     1       4.861   1.514  19.715  0.00  0.00    +0.000 OA
ATOM     17  H   UNL     1       2.448   0.589  19.026  0.00  0.00    +0.000 HD
ENDBRANCH   4   6
BRANCH   1  22
ATOM     18  N   UNL     1      -3.592  12.122  18.310  0.00  0.00    +0.000 NA
ATOM     19  C   UNL     1      -2.614  11.810  19.083  0.00  0.00    +0.000 C 
ATOM     20  S   UNL     1      -1.396  10.733  18.487  0.00  0.00    +0.000 S 
ATOM     21  C   UNL     1      -0.508  10.822  19.952  0.00  0.00    +0.000 C 
ATOM     22  C   UNL     1       0.619  10.177  20.285  0.00  0.00    +0.000 C 
ATOM     23  C   UNL     1      -1.197  11.723  20.921  0.00  0.00    +0.000 C 
ATOM     24  O   UNL     1      -0.756  11.885  22.054  0.00  0.00    +0.000 OA
ATOM     25  N   UNL     1      -2.357  12.254  20.359  0.00  0.00    +0.000 N 
ATOM     26  H   UNL     1      -3.459  11.615  17.426  0.00  0.00    +0.000 HD
BRANCH  25  27
ATOM     27  C   UNL     1      -3.204  13.171  21.070  0.00  0.00    +0.000 A 
ATOM     28  C   UNL     1      -2.998  14.561  21.006  0.00  0.00    +0.000 A 
ATOM     29  C   UNL     1      -3.829  15.459  21.691  0.00  0.00    +0.000 A 
ATOM     30  C   UNL     1      -4.882  14.981  22.461  0.00  0.00    +0.000 A 
ATOM     31 CL   UNL     1      -5.899  16.078  23.307  0.00  0.00    +0.000 Cl
ATOM     32  C   UNL     1      -5.111  13.615  22.547  0.00  0.00    +0.000 A 
ATOM     33  C   UNL     1      -4.279  12.723  21.857  0.00  0.00    +0.000 A 
ENDBRANCH  25  27
ENDBRANCH   1  22
TORSDOF 3
ENDMDL
MODEL 5
REMARK VINA RESULT:      -9.2      1.284      1.972
REMARK  Name = 
REMARK  3 active torsions:
REMARK  status: ('A' for Active; 'I' for Inactive)
REMARK    1  A    between atoms: C_5  and  C_6
REMARK    2  A    between atoms: C_9  and  C_10
REMARK    3  A    between atoms: N_24  and  C_25
REMARK                            x       y       z     vdW  Elec       q    Type
REMARK                         _______ _______ _______ _____ _____    ______ ____
ROOT
ATOM      1  C   UNL     1       1.157   9.860  19.457  0.00  0.00    +0.000 A 
ATOM      2  C   UNL     1       1.593  10.223  18.190  0.00  0.00    +0.000 A 
ATOM      3  C   UNL     1       2.209   9.092  17.603  0.00  0.00    +0.000 A 
ATOM      4  C   UNL     1       2.099   8.068  18.520  0.00  0.00    +0.000 A 
ATOM      5  O   UNL     1       1.471   8.532  19.633  0.00  0.00    +0.000 OA
ENDROOT
BRANCH   4   6
ATOM      6  C   UNL     1       2.465   6.653  18.520  0.00  0.00    +0.000 A 
ATOM      7  C   UNL     1       1.587   5.661  18.006  0.00  0.00    +0.000 A 
ATOM      8  C   UNL     1       1.957   4.307  17.939  0.00  0.00    +0.000 A 
ATOM      9  C   UNL     1       3.214   3.979  18.398  0.00  0.00    +0.000 A 
ATOM     10  C   UNL     1       4.070   4.933  18.919  0.00  0.00    +0.000 A 
ATOM     11  C   UNL     1       3.728   6.268  18.999  0.00  0.00    +0.000 A 
ATOM     12  C   UNL     1       5.311   4.260  19.290  0.00  0.00    +0.000 C 
ATOM     13  O   UNL     1       6.284   4.803  19.772  0.00  0.00    +0.000 OA
ATOM     14  N   UNL     1       5.144   2.948  18.978  0.00  0.00    +0.000 N 
ATOM     15  C   UNL     1       3.921   2.699  18.432  0.00  0.00    +0.000 C 
ATOM     16  O   UNL     1       3.483   1.640  18.031  0.00  0.00    +0.000 OA
ATOM     17  H   UNL     1       5.856   2.246  19.107  0.00  0.00    +0.000 HD
ENDBRANCH   4   6
BRANCH   1  22
ATOM     18  N   UNL     1      -3.995  12.367  18.813  0.00  0.00    +0.000 NA
ATOM     19  C   UNL     1      -2.942  12.104  19.501  0.00  0.00    +0.000 C 
ATOM     20  S   UNL     1      -1.717  11.102  18.794  0.00  0.00    +0.000 S 
ATOM     21  C   UNL     1      -0.720  11.228  20.184  0.00  0.00    +0.000 C 
ATOM     22  C   UNL     1       0.464  10.645  20.417  0.00  0.00    +0.000 C 
ATOM     23  C   UNL     1      -1.378  12.080  21.217  0.00  0.00    +0.000 C 
ATOM     24  O   UNL     1      -0.856  12.256  22.314  0.00  0.00    +0.000 OA
ATOM     25  N   UNL     1      -2.607  12.549  20.758  0.00  0.00    +0.000 N 
ATOM     26  H   UNL     1      -3.906  11.876  17.915  0.00  0.00    +0.000 HD
BRANCH  25  27
ATOM     27  C   UNL     1      -3.443  13.411  21.548  0.00  0.00    +0.000 A 
ATOM     28  C   UNL     1      -4.390  12.890  22.449  0.00  0.00    +0.000 A 
ATOM     29  C   UNL     1      -5.201  13.728  23.228  0.00  0.00    +0.000 A 
ATOM     30  C   UNL     1      -5.083  15.107  23.115  0.00  0.00    +0.000 A 
ATOM     31 CL   UNL     1      -6.079  16.138  24.064  0.00  0.00    +0.000 Cl
ATOM     32  C   UNL     1      -4.160  15.652  22.234  0.00  0.00    +0.000 A 
ATOM     33  C   UNL     1      -3.351  14.810  21.461  0.00  0.00    +0.000 A 
ENDBRANCH  25  27
ENDBRANCH   1  22
TORSDOF 3
ENDMDL
MODEL 6
REMARK VINA RESULT:      -9.0      1.247      1.293
REMARK  Name = 
REMARK  3 active torsions:
REMARK  status: ('A' for Active; 'I' for Inactive)
REMARK    1  A    between atoms: C_5  and  C_6
REMARK    2  A    between atoms: C_9  and  C_10
REMARK    3  A    between atoms: N_24  and  C_25
REMARK                            x       y       z     vdW  Elec       q    Type
REMARK                         _______ _______ _______ _____ _____    ______ ____
ROOT
ATOM      1  C   UNL     1       1.306   9.541  19.791  0.00  0.00    +0.000 A 
ATOM      2  C   UNL     1       1.667   9.864  18.490  0.00  0.00    +0.000 A 
ATOM      3  C   UNL     1       2.183   8.695  17.881  0.00  0.00    +0.000 A 
ATOM      4  C   UNL     1       2.090   7.691  18.821  0.00  0.00    +0.000 A 
ATOM      5  O   UNL     1       1.568   8.202  19.968  0.00  0.00    +0.000 OA
ENDROOT
BRANCH   4   6
ATOM      6  C   UNL     1       2.386   6.260  18.820  0.00  0.00    +0.000 A 
ATOM      7  C   UNL     1       2.882   5.607  17.660  0.00  0.00    +0.000 A 
ATOM      8  C   UNL     1       3.234   4.247  17.669  0.00  0.00    +0.000 A 
ATOM      9  C   UNL     1       3.073   3.567  18.856  0.00  0.00    +0.000 A 
ATOM     10  C   UNL     1       2.572   4.187  19.987  0.00  0.00    +0.000 A 
ATOM     11  C   UNL     1       2.216   5.520  20.002  0.00  0.00    +0.000 A 
ATOM     12  C   UNL     1       2.550   3.199  21.061  0.00  0.00    +0.000 C 
ATOM     13  O   UNL     1       2.175   3.408  22.197  0.00  0.00    +0.000 OA
ATOM     14  N   UNL     1       3.033   2.045  20.531  0.00  0.00    +0.000 N 
ATOM     15  C   UNL     1       3.377   2.183  19.221  0.00  0.00    +0.000 C 
ATOM     16  O   UNL     1       3.855   1.348  18.481  0.00  0.00    +0.000 OA
ATOM     17  H   UNL     1       3.153   1.194  21.058  0.00  0.00    +0.000 HD
ENDBRANCH   4   6
BRANCH   1  22
ATOM     18  N   UNL     1      -3.502  12.683  19.291  0.00  0.00    +0.000 NA
ATOM     19  C   UNL     1      -2.483  12.270  19.958  0.00  0.00    +0.000 C 
ATOM     20  S   UNL     1      -1.398  11.149  19.204  0.00  0.00    +0.000 S 
ATOM     21  C   UNL     1      -0.381  11.105  20.585  0.00  0.00    +0.000 C 
ATOM     22  C   UNL     1       0.724  10.374  20.784  0.00  0.00    +0.000 C 
ATOM     23  C   UNL     1      -0.920  11.997  21.652  0.00  0.00    +0.000 C 
ATOM     24  O   UNL     1      -0.371  12.072  22.747  0.00  0.00    +0.000 OA
ATOM     25  N   UNL     1      -2.086  12.629  21.224  0.00  0.00    +0.000 N 
ATOM     26  H   UNL     1      -3.482  12.215  18.377  0.00  0.00    +0.000 HD
BRANCH  25  27
ATOM     27  C   UNL     1      -2.803  13.560  22.050  0.00  0.00    +0.000 A 
ATOM     28  C   UNL     1      -3.807  13.132  22.938  0.00  0.00    +0.000 A 
ATOM     29  C   UNL     1      -4.501  14.037  23.753  0.00  0.00    +0.000 A 
ATOM     30  C   UNL     1      -4.207  15.393  23.691  0.00  0.00    +0.000 A 
ATOM     31 CL   UNL     1      -5.060  16.507  24.684  0.00  0.00    +0.000 Cl
ATOM     32  C   UNL     1      -3.223  15.848  22.825  0.00  0.00    +0.000 A 
ATOM     33  C   UNL     1      -2.531  14.939  22.015  0.00  0.00    +0.000 A 
ENDBRANCH  25  27
ENDBRANCH   1  22
TORSDOF 3
ENDMDL
MODEL 7
REMARK VINA RESULT:      -9.0      1.370      1.796
REMARK  Name = 
REMARK  3 active torsions:
REMARK  status: ('A' for Active; 'I' for Inactive)
REMARK    1  A    between atoms: C_5  and  C_6
REMARK    2  A    between atoms: C_9  and  C_10
REMARK    3  A    between atoms: N_24  and  C_25
REMARK                            x       y       z     vdW  Elec       q    Type
REMARK                         _______ _______ _______ _____ _____    ______ ____
ROOT
ATOM      1  C   UNL     1       1.104   9.839  19.634  0.00  0.00    +0.000 A 
ATOM      2  C   UNL     1       1.455  10.149  18.327  0.00  0.00    +0.000 A 
ATOM      3  C   UNL     1       2.128   9.029  17.784  0.00  0.00    +0.000 A 
ATOM      4  C   UNL     1       2.138   8.063  18.767  0.00  0.00    +0.000 A 
ATOM      5  O   UNL     1       1.526   8.553  19.878  0.00  0.00    +0.000 OA
ENDROOT
BRANCH   4   6
ATOM      6  C   UNL     1       2.610   6.682  18.839  0.00  0.00    +0.000 A 
ATOM      7  C   UNL     1       2.260   5.835  19.925  0.00  0.00    +0.000 A 
ATOM      8  C   UNL     1       2.652   4.487  19.968  0.00  0.00    +0.000 A 
ATOM      9  C   UNL     1       3.400   4.018  18.910  0.00  0.00    +0.000 A 
ATOM     10  C   UNL     1       3.764   4.838  17.857  0.00  0.00    +0.000 A 
ATOM     11  C   UNL     1       3.394   6.166  17.793  0.00  0.00    +0.000 A 
ATOM     12  C   UNL     1       4.524   4.031  16.908  0.00  0.00    +0.000 C 
ATOM     13  O   UNL     1       4.991   4.434  15.862  0.00  0.00    +0.000 OA
ATOM     14  N   UNL     1       4.580   2.777  17.430  0.00  0.00    +0.000 N 
ATOM     15  C   UNL     1       3.924   2.683  18.620  0.00  0.00    +0.000 C 
ATOM     16  O   UNL     1       3.777   1.700  19.316  0.00  0.00    +0.000 OA
ATOM     17  H   UNL     1       5.028   1.999  16.971  0.00  0.00    +0.000 HD
ENDBRANCH   4   6
BRANCH   1  22
ATOM     18  N   UNL     1      -3.978  12.444  18.840  0.00  0.00    +0.000 NA
ATOM     19  C   UNL     1      -2.952  12.159  19.560  0.00  0.00    +0.000 C 
ATOM     20  S   UNL     1      -1.725  11.138  18.887  0.00  0.00    +0.000 S 
ATOM     21  C   UNL     1      -0.769  11.240  20.308  0.00  0.00    +0.000 C 
ATOM     22  C   UNL     1       0.396  10.634  20.575  0.00  0.00    +0.000 C 
ATOM     23  C   UNL     1      -1.444  12.100  21.324  0.00  0.00    +0.000 C 
ATOM     24  O   UNL     1      -0.953  12.263  22.436  0.00  0.00    +0.000 OA
ATOM     25  N   UNL     1      -2.649  12.594  20.828  0.00  0.00    +0.000 N 
ATOM     26  H   UNL     1      -3.870  11.955  17.943  0.00  0.00    +0.000 HD
BRANCH  25  27
ATOM     27  C   UNL     1      -3.494  13.468  21.595  0.00  0.00    +0.000 A 
ATOM     28  C   UNL     1      -4.500  12.962  22.438  0.00  0.00    +0.000 A 
ATOM     29  C   UNL     1      -5.319  13.812  23.195  0.00  0.00    +0.000 A 
ATOM     30  C   UNL     1      -5.150  15.189  23.117  0.00  0.00    +0.000 A 
ATOM     31 CL   UNL     1      -6.156  16.234  24.039  0.00  0.00    +0.000 Cl
ATOM     32  C   UNL     1      -4.168  15.719  22.293  0.00  0.00    +0.000 A 
ATOM     33  C   UNL     1      -3.350  14.865  21.542  0.00  0.00    +0.000 A 
ENDBRANCH  25  27
ENDBRANCH   1  22
TORSDOF 3
ENDMDL
MODEL 8
REMARK VINA RESULT:      -9.0      1.252      1.914
REMARK  Name = 
REMARK  3 active torsions:
REMARK  status: ('A' for Active; 'I' for Inactive)
REMARK    1  A    between atoms: C_5  and  C_6
REMARK    2  A    between atoms: C_9  and  C_10
REMARK    3  A    between atoms: N_24  and  C_25
REMARK                            x       y       z     vdW  Elec       q    Type
REMARK                         _______ _______ _______ _____ _____    ______ ____
ROOT
ATOM      1  C   UNL     1       1.306   9.670  19.733  0.00  0.00    +0.000 A 
ATOM      2  C   UNL     1       1.598   9.992  18.414  0.00  0.00    +0.000 A 
ATOM      3  C   UNL     1       2.173   8.851  17.807  0.00  0.00    +0.000 A 
ATOM      4  C   UNL     1       2.184   7.861  18.767  0.00  0.00    +0.000 A 
ATOM      5  O   UNL     1       1.667   8.356  19.923  0.00  0.00    +0.000 OA
ENDROOT
BRANCH   4   6
ATOM      6  C   UNL     1       2.579   6.454  18.779  0.00  0.00    +0.000 A 
ATOM      7  C   UNL     1       2.092   5.557  19.768  0.00  0.00    +0.000 A 
ATOM      8  C   UNL     1       2.411   4.189  19.748  0.00  0.00    +0.000 A 
ATOM      9  C   UNL     1       3.226   3.751  18.726  0.00  0.00    +0.000 A 
ATOM     10  C   UNL     1       3.723   4.619  17.771  0.00  0.00    +0.000 A 
ATOM     11  C   UNL     1       3.426   5.967  17.771  0.00  0.00    +0.000 A 
ATOM     12  C   UNL     1       4.524   3.836  16.835  0.00  0.00    +0.000 C 
ATOM     13  O   UNL     1       5.102   4.282  15.864  0.00  0.00    +0.000 OA
ATOM     14  N   UNL     1       4.471   2.549  17.268  0.00  0.00    +0.000 N 
ATOM     15  C   UNL     1       3.708   2.412  18.388  0.00  0.00    +0.000 C 
ATOM     16  O   UNL     1       3.450   1.394  18.997  0.00  0.00    +0.000 OA
ATOM     17  H   UNL     1       4.920   1.780  16.795  0.00  0.00    +0.000 HD
ENDBRANCH   4   6
BRANCH   1  22
ATOM     18  N   UNL     1      -3.600  12.662  19.262  0.00  0.00    +0.000 NA
ATOM     19  C   UNL     1      -2.567  12.278  19.924  0.00  0.00    +0.000 C 
ATOM     20  S   UNL     1      -1.449  11.196  19.161  0.00  0.00    +0.000 S 
ATOM     21  C   UNL     1      -0.427  11.177  20.539  0.00  0.00    +0.000 C 
ATOM     22  C   UNL     1       0.701  10.479  20.731  0.00  0.00    +0.000 C 
ATOM     23  C   UNL     1      -0.991  12.046  21.613  0.00  0.00    +0.000 C 
ATOM     24  O   UNL     1      -0.441  12.132  22.706  0.00  0.00    +0.000 OA
ATOM     25  N   UNL     1      -2.177  12.643  21.191  0.00  0.00    +0.000 N 
ATOM     26  H   UNL     1      -3.568  12.200  18.346  0.00  0.00    +0.000 HD
BRANCH  25  27
ATOM     27  C   UNL     1      -2.920  13.547  22.024  0.00  0.00    +0.000 A 
ATOM     28  C   UNL     1      -2.687  14.934  21.992  0.00  0.00    +0.000 A 
ATOM     29  C   UNL     1      -3.418  15.820  22.798  0.00  0.00    +0.000 A 
ATOM     30  C   UNL     1      -4.394  15.332  23.657  0.00  0.00    +0.000 A 
ATOM     31 CL   UNL     1      -5.288  16.413  24.649  0.00  0.00    +0.000 Cl
ATOM     32  C   UNL     1      -4.647  13.969  23.713  0.00  0.00    +0.000 A 
ATOM     33  C   UNL     1      -3.916  13.089  22.904  0.00  0.00    +0.000 A 
ENDBRANCH  25  27
ENDBRANCH   1  22
TORSDOF 3
ENDMDL
MODEL 9
REMARK VINA RESULT:      -9.0      2.915      3.735
REMARK  Name = 
REMARK  3 active torsions:
REMARK  status: ('A' for Active; 'I' for Inactive)
REMARK    1  A    between atoms: C_5  and  C_6
REMARK    2  A    between atoms: C_9  and  C_10
REMARK    3  A    between atoms: N_24  and  C_25
REMARK                            x       y       z     vdW  Elec       q    Type
REMARK                         _______ _______ _______ _____ _____    ______ ____
ROOT
ATOM      1  C   UNL     1       1.598   7.778  20.680  0.00  0.00    +0.000 A 
ATOM      2  C   UNL     1       1.091   6.583  21.172  0.00  0.00    +0.000 A 
ATOM      3  C   UNL     1       1.754   5.525  20.505  0.00  0.00    +0.000 A 
ATOM      4  C   UNL     1       2.664   6.110  19.652  0.00  0.00    +0.000 A 
ATOM      5  O   UNL     1       2.566   7.463  19.755  0.00  0.00    +0.000 OA
ENDROOT
BRANCH   4   6
ATOM      6  C   UNL     1       3.685   5.599  18.739  0.00  0.00    +0.000 A 
ATOM      7  C   UNL     1       3.361   5.203  17.413  0.00  0.00    +0.000 A 
ATOM      8  C   UNL     1       4.345   4.775  16.507  0.00  0.00    +0.000 A 
ATOM      9  C   UNL     1       5.646   4.750  16.961  0.00  0.00    +0.000 A 
ATOM     10  C   UNL     1       5.970   5.113  18.256  0.00  0.00    +0.000 A 
ATOM     11  C   UNL     1       5.021   5.534  19.166  0.00  0.00    +0.000 A 
ATOM     12  C   UNL     1       7.418   4.994  18.401  0.00  0.00    +0.000 C 
ATOM     13  O   UNL     1       8.044   5.243  19.411  0.00  0.00    +0.000 OA
ATOM     14  N   UNL     1       7.889   4.569  17.199  0.00  0.00    +0.000 N 
ATOM     15  C   UNL     1       6.895   4.408  16.282  0.00  0.00    +0.000 C 
ATOM     16  O   UNL     1       6.997   4.064  15.122  0.00  0.00    +0.000 OA
ATOM     17  H   UNL     1       8.867   4.421  17.001  0.00  0.00    +0.000 HD
ENDBRANCH   4   6
BRANCH   1  22
ATOM     18  N   UNL     1      -1.190  11.682  17.483  0.00  0.00    +0.000 NA
ATOM     19  C   UNL     1      -0.594  11.321  18.562  0.00  0.00    +0.000 C 
ATOM     20  S   UNL     1       0.017   9.703  18.670  0.00  0.00    +0.000 S 
ATOM     21  C   UNL     1       0.642   9.973  20.244  0.00  0.00    +0.000 C 
ATOM     22  C   UNL     1       1.263   9.107  21.056  0.00  0.00    +0.000 C 
ATOM     23  C   UNL     1       0.356  11.372  20.680  0.00  0.00    +0.000 C 
ATOM     24  O   UNL     1       0.672  11.759  21.801  0.00  0.00    +0.000 OA
ATOM     25  N   UNL     1      -0.320  12.070  19.681  0.00  0.00    +0.000 N 
ATOM     26  H   UNL     1      -1.207  10.871  16.853  0.00  0.00    +0.000 HD
BRANCH  25  27
ATOM     27  C   UNL     1      -0.701  13.447  19.832  0.00  0.00    +0.000 A 
ATOM     28  C   UNL     1      -1.857  13.816  20.543  0.00  0.00    +0.000 A 
ATOM     29  C   UNL     1      -2.226  15.160  20.700  0.00  0.00    +0.000 A 
ATOM     30  C   UNL     1      -1.445  16.163  20.140  0.00  0.00    +0.000 A 
ATOM     31 CL   UNL     1      -1.897  17.811  20.325  0.00  0.00    +0.000 Cl
ATOM     32  C   UNL     1      -0.300  15.833  19.431  0.00  0.00    +0.000 A 
ATOM     33  C   UNL     1       0.066  14.488  19.280  0.00  0.00    +0.000 A 
ENDBRANCH  25  27
ENDBRANCH   1  22
TORSDOF 3
ENDMDL
