MODEL 1
REMARK VINA RESULT:      -7.5      0.000      0.000
REMARK  Name = 
REMARK  7 active torsions:
REMARK  status: ('A' for Active; 'I' for Inactive)
REMARK    1  A    between atoms: C_1  and  C_2
REMARK    2  A    between atoms: C_2  and  O_3
REMARK    3  A    between atoms: O_3  and  C_4
REMARK    4  A    between atoms: C_4  and  C_5
REMARK    5  A    between atoms: C_8  and  O_9
REMARK    6  A    between atoms: O_9  and  C_10
REMARK    7  A    between atoms: C_15  and  C_16
REMARK                            x       y       z     vdW  Elec       q    Type
REMARK                         _______ _______ _______ _____ _____    ______ ____
ROOT
ATOM      1  C   UNL     1       3.435   4.681  19.018  0.00  0.00    +0.000 C 
ATOM      2  S   UNL     1       2.541   3.907  17.591  0.00  0.00    +0.000 S 
ATOM      3  C   UNL     1       3.777   3.576  16.452  0.00  0.00    +0.000 C 
ATOM      4  C   UNL     1       5.077   3.877  16.571  0.00  0.00    +0.000 C 
ATOM      5  C   UNL     1       6.011   3.509  15.443  0.00  0.00    +0.000 C 
ATOM      6  N   UNL     1       5.602   4.499  17.686  0.00  0.00    +0.000 N 
ATOM      7  C   UNL     1       4.952   4.861  18.797  0.00  0.00    +0.000 A 
ATOM      8  N   UNL     1       5.718   5.384  19.708  0.00  0.00    +0.000 NA
ATOM      9  O   UNL     1       7.015   5.401  19.149  0.00  0.00    +0.000 OA
ATOM     10  C   UNL     1       6.899   4.853  17.894  0.00  0.00    +0.000 A 
ATOM     11  O   UNL     1       7.855   4.729  17.142  0.00  0.00    +0.000 OA
ENDROOT
BRANCH   1  12
ATOM     12  C   UNL     1       2.855   6.106  19.242  0.00  0.00    +0.000 A 
ATOM     13  C   UNL     1       2.873   7.080  18.229  0.00  0.00    +0.000 A 
ATOM     14  C   UNL     1       2.245   8.321  18.411  0.00  0.00    +0.000 A 
ATOM     15  C   UNL     1       1.571   8.615  19.597  0.00  0.00    +0.000 A 
ATOM     16  C   UNL     1       1.561   7.673  20.620  0.00  0.00    +0.000 A 
ATOM     17  C   UNL     1       2.177   6.432  20.437  0.00  0.00    +0.000 A 
BRANCH  15  18
ATOM     18  O   UNL     1       0.983   9.848  19.670  0.00  0.00    +0.000 OA
ATOM     19  C   UNL     1       0.203  10.216  18.535  0.00  0.00    +0.000 C 
ENDBRANCH  15  18
ENDBRANCH   1  12
BRANCH   1  20
ATOM     20  O   UNL     1       3.211   3.877  20.200  0.00  0.00    +0.000 OA
BRANCH  20  22
ATOM     21  C   UNL     1       1.266   2.802  21.133  0.00  0.00    +0.000 C 
ATOM     22  C   UNL     1       2.301   2.784  20.027  0.00  0.00    +0.000 C 
ENDBRANCH  20  22
ENDBRANCH   1  20
TORSDOF 4
ENDMDL
MODEL 2
REMARK VINA RESULT:      -7.3      0.264      1.058
REMARK  Name = 
REMARK  7 active torsions:
REMARK  status: ('A' for Active; 'I' for Inactive)
REMARK    1  A    between atoms: C_1  and  C_2
REMARK    2  A    between atoms: C_2  and  O_3
REMARK    3  A    between atoms: O_3  and  C_4
REMARK    4  A    between atoms: C_4  and  C_5
REMARK    5  A    between atoms: C_8  and  O_9
REMARK    6  A    between atoms: O_9  and  C_10
REMARK    7  A    between atoms: C_15  and  C_16
REMARK                            x       y       z     vdW  Elec       q    Type
REMARK                         _______ _______ _______ _____ _____    ______ ____
ROOT
ATOM      1  C   UNL     1       3.342   4.654  19.018  0.00  0.00    +0.000 C 
ATOM      2  S   UNL     1       2.509   3.772  17.617  0.00  0.00    +0.000 S 
ATOM      3  C   UNL     1       3.762   3.513  16.479  0.00  0.00    +0.000 C 
ATOM      4  C   UNL     1       5.033   3.923  16.581  0.00  0.00    +0.000 C 
ATOM      5  C   UNL     1       5.989   3.603  15.456  0.00  0.00    +0.000 C 
ATOM      6  N   UNL     1       5.511   4.615  17.675  0.00  0.00    +0.000 N 
ATOM      7  C   UNL     1       4.838   4.952  18.781  0.00  0.00    +0.000 A 
ATOM      8  N   UNL     1       5.563   5.561  19.673  0.00  0.00    +0.000 NA
ATOM      9  O   UNL     1       6.852   5.669  19.105  0.00  0.00    +0.000 OA
ATOM     10  C   UNL     1       6.775   5.080  17.866  0.00  0.00    +0.000 A 
ATOM     11  O   UNL     1       7.734   5.015  17.111  0.00  0.00    +0.000 OA
ENDROOT
BRANCH   1  12
ATOM     12  C   UNL     1       2.649   6.033  19.208  0.00  0.00    +0.000 A 
ATOM     13  C   UNL     1       2.074   6.408  20.434  0.00  0.00    +0.000 A 
ATOM     14  C   UNL     1       1.553   7.698  20.621  0.00  0.00    +0.000 A 
ATOM     15  C   UNL     1       1.609   8.647  19.599  0.00  0.00    +0.000 A 
ATOM     16  C   UNL     1       2.154   8.288  18.372  0.00  0.00    +0.000 A 
ATOM     17  C   UNL     1       2.682   7.007  18.187  0.00  0.00    +0.000 A 
BRANCH  15  18
ATOM     18  O   UNL     1       1.084   9.877  19.887  0.00  0.00    +0.000 OA
ATOM     19  C   UNL     1       0.937  10.750  18.770  0.00  0.00    +0.000 C 
ENDBRANCH  15  18
ENDBRANCH   1  12
BRANCH   1  20
ATOM     20  O   UNL     1       3.191   3.866  20.222  0.00  0.00    +0.000 OA
BRANCH  20  22
ATOM     21  C   UNL     1       1.371   2.743  21.334  0.00  0.00    +0.000 C 
ATOM     22  C   UNL     1       2.275   2.769  20.118  0.00  0.00    +0.000 C 
ENDBRANCH  20  22
ENDBRANCH   1  20
TORSDOF 4
ENDMDL
MODEL 3
REMARK VINA RESULT:      -6.9      2.202      3.932
REMARK  Name = 
REMARK  7 active torsions:
REMARK  status: ('A' for Active; 'I' for Inactive)
REMARK    1  A    between atoms: C_1  and  C_2
REMARK    2  A    between atoms: C_2  and  O_3
REMARK    3  A    between atoms: O_3  and  C_4
REMARK    4  A    between atoms: C_4  and  C_5
REMARK    5  A    between atoms: C_8  and  O_9
REMARK    6  A    between atoms: O_9  and  C_10
REMARK    7  A    between atoms: C_15  and  C_16
REMARK                            x       y       z     vdW  Elec       q    Type
REMARK                         _______ _______ _______ _____ _____    ______ ____
ROOT
ATOM      1  C   UNL     1       3.705   5.890  17.934  0.00  0.00    +0.000 C 
ATOM      2  S   UNL     1       5.303   5.758  18.864  0.00  0.00    +0.000 S 
ATOM      3  C   UNL     1       5.259   4.191  19.554  0.00  0.00    +0.000 C 
ATOM      4  C   UNL     1       4.254   3.308  19.472  0.00  0.00    +0.000 C 
ATOM      5  C   UNL     1       4.404   1.975  20.164  0.00  0.00    +0.000 C 
ATOM      6  N   UNL     1       3.092   3.560  18.771  0.00  0.00    +0.000 N 
ATOM      7  C   UNL     1       2.790   4.653  18.062  0.00  0.00    +0.000 A 
ATOM      8  N   UNL     1       1.638   4.591  17.463  0.00  0.00    +0.000 NA
ATOM      9  O   UNL     1       1.091   3.340  17.823  0.00  0.00    +0.000 OA
ATOM     10  C   UNL     1       2.017   2.737  18.639  0.00  0.00    +0.000 A 
ATOM     11  O   UNL     1       1.838   1.631  19.128  0.00  0.00    +0.000 OA
ENDROOT
BRANCH   1  12
ATOM     12  C   UNL     1       2.902   7.089  18.512  0.00  0.00    +0.000 A 
ATOM     13  C   UNL     1       2.543   8.191  17.718  0.00  0.00    +0.000 A 
ATOM     14  C   UNL     1       1.722   9.209  18.227  0.00  0.00    +0.000 A 
ATOM     15  C   UNL     1       1.226   9.144  19.530  0.00  0.00    +0.000 A 
ATOM     16  C   UNL     1       1.586   8.072  20.338  0.00  0.00    +0.000 A 
ATOM     17  C   UNL     1       2.396   7.052  19.831  0.00  0.00    +0.000 A 
BRANCH  15  18
ATOM     18  O   UNL     1       0.425  10.181  19.925  0.00  0.00    +0.000 OA
ATOM     19  C   UNL     1      -0.567  10.575  18.980  0.00  0.00    +0.000 C 
ENDBRANCH  15  18
ENDBRANCH   1  12
BRANCH   1  20
ATOM     20  O   UNL     1       3.997   6.133  16.537  0.00  0.00    +0.000 OA
BRANCH  20  22
ATOM     21  C   UNL     1       5.559   4.963  15.123  0.00  0.00    +0.000 C 
ATOM     22  C   UNL     1       5.381   6.034  16.181  0.00  0.00    +0.000 C 
ENDBRANCH  20  22
ENDBRANCH   1  20
TORSDOF 4
ENDMDL
MODEL 4
REMARK VINA RESULT:      -6.8      2.272      4.081
REMARK  Name = 
REMARK  7 active torsions:
REMARK  status: ('A' for Active; 'I' for Inactive)
REMARK    1  A    between atoms: C_1  and  C_2
REMARK    2  A    between atoms: C_2  and  O_3
REMARK    3  A    between atoms: O_3  and  C_4
REMARK    4  A    between atoms: C_4  and  C_5
REMARK    5  A    between atoms: C_8  and  O_9
REMARK    6  A    between atoms: O_9  and  C_10
REMARK    7  A    between atoms: C_15  and  C_16
REMARK                            x       y       z     vdW  Elec       q    Type
REMARK                         _______ _______ _______ _____ _____    ______ ____
ROOT
ATOM      1  C   UNL     1       3.546   5.909  17.990  0.00  0.00    +0.000 C 
ATOM      2  S   UNL     1       5.125   5.849  18.958  0.00  0.00    +0.000 S 
ATOM      3  C   UNL     1       5.155   4.268  19.616  0.00  0.00    +0.000 C 
ATOM      4  C   UNL     1       4.206   3.332  19.492  0.00  0.00    +0.000 C 
ATOM      5  C   UNL     1       4.416   1.995  20.162  0.00  0.00    +0.000 C 
ATOM      6  N   UNL     1       3.048   3.531  18.767  0.00  0.00    +0.000 N 
ATOM      7  C   UNL     1       2.701   4.619  18.071  0.00  0.00    +0.000 A 
ATOM      8  N   UNL     1       1.569   4.503  17.442  0.00  0.00    +0.000 NA
ATOM      9  O   UNL     1       1.087   3.215  17.764  0.00  0.00    +0.000 OA
ATOM     10  C   UNL     1       2.026   2.649  18.592  0.00  0.00    +0.000 A 
ATOM     11  O   UNL     1       1.900   1.525  19.055  0.00  0.00    +0.000 OA
ENDROOT
BRANCH   1  12
ATOM     12  C   UNL     1       2.660   7.047  18.571  0.00  0.00    +0.000 A 
ATOM     13  C   UNL     1       2.257   7.057  19.917  0.00  0.00    +0.000 A 
ATOM     14  C   UNL     1       1.554   8.147  20.450  0.00  0.00    +0.000 A 
ATOM     15  C   UNL     1       1.252   9.259  19.662  0.00  0.00    +0.000 A 
ATOM     16  C   UNL     1       1.624   9.259  18.323  0.00  0.00    +0.000 A 
ATOM     17  C   UNL     1       2.333   8.178  17.791  0.00  0.00    +0.000 A 
BRANCH  15  18
ATOM     18  O   UNL     1       0.574  10.273  20.281  0.00  0.00    +0.000 OA
ATOM     19  C   UNL     1      -0.608  10.709  19.614  0.00  0.00    +0.000 C 
ENDBRANCH  15  18
ENDBRANCH   1  12
BRANCH   1  20
ATOM     20  O   UNL     1       3.857   6.196  16.606  0.00  0.00    +0.000 OA
BRANCH  20  22
ATOM     21  C   UNL     1       5.600   5.345  15.176  0.00  0.00    +0.000 C 
ATOM     22  C   UNL     1       5.254   6.294  16.306  0.00  0.00    +0.000 C 
ENDBRANCH  20  22
ENDBRANCH   1  20
TORSDOF 4
ENDMDL
MODEL 5
REMARK VINA RESULT:      -6.7      2.471      6.237
REMARK  Name = 
REMARK  7 active torsions:
REMARK  status: ('A' for Active; 'I' for Inactive)
REMARK    1  A    between atoms: C_1  and  C_2
REMARK    2  A    between atoms: C_2  and  O_3
REMARK    3  A    between atoms: O_3  and  C_4
REMARK    4  A    between atoms: C_4  and  C_5
REMARK    5  A    between atoms: C_8  and  O_9
REMARK    6  A    between atoms: O_9  and  C_10
REMARK    7  A    between atoms: C_15  and  C_16
REMARK                            x       y       z     vdW  Elec       q    Type
REMARK                         _______ _______ _______ _____ _____    ______ ____
ROOT
ATOM      1  C   UNL     1       5.429   5.785  17.638  0.00  0.00    +0.000 C 
ATOM      2  S   UNL     1       4.089   7.032  17.352  0.00  0.00    +0.000 S 
ATOM      3  C   UNL     1       2.812   6.518  18.371  0.00  0.00    +0.000 C 
ATOM      4  C   UNL     1       2.795   5.422  19.142  0.00  0.00    +0.000 C 
ATOM      5  C   UNL     1       1.561   5.135  19.964  0.00  0.00    +0.000 C 
ATOM      6  N   UNL     1       3.861   4.550  19.227  0.00  0.00    +0.000 N 
ATOM      7  C   UNL     1       5.047   4.653  18.616  0.00  0.00    +0.000 A 
ATOM      8  N   UNL     1       5.882   3.705  18.924  0.00  0.00    +0.000 NA
ATOM      9  O   UNL     1       5.183   2.860  19.814  0.00  0.00    +0.000 OA
ATOM     10  C   UNL     1       3.935   3.412  19.969  0.00  0.00    +0.000 A 
ATOM     11  O   UNL     1       3.079   2.909  20.682  0.00  0.00    +0.000 OA
ENDROOT
BRANCH   1  12
ATOM     12  C   UNL     1       5.754   5.097  16.282  0.00  0.00    +0.000 A 
ATOM     13  C   UNL     1       4.773   4.409  15.548  0.00  0.00    +0.000 A 
ATOM     14  C   UNL     1       5.056   3.893  14.275  0.00  0.00    +0.000 A 
ATOM     15  C   UNL     1       6.314   4.065  13.696  0.00  0.00    +0.000 A 
ATOM     16  C   UNL     1       7.305   4.724  14.415  0.00  0.00    +0.000 A 
ATOM     17  C   UNL     1       7.023   5.248  15.680  0.00  0.00    +0.000 A 
BRANCH  15  18
ATOM     18  O   UNL     1       6.484   3.533  12.447  0.00  0.00    +0.000 OA
ATOM     19  C   UNL     1       5.307   2.989  11.855  0.00  0.00    +0.000 C 
ENDBRANCH  15  18
ENDBRANCH   1  12
BRANCH   1  20
ATOM     20  O   UNL     1       6.607   6.469  18.128  0.00  0.00    +0.000 OA
BRANCH  20  22
ATOM     21  C   UNL     1       8.179   8.291  17.992  0.00  0.00    +0.000 C 
ATOM     22  C   UNL     1       6.802   7.789  17.606  0.00  0.00    +0.000 C 
ENDBRANCH  20  22
ENDBRANCH   1  20
TORSDOF 4
ENDMDL
MODEL 6
REMARK VINA RESULT:      -6.4      2.485      6.227
REMARK  Name = 
REMARK  7 active torsions:
REMARK  status: ('A' for Active; 'I' for Inactive)
REMARK    1  A    between atoms: C_1  and  C_2
REMARK    2  A    between atoms: C_2  and  O_3
REMARK    3  A    between atoms: O_3  and  C_4
REMARK    4  A    between atoms: C_4  and  C_5
REMARK    5  A    between atoms: C_8  and  O_9
REMARK    6  A    between atoms: O_9  and  C_10
REMARK    7  A    between atoms: C_15  and  C_16
REMARK                            x       y       z     vdW  Elec       q    Type
REMARK                         _______ _______ _______ _____ _____    ______ ____
ROOT
ATOM      1  C   UNL     1       5.512   5.962  17.673  0.00  0.00    +0.000 C 
ATOM      2  S   UNL     1       4.171   7.232  17.512  0.00  0.00    +0.000 S 
ATOM      3  C   UNL     1       2.927   6.662  18.542  0.00  0.00    +0.000 C 
ATOM      4  C   UNL     1       2.929   5.521  19.244  0.00  0.00    +0.000 C 
ATOM      5  C   UNL     1       1.723   5.190  20.090  0.00  0.00    +0.000 C 
ATOM      6  N   UNL     1       3.992   4.640  19.238  0.00  0.00    +0.000 N 
ATOM      7  C   UNL     1       5.156   4.775  18.593  0.00  0.00    +0.000 A 
ATOM      8  N   UNL     1       5.995   3.805  18.813  0.00  0.00    +0.000 NA
ATOM      9  O   UNL     1       5.322   2.910  19.674  0.00  0.00    +0.000 OA
ATOM     10  C   UNL     1       4.084   3.458  19.906  0.00  0.00    +0.000 A 
ATOM     11  O   UNL     1       3.250   2.916  20.616  0.00  0.00    +0.000 OA
ENDROOT
BRANCH   1  12
ATOM     12  C   UNL     1       5.784   5.358  16.267  0.00  0.00    +0.000 A 
ATOM     13  C   UNL     1       7.081   5.287  15.731  0.00  0.00    +0.000 A 
ATOM     14  C   UNL     1       7.321   4.637  14.511  0.00  0.00    +0.000 A 
ATOM     15  C   UNL     1       6.281   4.028  13.807  0.00  0.00    +0.000 A 
ATOM     16  C   UNL     1       4.988   4.106  14.310  0.00  0.00    +0.000 A 
ATOM     17  C   UNL     1       4.747   4.745  15.530  0.00  0.00    +0.000 A 
BRANCH  15  18
ATOM     18  O   UNL     1       6.624   3.412  12.635  0.00  0.00    +0.000 OA
ATOM     19  C   UNL     1       5.529   2.917  11.867  0.00  0.00    +0.000 C 
ENDBRANCH  15  18
ENDBRANCH   1  12
BRANCH   1  20
ATOM     20  O   UNL     1       6.711   6.610  18.162  0.00  0.00    +0.000 OA
BRANCH  20  22
ATOM     21  C   UNL     1       8.277   8.442  18.148  0.00  0.00    +0.000 C 
ATOM     22  C   UNL     1       7.068   7.818  17.480  0.00  0.00    +0.000 C 
ENDBRANCH  20  22
ENDBRANCH   1  20
TORSDOF 4
ENDMDL
MODEL 7
REMARK VINA RESULT:      -6.1      2.380      5.970
REMARK  Name = 
REMARK  7 active torsions:
REMARK  status: ('A' for Active; 'I' for Inactive)
REMARK    1  A    between atoms: C_1  and  C_2
REMARK    2  A    between atoms: C_2  and  O_3
REMARK    3  A    between atoms: O_3  and  C_4
REMARK    4  A    between atoms: C_4  and  C_5
REMARK    5  A    between atoms: C_8  and  O_9
REMARK    6  A    between atoms: O_9  and  C_10
REMARK    7  A    between atoms: C_15  and  C_16
REMARK                            x       y       z     vdW  Elec       q    Type
REMARK                         _______ _______ _______ _____ _____    ______ ____
ROOT
ATOM      1  C   UNL     1       4.890   5.685  18.206  0.00  0.00    +0.000 C 
ATOM      2  S   UNL     1       3.466   6.864  18.078  0.00  0.00    +0.000 S 
ATOM      3  C   UNL     1       2.247   6.157  19.053  0.00  0.00    +0.000 C 
ATOM      4  C   UNL     1       2.318   4.986  19.699  0.00  0.00    +0.000 C 
ATOM      5  C   UNL     1       1.124   4.529  20.503  0.00  0.00    +0.000 C 
ATOM      6  N   UNL     1       3.441   4.183  19.672  0.00  0.00    +0.000 N 
ATOM      7  C   UNL     1       4.603   4.431  19.059  0.00  0.00    +0.000 A 
ATOM      8  N   UNL     1       5.505   3.512  19.248  0.00  0.00    +0.000 NA
ATOM      9  O   UNL     1       4.882   2.531  20.051  0.00  0.00    +0.000 OA
ATOM     10  C   UNL     1       3.604   2.978  20.283  0.00  0.00    +0.000 A 
ATOM     11  O   UNL     1       2.799   2.345  20.949  0.00  0.00    +0.000 OA
ENDROOT
BRANCH   1  12
ATOM     12  C   UNL     1       5.229   5.172  16.778  0.00  0.00    +0.000 A 
ATOM     13  C   UNL     1       5.259   6.035  15.669  0.00  0.00    +0.000 A 
ATOM     14  C   UNL     1       5.676   5.577  14.410  0.00  0.00    +0.000 A 
ATOM     15  C   UNL     1       6.089   4.256  14.230  0.00  0.00    +0.000 A 
ATOM     16  C   UNL     1       6.046   3.381  15.310  0.00  0.00    +0.000 A 
ATOM     17  C   UNL     1       5.640   3.837  16.567  0.00  0.00    +0.000 A 
BRANCH  15  18
ATOM     18  O   UNL     1       6.488   3.914  12.967  0.00  0.00    +0.000 OA
ATOM     19  C   UNL     1       5.520   3.204  12.197  0.00  0.00    +0.000 C 
ENDBRANCH  15  18
ENDBRANCH   1  12
BRANCH   1  20
ATOM     20  O   UNL     1       6.031   6.389  18.750  0.00  0.00    +0.000 OA
BRANCH  20  22
ATOM     21  C   UNL     1       7.793   7.689  17.743  0.00  0.00    +0.000 C 
ATOM     22  C   UNL     1       7.228   6.301  17.968  0.00  0.00    +0.000 C 
ENDBRANCH  20  22
ENDBRANCH   1  20
TORSDOF 4
ENDMDL
MODEL 8
REMARK VINA RESULT:      -6.0      2.403      6.061
REMARK  Name = 
REMARK  7 active torsions:
REMARK  status: ('A' for Active; 'I' for Inactive)
REMARK    1  A    between atoms: C_1  and  C_2
REMARK    2  A    between atoms: C_2  and  O_3
REMARK    3  A    between atoms: O_3  and  C_4
REMARK    4  A    between atoms: C_4  and  C_5
REMARK    5  A    between atoms: C_8  and  O_9
REMARK    6  A    between atoms: O_9  and  C_10
REMARK    7  A    between atoms: C_15  and  C_16
REMARK                            x       y       z     vdW  Elec       q    Type
REMARK                         _______ _______ _______ _____ _____    ______ ____
ROOT
ATOM      1  C   UNL     1       5.064   5.658  18.194  0.00  0.00    +0.000 C 
ATOM      2  S   UNL     1       3.705   6.907  18.030  0.00  0.00    +0.000 S 
ATOM      3  C   UNL     1       2.428   6.266  18.975  0.00  0.00    +0.000 C 
ATOM      4  C   UNL     1       2.424   5.093  19.623  0.00  0.00    +0.000 C 
ATOM      5  C   UNL     1       1.188   4.699  20.396  0.00  0.00    +0.000 C 
ATOM      6  N   UNL     1       3.504   4.234  19.624  0.00  0.00    +0.000 N 
ATOM      7  C   UNL     1       4.693   4.422  19.041  0.00  0.00    +0.000 A 
ATOM      8  N   UNL     1       5.542   3.459  19.253  0.00  0.00    +0.000 NA
ATOM      9  O   UNL     1       4.850   2.512  20.040  0.00  0.00    +0.000 OA
ATOM     10  C   UNL     1       3.591   3.024  20.240  0.00  0.00    +0.000 A 
ATOM     11  O   UNL     1       2.738   2.433  20.886  0.00  0.00    +0.000 OA
ENDROOT
BRANCH   1  12
ATOM     12  C   UNL     1       5.412   5.126  16.775  0.00  0.00    +0.000 A 
ATOM     13  C   UNL     1       5.736   3.778  16.550  0.00  0.00    +0.000 A 
ATOM     14  C   UNL     1       5.937   3.293  15.248  0.00  0.00    +0.000 A 
ATOM     15  C   UNL     1       5.801   4.133  14.143  0.00  0.00    +0.000 A 
ATOM     16  C   UNL     1       5.501   5.476  14.346  0.00  0.00    +0.000 A 
ATOM     17  C   UNL     1       5.292   5.959  15.641  0.00  0.00    +0.000 A 
BRANCH  15  18
ATOM     18  O   UNL     1       6.006   3.559  12.918  0.00  0.00    +0.000 OA
ATOM     19  C   UNL     1       7.065   4.128  12.151  0.00  0.00    +0.000 C 
ENDBRANCH  15  18
ENDBRANCH   1  12
BRANCH   1  20
ATOM     20  O   UNL     1       6.226   6.305  18.766  0.00  0.00    +0.000 OA
BRANCH  20  22
ATOM     21  C   UNL     1       7.773   7.812  17.697  0.00  0.00    +0.000 C 
ATOM     22  C   UNL     1       7.370   6.366  17.908  0.00  0.00    +0.000 C 
ENDBRANCH  20  22
ENDBRANCH   1  20
TORSDOF 4
ENDMDL
MODEL 9
REMARK VINA RESULT:      -6.0      2.835      4.805
REMARK  Name = 
REMARK  7 active torsions:
REMARK  status: ('A' for Active; 'I' for Inactive)
REMARK    1  A    between atoms: C_1  and  C_2
REMARK    2  A    between atoms: C_2  and  O_3
REMARK    3  A    between atoms: O_3  and  C_4
REMARK    4  A    between atoms: C_4  and  C_5
REMARK    5  A    between atoms: C_8  and  O_9
REMARK    6  A    between atoms: O_9  and  C_10
REMARK    7  A    between atoms: C_15  and  C_16
REMARK                            x       y       z     vdW  Elec       q    Type
REMARK                         _______ _______ _______ _____ _____    ______ ____
ROOT
ATOM      1  C   UNL     1       5.374   4.858  16.652  0.00  0.00    +0.000 C 
ATOM      2  S   UNL     1       4.852   6.358  15.696  0.00  0.00    +0.000 S 
ATOM      3  C   UNL     1       5.876   7.603  16.276  0.00  0.00    +0.000 C 
ATOM      4  C   UNL     1       6.794   7.497  17.246  0.00  0.00    +0.000 C 
ATOM      5  C   UNL     1       7.592   8.723  17.623  0.00  0.00    +0.000 C 
ATOM      6  N   UNL     1       7.051   6.314  17.908  0.00  0.00    +0.000 N 
ATOM      7  C   UNL     1       6.486   5.121  17.690  0.00  0.00    +0.000 A 
ATOM      8  N   UNL     1       6.964   4.168  18.435  0.00  0.00    +0.000 NA
ATOM      9  O   UNL     1       7.934   4.782  19.258  0.00  0.00    +0.000 OA
ATOM     10  C   UNL     1       7.951   6.110  18.907  0.00  0.00    +0.000 A 
ATOM     11  O   UNL     1       8.689   6.921  19.447  0.00  0.00    +0.000 OA
ENDROOT
BRANCH   1  12
ATOM     12  C   UNL     1       4.147   4.337  17.450  0.00  0.00    +0.000 A 
ATOM     13  C   UNL     1       3.793   2.977  17.458  0.00  0.00    +0.000 A 
ATOM     14  C   UNL     1       2.752   2.508  18.273  0.00  0.00    +0.000 A 
ATOM     15  C   UNL     1       2.053   3.377  19.112  0.00  0.00    +0.000 A 
ATOM     16  C   UNL     1       2.373   4.730  19.102  0.00  0.00    +0.000 A 
ATOM     17  C   UNL     1       3.416   5.198  18.299  0.00  0.00    +0.000 A 
BRANCH  15  18
ATOM     18  O   UNL     1       1.064   2.817  19.874  0.00  0.00    +0.000 OA
ATOM     19  C   UNL     1       1.313   2.805  21.277  0.00  0.00    +0.000 C 
ENDBRANCH  15  18
ENDBRANCH   1  12
BRANCH   1  20
ATOM     20  O   UNL     1       5.813   3.841  15.720  0.00  0.00    +0.000 OA
BRANCH  20  22
ATOM     21  C   UNL     1       6.098   3.699  13.331  0.00  0.00    +0.000 C 
ATOM     22  C   UNL     1       6.594   4.323  14.620  0.00  0.00    +0.000 C 
ENDBRANCH  20  22
ENDBRANCH   1  20
TORSDOF 4
ENDMDL
