MODEL 1
REMARK VINA RESULT:      -6.4      0.000      0.000
REMARK  Name = 
REMARK  2 active torsions:
REMARK  status: ('A' for Active; 'I' for Inactive)
REMARK    1  A    between atoms: C_2  and  C_10
REMARK    2  A    between atoms: N_3  and  C_4
REMARK                            x       y       z     vdW  Elec       q    Type
REMARK                         _______ _______ _______ _____ _____    ______ ____
ROOT
ATOM      1  O   UNL     1       5.591   3.590  19.533  0.00  0.00    +0.000 OA
ATOM      2  C   UNL     1       4.515   3.785  18.973  0.00  0.00    +0.000 C 
ATOM      3  N   UNL     1       4.340   4.311  17.703  0.00  0.00    +0.000 N 
ATOM      4  H   UNL     1       3.378   4.518  17.449  0.00  0.00    +0.000 HD
ENDROOT
BRANCH   3   5
ATOM      5  C   UNL     1       5.375   4.679  16.816  0.00  0.00    +0.000 A 
ATOM      6  C   UNL     1       6.180   5.800  17.017  0.00  0.00    +0.000 A 
ATOM      7  C   UNL     1       7.146   6.109  16.075  0.00  0.00    +0.000 A 
ATOM      8  N   UNL     1       7.364   5.383  14.960  0.00  0.00    +0.000 NA
ATOM      9  C   UNL     1       6.586   4.291  14.796  0.00  0.00    +0.000 A 
ATOM     10  C   UNL     1       5.602   3.894  15.689  0.00  0.00    +0.000 A 
ENDBRANCH   3   5
BRANCH   2  11
ATOM     11  C   UNL     1       3.255   3.472  19.713  0.00  0.00    +0.000 A 
ATOM     12  C   UNL     1       2.057   4.005  19.243  0.00  0.00    +0.000 A 
ATOM     13  C   UNL     1       0.893   3.752  19.958  0.00  0.00    +0.000 A 
ATOM     14  C   UNL     1       0.965   2.983  21.114  0.00  0.00    +0.000 A 
ATOM     15  C   UNL     1       2.201   2.482  21.501  0.00  0.00    +0.000 A 
ATOM     16  N   UNL     1       3.356   2.694  20.825  0.00  0.00    +0.000 NA
ENDBRANCH   2  11
TORSDOF 2
ENDMDL
MODEL 2
REMARK VINA RESULT:      -6.4      0.430      1.280
REMARK  Name = 
REMARK  2 active torsions:
REMARK  status: ('A' for Active; 'I' for Inactive)
REMARK    1  A    between atoms: C_2  and  C_10
REMARK    2  A    between atoms: N_3  and  C_4
REMARK                            x       y       z     vdW  Elec       q    Type
REMARK                         _______ _______ _______ _____ _____    ______ ____
ROOT
ATOM      1  O   UNL     1       5.504   3.305  19.451  0.00  0.00    +0.000 OA
ATOM      2  C   UNL     1       4.446   3.637  18.921  0.00  0.00    +0.000 C 
ATOM      3  N   UNL     1       4.314   4.326  17.727  0.00  0.00    +0.000 N 
ATOM      4  H   UNL     1       3.368   4.625  17.502  0.00  0.00    +0.000 HD
ENDROOT
BRANCH   3   5
ATOM      5  C   UNL     1       5.376   4.733  16.891  0.00  0.00    +0.000 A 
ATOM      6  C   UNL     1       5.713   4.063  15.715  0.00  0.00    +0.000 A 
ATOM      7  C   UNL     1       6.796   4.509  14.977  0.00  0.00    +0.000 A 
ATOM      8  N   UNL     1       7.556   5.565  15.325  0.00  0.00    +0.000 NA
ATOM      9  C   UNL     1       7.199   6.211  16.456  0.00  0.00    +0.000 A 
ATOM     10  C   UNL     1       6.125   5.849  17.255  0.00  0.00    +0.000 A 
ENDBRANCH   3   5
BRANCH   2  11
ATOM     11  C   UNL     1       3.164   3.318  19.619  0.00  0.00    +0.000 A 
ATOM     12  C   UNL     1       1.994   3.251  18.866  0.00  0.00    +0.000 A 
ATOM     13  C   UNL     1       0.796   3.000  19.523  0.00  0.00    +0.000 A 
ATOM     14  C   UNL     1       0.806   2.829  20.902  0.00  0.00    +0.000 A 
ATOM     15  C   UNL     1       2.021   2.900  21.571  0.00  0.00    +0.000 A 
ATOM     16  N   UNL     1       3.212   3.129  20.967  0.00  0.00    +0.000 NA
ENDBRANCH   2  11
TORSDOF 2
ENDMDL
MODEL 3
REMARK VINA RESULT:      -6.3      1.233      1.240
REMARK  Name = 
REMARK  2 active torsions:
REMARK  status: ('A' for Active; 'I' for Inactive)
REMARK    1  A    between atoms: C_2  and  C_10
REMARK    2  A    between atoms: N_3  and  C_4
REMARK                            x       y       z     vdW  Elec       q    Type
REMARK                         _______ _______ _______ _____ _____    ______ ____
ROOT
ATOM      1  O   UNL     1       2.879   4.940  17.485  0.00  0.00    +0.000 OA
ATOM      2  C   UNL     1       3.511   4.384  18.380  0.00  0.00    +0.000 C 
ATOM      3  N   UNL     1       4.890   4.278  18.459  0.00  0.00    +0.000 N 
ATOM      4  H   UNL     1       5.236   3.678  19.204  0.00  0.00    +0.000 HD
ENDROOT
BRANCH   3   5
ATOM      5  C   UNL     1       5.811   4.827  17.541  0.00  0.00    +0.000 A 
ATOM      6  C   UNL     1       6.467   6.038  17.759  0.00  0.00    +0.000 A 
ATOM      7  C   UNL     1       7.324   6.521  16.785  0.00  0.00    +0.000 A 
ATOM      8  N   UNL     1       7.571   5.886  15.623  0.00  0.00    +0.000 NA
ATOM      9  C   UNL     1       6.940   4.705  15.442  0.00  0.00    +0.000 A 
ATOM     10  C   UNL     1       6.075   4.133  16.362  0.00  0.00    +0.000 A 
ENDBRANCH   3   5
BRANCH   2  11
ATOM     11  C   UNL     1       2.755   3.717  19.483  0.00  0.00    +0.000 A 
ATOM     12  C   UNL     1       1.364   3.774  19.467  0.00  0.00    +0.000 A 
ATOM     13  C   UNL     1       0.664   3.194  20.517  0.00  0.00    +0.000 A 
ATOM     14  C   UNL     1       1.374   2.581  21.544  0.00  0.00    +0.000 A 
ATOM     15  C   UNL     1       2.760   2.559  21.470  0.00  0.00    +0.000 A 
ATOM     16  N   UNL     1       3.480   3.102  20.458  0.00  0.00    +0.000 NA
ENDBRANCH   2  11
TORSDOF 2
ENDMDL
MODEL 4
REMARK VINA RESULT:      -6.3      1.106      1.621
REMARK  Name = 
REMARK  2 active torsions:
REMARK  status: ('A' for Active; 'I' for Inactive)
REMARK    1  A    between atoms: C_2  and  C_10
REMARK    2  A    between atoms: N_3  and  C_4
REMARK                            x       y       z     vdW  Elec       q    Type
REMARK                         _______ _______ _______ _____ _____    ______ ____
ROOT
ATOM      1  O   UNL     1       3.198   5.579  17.872  0.00  0.00    +0.000 OA
ATOM      2  C   UNL     1       3.618   4.508  18.302  0.00  0.00    +0.000 C 
ATOM      3  N   UNL     1       4.741   3.833  17.852  0.00  0.00    +0.000 N 
ATOM      4  H   UNL     1       4.869   2.900  18.237  0.00  0.00    +0.000 HD
ENDROOT
BRANCH   3   5
ATOM      5  C   UNL     1       5.621   4.283  16.844  0.00  0.00    +0.000 A 
ATOM      6  C   UNL     1       5.580   3.805  15.535  0.00  0.00    +0.000 A 
ATOM      7  C   UNL     1       6.508   4.274  14.621  0.00  0.00    +0.000 A 
ATOM      8  N   UNL     1       7.462   5.177  14.919  0.00  0.00    +0.000 NA
ATOM      9  C   UNL     1       7.471   5.641  16.188  0.00  0.00    +0.000 A 
ATOM     10  C   UNL     1       6.577   5.242  17.170  0.00  0.00    +0.000 A 
ENDBRANCH   3   5
BRANCH   2  11
ATOM     11  C   UNL     1       2.851   3.819  19.384  0.00  0.00    +0.000 A 
ATOM     12  C   UNL     1       1.465   3.949  19.404  0.00  0.00    +0.000 A 
ATOM     13  C   UNL     1       0.758   3.347  20.437  0.00  0.00    +0.000 A 
ATOM     14  C   UNL     1       1.455   2.643  21.412  0.00  0.00    +0.000 A 
ATOM     15  C   UNL     1       2.837   2.554  21.305  0.00  0.00    +0.000 A 
ATOM     16  N   UNL     1       3.562   3.115  20.307  0.00  0.00    +0.000 NA
ENDBRANCH   2  11
TORSDOF 2
ENDMDL
MODEL 5
REMARK VINA RESULT:      -6.3      1.821      6.562
REMARK  Name = 
REMARK  2 active torsions:
REMARK  status: ('A' for Active; 'I' for Inactive)
REMARK    1  A    between atoms: C_2  and  C_10
REMARK    2  A    between atoms: N_3  and  C_4
REMARK                            x       y       z     vdW  Elec       q    Type
REMARK                         _______ _______ _______ _____ _____    ______ ____
ROOT
ATOM      1  O   UNL     1       6.893   4.747  16.926  0.00  0.00    +0.000 OA
ATOM      2  C   UNL     1       6.061   4.520  16.051  0.00  0.00    +0.000 C 
ATOM      3  N   UNL     1       4.724   4.221  16.255  0.00  0.00    +0.000 N 
ATOM      4  H   UNL     1       4.211   3.940  15.423  0.00  0.00    +0.000 HD
ENDROOT
BRANCH   3   5
ATOM      5  C   UNL     1       4.076   4.166  17.508  0.00  0.00    +0.000 A 
ATOM      6  C   UNL     1       3.983   2.996  18.260  0.00  0.00    +0.000 A 
ATOM      7  C   UNL     1       3.294   3.024  19.461  0.00  0.00    +0.000 A 
ATOM      8  N   UNL     1       2.700   4.127  19.958  0.00  0.00    +0.000 NA
ATOM      9  C   UNL     1       2.820   5.253  19.222  0.00  0.00    +0.000 A 
ATOM     10  C   UNL     1       3.499   5.328  18.015  0.00  0.00    +0.000 A 
ENDBRANCH   3   5
BRANCH   2  11
ATOM     11  C   UNL     1       6.505   4.518  14.624  0.00  0.00    +0.000 A 
ATOM     12  C   UNL     1       5.877   3.653  13.732  0.00  0.00    +0.000 A 
ATOM     13  C   UNL     1       6.321   3.619  12.417  0.00  0.00    +0.000 A 
ATOM     14  C   UNL     1       7.375   4.444  12.039  0.00  0.00    +0.000 A 
ATOM     15  C   UNL     1       7.933   5.285  12.993  0.00  0.00    +0.000 A 
ATOM     16  N   UNL     1       7.521   5.358  14.281  0.00  0.00    +0.000 NA
ENDBRANCH   2  11
TORSDOF 2
ENDMDL
MODEL 6
REMARK VINA RESULT:      -6.2      1.280      6.053
REMARK  Name = 
REMARK  2 active torsions:
REMARK  status: ('A' for Active; 'I' for Inactive)
REMARK    1  A    between atoms: C_2  and  C_10
REMARK    2  A    between atoms: N_3  and  C_4
REMARK                            x       y       z     vdW  Elec       q    Type
REMARK                         _______ _______ _______ _____ _____    ______ ____
ROOT
ATOM      1  O   UNL     1       6.272   4.355  19.039  0.00  0.00    +0.000 OA
ATOM      2  C   UNL     1       5.452   4.292  18.126  0.00  0.00    +0.000 C 
ATOM      3  N   UNL     1       4.098   4.029  18.262  0.00  0.00    +0.000 N 
ATOM      4  H   UNL     1       3.594   3.892  17.390  0.00  0.00    +0.000 HD
ENDROOT
BRANCH   3   5
ATOM      5  C   UNL     1       3.420   3.827  19.484  0.00  0.00    +0.000 A 
ATOM      6  C   UNL     1       2.661   4.821  20.101  0.00  0.00    +0.000 A 
ATOM      7  C   UNL     1       2.062   4.547  21.319  0.00  0.00    +0.000 A 
ATOM      8  N   UNL     1       2.163   3.363  21.954  0.00  0.00    +0.000 NA
ATOM      9  C   UNL     1       2.886   2.409  21.328  0.00  0.00    +0.000 A 
ATOM     10  C   UNL     1       3.513   2.583  20.103  0.00  0.00    +0.000 A 
ENDBRANCH   3   5
BRANCH   2  11
ATOM     11  C   UNL     1       5.928   4.472  16.721  0.00  0.00    +0.000 A 
ATOM     12  C   UNL     1       5.053   4.178  15.678  0.00  0.00    +0.000 A 
ATOM     13  C   UNL     1       5.512   4.302  14.373  0.00  0.00    +0.000 A 
ATOM     14  C   UNL     1       6.823   4.709  14.154  0.00  0.00    +0.000 A 
ATOM     15  C   UNL     1       7.622   4.993  15.254  0.00  0.00    +0.000 A 
ATOM     16  N   UNL     1       7.209   4.898  16.542  0.00  0.00    +0.000 NA
ENDBRANCH   2  11
TORSDOF 2
ENDMDL
MODEL 7
REMARK VINA RESULT:      -6.2      2.097      5.866
REMARK  Name = 
REMARK  2 active torsions:
REMARK  status: ('A' for Active; 'I' for Inactive)
REMARK    1  A    between atoms: C_2  and  C_10
REMARK    2  A    between atoms: N_3  and  C_4
REMARK                            x       y       z     vdW  Elec       q    Type
REMARK                         _______ _______ _______ _____ _____    ______ ____
ROOT
ATOM      1  O   UNL     1       5.390   3.361  19.523  0.00  0.00    +0.000 OA
ATOM      2  C   UNL     1       5.000   4.451  19.110  0.00  0.00    +0.000 C 
ATOM      3  N   UNL     1       3.679   4.832  18.935  0.00  0.00    +0.000 N 
ATOM      4  H   UNL     1       3.544   5.725  18.468  0.00  0.00    +0.000 HD
ENDROOT
BRANCH   3   5
ATOM      5  C   UNL     1       2.549   4.042  19.241  0.00  0.00    +0.000 A 
ATOM      6  C   UNL     1       2.025   3.939  20.529  0.00  0.00    +0.000 A 
ATOM      7  C   UNL     1       0.938   3.109  20.744  0.00  0.00    +0.000 A 
ATOM      8  N   UNL     1       0.342   2.387  19.775  0.00  0.00    +0.000 NA
ATOM      9  C   UNL     1       0.854   2.519  18.532  0.00  0.00    +0.000 A 
ATOM     10  C   UNL     1       1.931   3.332  18.214  0.00  0.00    +0.000 A 
ENDBRANCH   3   5
BRANCH   2  11
ATOM     11  C   UNL     1       6.016   5.472  18.713  0.00  0.00    +0.000 A 
ATOM     12  C   UNL     1       5.733   6.312  17.639  0.00  0.00    +0.000 A 
ATOM     13  C   UNL     1       6.697   7.229  17.242  0.00  0.00    +0.000 A 
ATOM     14  C   UNL     1       7.907   7.275  17.925  0.00  0.00    +0.000 A 
ATOM     15  C   UNL     1       8.098   6.408  18.993  0.00  0.00    +0.000 A 
ATOM     16  N   UNL     1       7.180   5.509  19.420  0.00  0.00    +0.000 NA
ENDBRANCH   2  11
TORSDOF 2
ENDMDL
MODEL 8
REMARK VINA RESULT:      -6.2      2.116      5.935
REMARK  Name = 
REMARK  2 active torsions:
REMARK  status: ('A' for Active; 'I' for Inactive)
REMARK    1  A    between atoms: C_2  and  C_10
REMARK    2  A    between atoms: N_3  and  C_4
REMARK                            x       y       z     vdW  Elec       q    Type
REMARK                         _______ _______ _______ _____ _____    ______ ____
ROOT
ATOM      1  O   UNL     1       5.389   3.376  19.544  0.00  0.00    +0.000 OA
ATOM      2  C   UNL     1       5.005   4.437  19.060  0.00  0.00    +0.000 C 
ATOM      3  N   UNL     1       3.692   4.779  18.780  0.00  0.00    +0.000 N 
ATOM      4  H   UNL     1       3.570   5.648  18.267  0.00  0.00    +0.000 HD
ENDROOT
BRANCH   3   5
ATOM      5  C   UNL     1       2.561   3.976  19.042  0.00  0.00    +0.000 A 
ATOM      6  C   UNL     1       2.066   3.045  18.130  0.00  0.00    +0.000 A 
ATOM      7  C   UNL     1       0.926   2.329  18.454  0.00  0.00    +0.000 A 
ATOM      8  N   UNL     1       0.256   2.473  19.614  0.00  0.00    +0.000 NA
ATOM      9  C   UNL     1       0.765   3.365  20.492  0.00  0.00    +0.000 A 
ATOM     10  C   UNL     1       1.906   4.120  20.263  0.00  0.00    +0.000 A 
ENDBRANCH   3   5
BRANCH   2  11
ATOM     11  C   UNL     1       6.024   5.466  18.689  0.00  0.00    +0.000 A 
ATOM     12  C   UNL     1       5.748   6.326  17.630  0.00  0.00    +0.000 A 
ATOM     13  C   UNL     1       6.714   7.250  17.256  0.00  0.00    +0.000 A 
ATOM     14  C   UNL     1       7.920   7.283  17.947  0.00  0.00    +0.000 A 
ATOM     15  C   UNL     1       8.105   6.395  19.000  0.00  0.00    +0.000 A 
ATOM     16  N   UNL     1       7.183   5.488  19.404  0.00  0.00    +0.000 NA
ENDBRANCH   2  11
TORSDOF 2
ENDMDL
MODEL 9
REMARK VINA RESULT:      -6.2      0.881      1.707
REMARK  Name = 
REMARK  2 active torsions:
REMARK  status: ('A' for Active; 'I' for Inactive)
REMARK    1  A    between atoms: C_2  and  C_10
REMARK    2  A    between atoms: N_3  and  C_4
REMARK                            x       y       z     vdW  Elec       q    Type
REMARK                         _______ _______ _______ _____ _____    ______ ____
ROOT
ATOM      1  O   UNL     1       5.364   3.520  19.391  0.00  0.00    +0.000 OA
ATOM      2  C   UNL     1       4.332   3.780  18.778  0.00  0.00    +0.000 C 
ATOM      3  N   UNL     1       4.252   4.378  17.531  0.00  0.00    +0.000 N 
ATOM      4  H   UNL     1       3.314   4.629  17.229  0.00  0.00    +0.000 HD
ENDROOT
BRANCH   3   5
ATOM      5  C   UNL     1       5.351   4.759  16.731  0.00  0.00    +0.000 A 
ATOM      6  C   UNL     1       5.697   4.095  15.554  0.00  0.00    +0.000 A 
ATOM      7  C   UNL     1       6.815   4.512  14.853  0.00  0.00    +0.000 A 
ATOM      8  N   UNL     1       7.602   5.535  15.238  0.00  0.00    +0.000 NA
ATOM      9  C   UNL     1       7.237   6.176  16.370  0.00  0.00    +0.000 A 
ATOM     10  C   UNL     1       6.129   5.842  17.133  0.00  0.00    +0.000 A 
ENDBRANCH   3   5
BRANCH   2  11
ATOM     11  C   UNL     1       3.019   3.470  19.421  0.00  0.00    +0.000 A 
ATOM     12  C   UNL     1       2.931   3.513  20.810  0.00  0.00    +0.000 A 
ATOM     13  C   UNL     1       1.723   3.179  21.408  0.00  0.00    +0.000 A 
ATOM     14  C   UNL     1       0.649   2.813  20.604  0.00  0.00    +0.000 A 
ATOM     15  C   UNL     1       0.824   2.810  19.227  0.00  0.00    +0.000 A 
ATOM     16  N   UNL     1       1.981   3.141  18.603  0.00  0.00    +0.000 NA
ENDBRANCH   2  11
TORSDOF 2
ENDMDL
