MODEL 1
REMARK VINA RESULT:      -8.5      0.000      0.000
REMARK  Name = 
REMARK  9 active torsions:
REMARK  status: ('A' for Active; 'I' for Inactive)
REMARK    1  A    between atoms: C_2  and  C_3
REMARK    2  A    between atoms: C_3  and  C_4
REMARK    3  A    between atoms: C_4  and  C_5
REMARK    4  A    between atoms: C_5  and  C_6
REMARK    5  A    between atoms: C_6  and  C_7
REMARK    6  A    between atoms: N_11  and  C_12
REMARK    7  A    between atoms: C_12  and  C_13
REMARK    8  A    between atoms: C_17  and  C_18
REMARK    9  A    between atoms: N_25  and  O_26
REMARK                            x       y       z     vdW  Elec       q    Type
REMARK                         _______ _______ _______ _____ _____    ______ ____
ROOT
ATOM      1  C   UNL     1       2.083   3.713  18.464  0.00  0.00    +0.000 A 
ATOM      2  C   UNL     1       1.139   2.815  18.927  0.00  0.00    +0.000 A 
ATOM      3  C   UNL     1       0.839   3.229  20.232  0.00  0.00    +0.000 A 
ATOM      4  N   UNL     1       1.546   4.295  20.598  0.00  0.00    +0.000 NA
ATOM      5  N   UNL     1       2.283   4.603  19.502  0.00  0.00    +0.000 N 
ENDROOT
BRANCH   1   6
ATOM      6  C   UNL     1       2.697   3.786  17.103  0.00  0.00    +0.000 C 
BRANCH   6   7
ATOM      7  C   UNL     1       4.205   3.540  17.077  0.00  0.00    +0.000 C 
BRANCH   7   8
ATOM      8  C   UNL     1       5.010   4.729  16.526  0.00  0.00    +0.000 C 
BRANCH   8   9
ATOM      9  C   UNL     1       6.531   4.561  16.507  0.00  0.00    +0.000 C 
BRANCH   9  11
ATOM     10  O   UNL     1       7.665   6.561  17.315  0.00  0.00    +0.000 OA
ATOM     11  C   UNL     1       7.275   5.411  17.519  0.00  0.00    +0.000 C 
ATOM     12  N   UNL     1       7.495   4.774  18.712  0.00  0.00    +0.000 N 
ATOM     13  H   UNL     1       7.385   3.777  18.856  0.00  0.00    +0.000 HD
BRANCH  12  14
ATOM     14  O   UNL     1       8.287   5.471  19.651  0.00  0.00    +0.000 OA
ATOM     15  H   UNL     1       9.016   5.825  19.097  0.00  0.00    +0.000 HD
ENDBRANCH  12  14
ENDBRANCH   9  11
ENDBRANCH   8   9
ENDBRANCH   7   8
ENDBRANCH   6   7
ENDBRANCH   1   6
BRANCH   5  16
ATOM     16  C   UNL     1       3.193   5.748  19.594  0.00  0.00    +0.000 C 
BRANCH  16  17
ATOM     17  C   UNL     1       2.533   7.069  19.269  0.00  0.00    +0.000 A 
ATOM     18  C   UNL     1       2.663   7.627  17.995  0.00  0.00    +0.000 A 
ATOM     19  C   UNL     1       2.052   8.839  17.689  0.00  0.00    +0.000 A 
ATOM     20  C   UNL     1       1.298   9.508  18.657  0.00  0.00    +0.000 A 
ATOM     21  C   UNL     1       1.167   9.006  19.965  0.00  0.00    +0.000 A 
ATOM     22  C   UNL     1       1.826   7.792  20.246  0.00  0.00    +0.000 A 
BRANCH  21  23
ATOM     23  C   UNL     1       0.342   9.700  20.991  0.00  0.00    +0.000 A 
ATOM     24  C   UNL     1      -0.250  10.951  20.728  0.00  0.00    +0.000 A 
ATOM     25  C   UNL     1      -1.004  11.628  21.694  0.00  0.00    +0.000 A 
ATOM     26  C   UNL     1      -1.173  11.074  22.958  0.00  0.00    +0.000 A 
ATOM     27  C   UNL     1      -0.606   9.841  23.249  0.00  0.00    +0.000 A 
ATOM     28  C   UNL     1       0.133   9.157  22.275  0.00  0.00    +0.000 A 
ENDBRANCH  21  23
ENDBRANCH  16  17
ENDBRANCH   5  16
TORSDOF 9
ENDMDL
MODEL 2
REMARK VINA RESULT:      -8.3      1.723      1.819
REMARK  Name = 
REMARK  9 active torsions:
REMARK  status: ('A' for Active; 'I' for Inactive)
REMARK    1  A    between atoms: C_2  and  C_3
REMARK    2  A    between atoms: C_3  and  C_4
REMARK    3  A    between atoms: C_4  and  C_5
REMARK    4  A    between atoms: C_5  and  C_6
REMARK    5  A    between atoms: C_6  and  C_7
REMARK    6  A    between atoms: N_11  and  C_12
REMARK    7  A    between atoms: C_12  and  C_13
REMARK    8  A    between atoms: C_17  and  C_18
REMARK    9  A    between atoms: N_25  and  O_26
REMARK                            x       y       z     vdW  Elec       q    Type
REMARK                         _______ _______ _______ _____ _____    ______ ____
ROOT
ATOM      1  C   UNL     1       2.087   3.864  18.791  0.00  0.00    +0.000 A 
ATOM      2  C   UNL     1       1.219   3.014  19.451  0.00  0.00    +0.000 A 
ATOM      3  C   UNL     1       1.075   3.554  20.736  0.00  0.00    +0.000 A 
ATOM      4  N   UNL     1       1.806   4.652  20.908  0.00  0.00    +0.000 NA
ATOM      5  N   UNL     1       2.399   4.853  19.705  0.00  0.00    +0.000 N 
ENDROOT
BRANCH   1   6
ATOM      6  C   UNL     1       2.528   3.805  17.363  0.00  0.00    +0.000 C 
BRANCH   6   7
ATOM      7  C   UNL     1       4.005   3.458  17.174  0.00  0.00    +0.000 C 
BRANCH   7   8
ATOM      8  C   UNL     1       4.884   4.678  16.857  0.00  0.00    +0.000 C 
BRANCH   8   9
ATOM      9  C   UNL     1       6.321   4.379  16.425  0.00  0.00    +0.000 C 
BRANCH   9  11
ATOM     10  O   UNL     1       6.011   4.025  14.034  0.00  0.00    +0.000 OA
ATOM     11  C   UNL     1       6.599   4.599  14.950  0.00  0.00    +0.000 C 
ATOM     12  N   UNL     1       7.593   5.511  14.711  0.00  0.00    +0.000 N 
ATOM     13  H   UNL     1       8.240   5.848  15.414  0.00  0.00    +0.000 HD
BRANCH  12  14
ATOM     14  O   UNL     1       7.979   5.670  13.362  0.00  0.00    +0.000 OA
ATOM     15  H   UNL     1       8.055   6.645  13.274  0.00  0.00    +0.000 HD
ENDBRANCH  12  14
ENDBRANCH   9  11
ENDBRANCH   8   9
ENDBRANCH   7   8
ENDBRANCH   6   7
ENDBRANCH   1   6
BRANCH   5  16
ATOM     16  C   UNL     1       3.298   6.002  19.573  0.00  0.00    +0.000 C 
BRANCH  16  17
ATOM     17  C   UNL     1       2.578   7.296  19.267  0.00  0.00    +0.000 A 
ATOM     18  C   UNL     1       2.658   7.862  17.992  0.00  0.00    +0.000 A 
ATOM     19  C   UNL     1       1.991   9.050  17.704  0.00  0.00    +0.000 A 
ATOM     20  C   UNL     1       1.232   9.685  18.691  0.00  0.00    +0.000 A 
ATOM     21  C   UNL     1       1.150   9.175  19.999  0.00  0.00    +0.000 A 
ATOM     22  C   UNL     1       1.864   7.987  20.261  0.00  0.00    +0.000 A 
BRANCH  21  23
ATOM     23  C   UNL     1       0.320   9.832  21.046  0.00  0.00    +0.000 A 
ATOM     24  C   UNL     1      -0.347  11.047  20.793  0.00  0.00    +0.000 A 
ATOM     25  C   UNL     1      -1.106  11.690  21.777  0.00  0.00    +0.000 A 
ATOM     26  C   UNL     1      -1.206  11.139  23.049  0.00  0.00    +0.000 A 
ATOM     27  C   UNL     1      -0.565   9.941  23.330  0.00  0.00    +0.000 A 
ATOM     28  C   UNL     1       0.180   9.289  22.339  0.00  0.00    +0.000 A 
ENDBRANCH  21  23
ENDBRANCH  16  17
ENDBRANCH   5  16
TORSDOF 9
ENDMDL
MODEL 3
REMARK VINA RESULT:      -8.2      3.308      5.151
REMARK  Name = 
REMARK  9 active torsions:
REMARK  status: ('A' for Active; 'I' for Inactive)
REMARK    1  A    between atoms: C_2  and  C_3
REMARK    2  A    between atoms: C_3  and  C_4
REMARK    3  A    between atoms: C_4  and  C_5
REMARK    4  A    between atoms: C_5  and  C_6
REMARK    5  A    between atoms: C_6  and  C_7
REMARK    6  A    between atoms: N_11  and  C_12
REMARK    7  A    between atoms: C_12  and  C_13
REMARK    8  A    between atoms: C_17  and  C_18
REMARK    9  A    between atoms: N_25  and  O_26
REMARK                            x       y       z     vdW  Elec       q    Type
REMARK                         _______ _______ _______ _____ _____    ______ ____
ROOT
ATOM      1  C   UNL     1       6.246   5.487  17.247  0.00  0.00    +0.000 A 
ATOM      2  C   UNL     1       7.352   6.280  17.490  0.00  0.00    +0.000 A 
ATOM      3  C   UNL     1       7.739   5.988  18.805  0.00  0.00    +0.000 A 
ATOM      4  N   UNL     1       6.939   5.095  19.380  0.00  0.00    +0.000 NA
ATOM      5  N   UNL     1       6.045   4.770  18.413  0.00  0.00    +0.000 N 
ENDROOT
BRANCH   1   6
ATOM      6  C   UNL     1       5.476   5.341  15.974  0.00  0.00    +0.000 C 
BRANCH   6   7
ATOM      7  C   UNL     1       5.962   4.208  15.070  0.00  0.00    +0.000 C 
BRANCH   7   8
ATOM      8  C   UNL     1       5.680   4.452  13.578  0.00  0.00    +0.000 C 
BRANCH   8   9
ATOM      9  C   UNL     1       6.626   3.763  12.593  0.00  0.00    +0.000 C 
BRANCH   9  11
ATOM     10  O   UNL     1       4.822   2.495  11.555  0.00  0.00    +0.000 OA
ATOM     11  C   UNL     1       6.016   2.598  11.837  0.00  0.00    +0.000 C 
ATOM     12  N   UNL     1       6.926   1.635  11.489  0.00  0.00    +0.000 N 
ATOM     13  H   UNL     1       7.862   1.569  11.872  0.00  0.00    +0.000 HD
BRANCH  12  14
ATOM     14  O   UNL     1       6.399   0.470  10.889  0.00  0.00    +0.000 OA
ATOM     15  H   UNL     1       5.436   0.558  11.059  0.00  0.00    +0.000 HD
ENDBRANCH  12  14
ENDBRANCH   9  11
ENDBRANCH   8   9
ENDBRANCH   7   8
ENDBRANCH   6   7
ENDBRANCH   1   6
BRANCH   5  16
ATOM     16  C   UNL     1       5.003   3.797  18.748  0.00  0.00    +0.000 C 
BRANCH  16  17
ATOM     17  C   UNL     1       3.809   4.410  19.444  0.00  0.00    +0.000 A 
ATOM     18  C   UNL     1       3.098   3.679  20.398  0.00  0.00    +0.000 A 
ATOM     19  C   UNL     1       2.003   4.241  21.047  0.00  0.00    +0.000 A 
ATOM     20  C   UNL     1       1.607   5.549  20.750  0.00  0.00    +0.000 A 
ATOM     21  C   UNL     1       2.268   6.313  19.772  0.00  0.00    +0.000 A 
ATOM     22  C   UNL     1       3.353   5.698  19.113  0.00  0.00    +0.000 A 
BRANCH  21  23
ATOM     23  C   UNL     1       1.868   7.715  19.472  0.00  0.00    +0.000 A 
ATOM     24  C   UNL     1       2.159   8.308  18.227  0.00  0.00    +0.000 A 
ATOM     25  C   UNL     1       1.815   9.634  17.943  0.00  0.00    +0.000 A 
ATOM     26  C   UNL     1       1.181  10.410  18.907  0.00  0.00    +0.000 A 
ATOM     27  C   UNL     1       0.875   9.855  20.142  0.00  0.00    +0.000 A 
ATOM     28  C   UNL     1       1.204   8.522  20.418  0.00  0.00    +0.000 A 
ENDBRANCH  21  23
ENDBRANCH  16  17
ENDBRANCH   5  16
TORSDOF 9
ENDMDL
MODEL 4
REMARK VINA RESULT:      -8.2      1.469      2.007
REMARK  Name = 
REMARK  9 active torsions:
REMARK  status: ('A' for Active; 'I' for Inactive)
REMARK    1  A    between atoms: C_2  and  C_3
REMARK    2  A    between atoms: C_3  and  C_4
REMARK    3  A    between atoms: C_4  and  C_5
REMARK    4  A    between atoms: C_5  and  C_6
REMARK    5  A    between atoms: C_6  and  C_7
REMARK    6  A    between atoms: N_11  and  C_12
REMARK    7  A    between atoms: C_12  and  C_13
REMARK    8  A    between atoms: C_17  and  C_18
REMARK    9  A    between atoms: N_25  and  O_26
REMARK                            x       y       z     vdW  Elec       q    Type
REMARK                         _______ _______ _______ _____ _____    ______ ____
ROOT
ATOM      1  C   UNL     1       2.200   3.714  18.326  0.00  0.00    +0.000 A 
ATOM      2  C   UNL     1       1.211   2.776  18.558  0.00  0.00    +0.000 A 
ATOM      3  C   UNL     1       0.661   3.116  19.802  0.00  0.00    +0.000 A 
ATOM      4  N   UNL     1       1.257   4.173  20.346  0.00  0.00    +0.000 NA
ATOM      5  N   UNL     1       2.177   4.552  19.425  0.00  0.00    +0.000 N 
ENDROOT
BRANCH   1   6
ATOM      6  C   UNL     1       3.056   3.870  17.110  0.00  0.00    +0.000 C 
BRANCH   6   7
ATOM      7  C   UNL     1       4.501   4.270  17.404  0.00  0.00    +0.000 C 
BRANCH   7   8
ATOM      8  C   UNL     1       5.520   3.629  16.447  0.00  0.00    +0.000 C 
BRANCH   8   9
ATOM      9  C   UNL     1       5.691   4.313  15.089  0.00  0.00    +0.000 C 
BRANCH   9  11
ATOM     10  O   UNL     1       7.627   5.588  15.839  0.00  0.00    +0.000 OA
ATOM     11  C   UNL     1       6.995   5.068  14.920  0.00  0.00    +0.000 C 
ATOM     12  N   UNL     1       7.424   5.136  13.620  0.00  0.00    +0.000 N 
ATOM     13  H   UNL     1       6.848   4.913  12.817  0.00  0.00    +0.000 HD
BRANCH  12  14
ATOM     14  O   UNL     1       8.569   5.927  13.384  0.00  0.00    +0.000 OA
ATOM     15  H   UNL     1       8.214   6.841  13.439  0.00  0.00    +0.000 HD
ENDBRANCH  12  14
ENDBRANCH   9  11
ENDBRANCH   8   9
ENDBRANCH   7   8
ENDBRANCH   6   7
ENDBRANCH   1   6
BRANCH   5  16
ATOM     16  C   UNL     1       3.022   5.707  19.742  0.00  0.00    +0.000 C 
BRANCH  16  17
ATOM     17  C   UNL     1       2.386   7.032  19.389  0.00  0.00    +0.000 A 
ATOM     18  C   UNL     1       2.480   7.534  18.088  0.00  0.00    +0.000 A 
ATOM     19  C   UNL     1       1.890   8.751  17.757  0.00  0.00    +0.000 A 
ATOM     20  C   UNL     1       1.195   9.481  18.726  0.00  0.00    +0.000 A 
ATOM     21  C   UNL     1       1.104   9.036  20.057  0.00  0.00    +0.000 A 
ATOM     22  C   UNL     1       1.740   7.815  20.362  0.00  0.00    +0.000 A 
BRANCH  21  23
ATOM     23  C   UNL     1       0.341   9.795  21.085  0.00  0.00    +0.000 A 
ATOM     24  C   UNL     1       0.042   9.228  22.339  0.00  0.00    +0.000 A 
ATOM     25  C   UNL     1      -0.699   9.919  23.304  0.00  0.00    +0.000 A 
ATOM     26  C   UNL     1      -1.175  11.197  23.031  0.00  0.00    +0.000 A 
ATOM     27  C   UNL     1      -0.894  11.787  21.807  0.00  0.00    +0.000 A 
ATOM     28  C   UNL     1      -0.136  11.100  20.850  0.00  0.00    +0.000 A 
ENDBRANCH  21  23
ENDBRANCH  16  17
ENDBRANCH   5  16
TORSDOF 9
ENDMDL
MODEL 5
REMARK VINA RESULT:      -8.1      1.470      1.861
REMARK  Name = 
REMARK  9 active torsions:
REMARK  status: ('A' for Active; 'I' for Inactive)
REMARK    1  A    between atoms: C_2  and  C_3
REMARK    2  A    between atoms: C_3  and  C_4
REMARK    3  A    between atoms: C_4  and  C_5
REMARK    4  A    between atoms: C_5  and  C_6
REMARK    5  A    between atoms: C_6  and  C_7
REMARK    6  A    between atoms: N_11  and  C_12
REMARK    7  A    between atoms: C_12  and  C_13
REMARK    8  A    between atoms: C_17  and  C_18
REMARK    9  A    between atoms: N_25  and  O_26
REMARK                            x       y       z     vdW  Elec       q    Type
REMARK                         _______ _______ _______ _____ _____    ______ ____
ROOT
ATOM      1  C   UNL     1       1.889   3.912  18.926  0.00  0.00    +0.000 A 
ATOM      2  C   UNL     1       1.161   2.975  19.636  0.00  0.00    +0.000 A 
ATOM      3  C   UNL     1       1.251   3.373  20.977  0.00  0.00    +0.000 A 
ATOM      4  N   UNL     1       1.995   4.465  21.131  0.00  0.00    +0.000 NA
ATOM      5  N   UNL     1       2.357   4.807  19.870  0.00  0.00    +0.000 N 
ENDROOT
BRANCH   1   6
ATOM      6  C   UNL     1       2.063   4.014  17.444  0.00  0.00    +0.000 C 
BRANCH   6   7
ATOM      7  C   UNL     1       3.432   4.533  17.005  0.00  0.00    +0.000 C 
BRANCH   7   8
ATOM      8  C   UNL     1       4.591   3.594  17.379  0.00  0.00    +0.000 C 
BRANCH   8   9
ATOM      9  C   UNL     1       5.999   4.180  17.257  0.00  0.00    +0.000 C 
BRANCH   9  11
ATOM     10  O   UNL     1       6.199   3.620  14.894  0.00  0.00    +0.000 OA
ATOM     11  C   UNL     1       6.490   4.361  15.833  0.00  0.00    +0.000 C 
ATOM     12  N   UNL     1       7.314   5.443  15.671  0.00  0.00    +0.000 N 
ATOM     13  H   UNL     1       7.745   5.951  16.434  0.00  0.00    +0.000 HD
BRANCH  12  14
ATOM     14  O   UNL     1       7.898   5.594  14.394  0.00  0.00    +0.000 OA
ATOM     15  H   UNL     1       8.094   6.556  14.360  0.00  0.00    +0.000 HD
ENDBRANCH  12  14
ENDBRANCH   9  11
ENDBRANCH   8   9
ENDBRANCH   7   8
ENDBRANCH   6   7
ENDBRANCH   1   6
BRANCH   5  16
ATOM     16  C   UNL     1       3.209   5.987  19.702  0.00  0.00    +0.000 C 
BRANCH  16  17
ATOM     17  C   UNL     1       2.440   7.238  19.345  0.00  0.00    +0.000 A 
ATOM     18  C   UNL     1       2.436   7.712  18.031  0.00  0.00    +0.000 A 
ATOM     19  C   UNL     1       1.724   8.860  17.696  0.00  0.00    +0.000 A 
ATOM     20  C   UNL     1       1.002   9.548  18.676  0.00  0.00    +0.000 A 
ATOM     21  C   UNL     1       1.003   9.132  20.020  0.00  0.00    +0.000 A 
ATOM     22  C   UNL     1       1.762   7.983  20.326  0.00  0.00    +0.000 A 
BRANCH  21  23
ATOM     23  C   UNL     1       0.213   9.844  21.061  0.00  0.00    +0.000 A 
ATOM     24  C   UNL     1       0.104   9.336  22.370  0.00  0.00    +0.000 A 
ATOM     25  C   UNL     1      -0.660   9.980  23.350  0.00  0.00    +0.000 A 
ATOM     26  C   UNL     1      -1.348  11.147  23.040  0.00  0.00    +0.000 A 
ATOM     27  C   UNL     1      -1.258  11.678  21.760  0.00  0.00    +0.000 A 
ATOM     28  C   UNL     1      -0.478  11.041  20.786  0.00  0.00    +0.000 A 
ENDBRANCH  21  23
ENDBRANCH  16  17
ENDBRANCH   5  16
TORSDOF 9
ENDMDL
MODEL 6
REMARK VINA RESULT:      -8.1      1.374      1.915
REMARK  Name = 
REMARK  9 active torsions:
REMARK  status: ('A' for Active; 'I' for Inactive)
REMARK    1  A    between atoms: C_2  and  C_3
REMARK    2  A    between atoms: C_3  and  C_4
REMARK    3  A    between atoms: C_4  and  C_5
REMARK    4  A    between atoms: C_5  and  C_6
REMARK    5  A    between atoms: C_6  and  C_7
REMARK    6  A    between atoms: N_11  and  C_12
REMARK    7  A    between atoms: C_12  and  C_13
REMARK    8  A    between atoms: C_17  and  C_18
REMARK    9  A    between atoms: N_25  and  O_26
REMARK                            x       y       z     vdW  Elec       q    Type
REMARK                         _______ _______ _______ _____ _____    ______ ____
ROOT
ATOM      1  C   UNL     1       2.740   3.616  18.516  0.00  0.00    +0.000 A 
ATOM      2  C   UNL     1       1.835   2.633  18.160  0.00  0.00    +0.000 A 
ATOM      3  C   UNL     1       0.759   2.779  19.047  0.00  0.00    +0.000 A 
ATOM      4  N   UNL     1       0.956   3.761  19.922  0.00  0.00    +0.000 NA
ATOM      5  N   UNL     1       2.156   4.288  19.573  0.00  0.00    +0.000 N 
ENDROOT
BRANCH   1   6
ATOM      6  C   UNL     1       4.033   3.963  17.851  0.00  0.00    +0.000 C 
BRANCH   6   7
ATOM      7  C   UNL     1       5.238   3.987  18.790  0.00  0.00    +0.000 C 
BRANCH   7   8
ATOM      8  C   UNL     1       6.025   5.307  18.741  0.00  0.00    +0.000 C 
BRANCH   8   9
ATOM      9  C   UNL     1       7.219   5.344  17.783  0.00  0.00    +0.000 C 
BRANCH   9  11
ATOM     10  O   UNL     1       6.094   6.752  16.143  0.00  0.00    +0.000 OA
ATOM     11  C   UNL     1       6.900   5.854  16.391  0.00  0.00    +0.000 C 
ATOM     12  N   UNL     1       7.594   5.212  15.400  0.00  0.00    +0.000 N 
ATOM     13  H   UNL     1       8.100   4.343  15.529  0.00  0.00    +0.000 HD
BRANCH  12  14
ATOM     14  O   UNL     1       7.252   5.561  14.075  0.00  0.00    +0.000 OA
ATOM     15  H   UNL     1       6.757   4.772  13.766  0.00  0.00    +0.000 HD
ENDBRANCH  12  14
ENDBRANCH   9  11
ENDBRANCH   8   9
ENDBRANCH   7   8
ENDBRANCH   6   7
ENDBRANCH   1   6
BRANCH   5  16
ATOM     16  C   UNL     1       2.667   5.404  20.372  0.00  0.00    +0.000 C 
BRANCH  16  17
ATOM     17  C   UNL     1       2.237   6.759  19.859  0.00  0.00    +0.000 A 
ATOM     18  C   UNL     1       2.592   7.171  18.572  0.00  0.00    +0.000 A 
ATOM     19  C   UNL     1       2.191   8.415  18.093  0.00  0.00    +0.000 A 
ATOM     20  C   UNL     1       1.426   9.264  18.898  0.00  0.00    +0.000 A 
ATOM     21  C   UNL     1       1.074   8.911  20.213  0.00  0.00    +0.000 A 
ATOM     22  C   UNL     1       1.524   7.656  20.674  0.00  0.00    +0.000 A 
BRANCH  21  23
ATOM     23  C   UNL     1       0.235   9.798  21.064  0.00  0.00    +0.000 A 
ATOM     24  C   UNL     1      -0.026   9.484  22.412  0.00  0.00    +0.000 A 
ATOM     25  C   UNL     1      -0.836  10.295  23.215  0.00  0.00    +0.000 A 
ATOM     26  C   UNL     1      -1.421  11.438  22.683  0.00  0.00    +0.000 A 
ATOM     27  C   UNL     1      -1.181  11.779  21.359  0.00  0.00    +0.000 A 
ATOM     28  C   UNL     1      -0.354  10.976  20.562  0.00  0.00    +0.000 A 
ENDBRANCH  21  23
ENDBRANCH  16  17
ENDBRANCH   5  16
TORSDOF 9
ENDMDL
MODEL 7
REMARK VINA RESULT:      -8.1      3.260      5.162
REMARK  Name = 
REMARK  9 active torsions:
REMARK  status: ('A' for Active; 'I' for Inactive)
REMARK    1  A    between atoms: C_2  and  C_3
REMARK    2  A    between atoms: C_3  and  C_4
REMARK    3  A    between atoms: C_4  and  C_5
REMARK    4  A    between atoms: C_5  and  C_6
REMARK    5  A    between atoms: C_6  and  C_7
REMARK    6  A    between atoms: N_11  and  C_12
REMARK    7  A    between atoms: C_12  and  C_13
REMARK    8  A    between atoms: C_17  and  C_18
REMARK    9  A    between atoms: N_25  and  O_26
REMARK                            x       y       z     vdW  Elec       q    Type
REMARK                         _______ _______ _______ _____ _____    ______ ____
ROOT
ATOM      1  C   UNL     1       6.157   5.575  17.522  0.00  0.00    +0.000 A 
ATOM      2  C   UNL     1       7.245   6.413  17.674  0.00  0.00    +0.000 A 
ATOM      3  C   UNL     1       7.743   6.147  18.957  0.00  0.00    +0.000 A 
ATOM      4  N   UNL     1       7.025   5.228  19.597  0.00  0.00    +0.000 NA
ATOM      5  N   UNL     1       6.075   4.860  18.702  0.00  0.00    +0.000 N 
ENDROOT
BRANCH   1   6
ATOM      6  C   UNL     1       5.298   5.388  16.311  0.00  0.00    +0.000 C 
BRANCH   6   7
ATOM      7  C   UNL     1       5.709   4.216  15.422  0.00  0.00    +0.000 C 
BRANCH   7   8
ATOM      8  C   UNL     1       5.594   4.518  13.919  0.00  0.00    +0.000 C 
BRANCH   8   9
ATOM      9  C   UNL     1       6.345   3.570  12.982  0.00  0.00    +0.000 C 
BRANCH   9  11
ATOM     10  O   UNL     1       5.769   1.801  11.408  0.00  0.00    +0.000 OA
ATOM     11  C   UNL     1       5.472   2.856  11.968  0.00  0.00    +0.000 C 
ATOM     12  N   UNL     1       4.291   3.502  11.711  0.00  0.00    +0.000 N 
ATOM     13  H   UNL     1       4.094   4.459  11.979  0.00  0.00    +0.000 HD
BRANCH  12  14
ATOM     14  O   UNL     1       3.489   2.948  10.689  0.00  0.00    +0.000 OA
ATOM     15  H   UNL     1       3.944   3.250   9.872  0.00  0.00    +0.000 HD
ENDBRANCH  12  14
ENDBRANCH   9  11
ENDBRANCH   8   9
ENDBRANCH   7   8
ENDBRANCH   6   7
ENDBRANCH   1   6
BRANCH   5  16
ATOM     16  C   UNL     1       5.101   3.849  19.121  0.00  0.00    +0.000 C 
BRANCH  16  17
ATOM     17  C   UNL     1       3.814   4.437  19.655  0.00  0.00    +0.000 A 
ATOM     18  C   UNL     1       2.969   3.669  20.460  0.00  0.00    +0.000 A 
ATOM     19  C   UNL     1       1.788   4.209  20.960  0.00  0.00    +0.000 A 
ATOM     20  C   UNL     1       1.438   5.529  20.661  0.00  0.00    +0.000 A 
ATOM     21  C   UNL     1       2.237   6.331  19.825  0.00  0.00    +0.000 A 
ATOM     22  C   UNL     1       3.410   5.739  19.313  0.00  0.00    +0.000 A 
BRANCH  21  23
ATOM     23  C   UNL     1       1.883   7.746  19.527  0.00  0.00    +0.000 A 
ATOM     24  C   UNL     1       1.280   8.568  20.498  0.00  0.00    +0.000 A 
ATOM     25  C   UNL     1       0.916   9.891  20.222  0.00  0.00    +0.000 A 
ATOM     26  C   UNL     1       1.135  10.422  18.956  0.00  0.00    +0.000 A 
ATOM     27  C   UNL     1       1.732   9.641  17.977  0.00  0.00    +0.000 A 
ATOM     28  C   UNL     1       2.112   8.322  18.261  0.00  0.00    +0.000 A 
ENDBRANCH  21  23
ENDBRANCH  16  17
ENDBRANCH   5  16
TORSDOF 9
ENDMDL
MODEL 8
REMARK VINA RESULT:      -8.0      3.463      7.538
REMARK  Name = 
REMARK  9 active torsions:
REMARK  status: ('A' for Active; 'I' for Inactive)
REMARK    1  A    between atoms: C_2  and  C_3
REMARK    2  A    between atoms: C_3  and  C_4
REMARK    3  A    between atoms: C_4  and  C_5
REMARK    4  A    between atoms: C_5  and  C_6
REMARK    5  A    between atoms: C_6  and  C_7
REMARK    6  A    between atoms: N_11  and  C_12
REMARK    7  A    between atoms: C_12  and  C_13
REMARK    8  A    between atoms: C_17  and  C_18
REMARK    9  A    between atoms: N_25  and  O_26
REMARK                            x       y       z     vdW  Elec       q    Type
REMARK                         _______ _______ _______ _____ _____    ______ ____
ROOT
ATOM      1  C   UNL     1       1.731   3.398  19.552  0.00  0.00    +0.000 A 
ATOM      2  C   UNL     1       1.161   3.639  20.788  0.00  0.00    +0.000 A 
ATOM      3  C   UNL     1       2.092   3.170  21.725  0.00  0.00    +0.000 A 
ATOM      4  N   UNL     1       3.170   2.646  21.147  0.00  0.00    +0.000 NA
ATOM      5  N   UNL     1       2.956   2.815  19.819  0.00  0.00    +0.000 N 
ENDROOT
BRANCH   1   6
ATOM      6  C   UNL     1       1.202   3.771  18.204  0.00  0.00    +0.000 C 
BRANCH   6   7
ATOM      7  C   UNL     1       1.835   5.025  17.603  0.00  0.00    +0.000 C 
BRANCH   7   8
ATOM      8  C   UNL     1       2.232   6.074  18.655  0.00  0.00    +0.000 C 
BRANCH   8   9
ATOM      9  C   UNL     1       2.933   7.327  18.125  0.00  0.00    +0.000 C 
BRANCH   9  11
ATOM     10  O   UNL     1       2.010   9.440  17.337  0.00  0.00    +0.000 OA
ATOM     11  C   UNL     1       2.119   8.602  18.233  0.00  0.00    +0.000 C 
ATOM     12  N   UNL     1       1.502   8.757  19.446  0.00  0.00    +0.000 N 
ATOM     13  H   UNL     1       1.725   8.216  20.273  0.00  0.00    +0.000 HD
BRANCH  12  14
ATOM     14  O   UNL     1       0.828   9.981  19.648  0.00  0.00    +0.000 OA
ATOM     15  H   UNL     1       1.531  10.555  20.024  0.00  0.00    +0.000 HD
ENDBRANCH  12  14
ENDBRANCH   9  11
ENDBRANCH   8   9
ENDBRANCH   7   8
ENDBRANCH   6   7
ENDBRANCH   1   6
BRANCH   5  16
ATOM     16  C   UNL     1       3.980   2.320  18.896  0.00  0.00    +0.000 C 
BRANCH  16  17
ATOM     17  C   UNL     1       4.826   3.417  18.291  0.00  0.00    +0.000 A 
ATOM     18  C   UNL     1       5.289   4.469  19.085  0.00  0.00    +0.000 A 
ATOM     19  C   UNL     1       6.075   5.477  18.533  0.00  0.00    +0.000 A 
ATOM     20  C   UNL     1       6.409   5.443  17.176  0.00  0.00    +0.000 A 
ATOM     21  C   UNL     1       5.937   4.425  16.327  0.00  0.00    +0.000 A 
ATOM     22  C   UNL     1       5.119   3.438  16.916  0.00  0.00    +0.000 A 
BRANCH  21  23
ATOM     23  C   UNL     1       6.314   4.368  14.888  0.00  0.00    +0.000 A 
ATOM     24  C   UNL     1       7.360   5.160  14.375  0.00  0.00    +0.000 A 
ATOM     25  C   UNL     1       7.704   5.138  13.019  0.00  0.00    +0.000 A 
ATOM     26  C   UNL     1       6.998   4.330  12.135  0.00  0.00    +0.000 A 
ATOM     27  C   UNL     1       5.965   3.534  12.609  0.00  0.00    +0.000 A 
ATOM     28  C   UNL     1       5.633   3.543  13.970  0.00  0.00    +0.000 A 
ENDBRANCH  21  23
ENDBRANCH  16  17
ENDBRANCH   5  16
TORSDOF 9
ENDMDL
MODEL 9
REMARK VINA RESULT:      -8.0      1.091      1.128
REMARK  Name = 
REMARK  9 active torsions:
REMARK  status: ('A' for Active; 'I' for Inactive)
REMARK    1  A    between atoms: C_2  and  C_3
REMARK    2  A    between atoms: C_3  and  C_4
REMARK    3  A    between atoms: C_4  and  C_5
REMARK    4  A    between atoms: C_5  and  C_6
REMARK    5  A    between atoms: C_6  and  C_7
REMARK    6  A    between atoms: N_11  and  C_12
REMARK    7  A    between atoms: C_12  and  C_13
REMARK    8  A    between atoms: C_17  and  C_18
REMARK    9  A    between atoms: N_25  and  O_26
REMARK                            x       y       z     vdW  Elec       q    Type
REMARK                         _______ _______ _______ _____ _____    ______ ____
ROOT
ATOM      1  C   UNL     1       2.352   3.977  18.365  0.00  0.00    +0.000 A 
ATOM      2  C   UNL     1       1.434   2.949  18.467  0.00  0.00    +0.000 A 
ATOM      3  C   UNL     1       0.788   3.147  19.694  0.00  0.00    +0.000 A 
ATOM      4  N   UNL     1       1.261   4.203  20.349  0.00  0.00    +0.000 NA
ATOM      5  N   UNL     1       2.197   4.724  19.518  0.00  0.00    +0.000 N 
ENDROOT
BRANCH   1   6
ATOM      6  C   UNL     1       3.259   4.294  17.219  0.00  0.00    +0.000 C 
BRANCH   6   7
ATOM      7  C   UNL     1       4.606   3.573  17.263  0.00  0.00    +0.000 C 
BRANCH   7   8
ATOM      8  C   UNL     1       5.613   4.218  18.229  0.00  0.00    +0.000 C 
BRANCH   8   9
ATOM      9  C   UNL     1       6.942   4.666  17.616  0.00  0.00    +0.000 C 
BRANCH   9  11
ATOM     10  O   UNL     1       6.345   6.409  16.021  0.00  0.00    +0.000 OA
ATOM     11  C   UNL     1       6.936   6.072  17.048  0.00  0.00    +0.000 C 
ATOM     12  N   UNL     1       7.670   6.963  17.785  0.00  0.00    +0.000 N 
ATOM     13  H   UNL     1       8.333   6.699  18.504  0.00  0.00    +0.000 HD
BRANCH  12  14
ATOM     14  O   UNL     1       7.800   8.260  17.242  0.00  0.00    +0.000 OA
ATOM     15  H   UNL     1       7.293   8.811  17.877  0.00  0.00    +0.000 HD
ENDBRANCH  12  14
ENDBRANCH   9  11
ENDBRANCH   8   9
ENDBRANCH   7   8
ENDBRANCH   6   7
ENDBRANCH   1   6
BRANCH   5  16
ATOM     16  C   UNL     1       2.922   5.914  19.969  0.00  0.00    +0.000 C 
BRANCH  16  17
ATOM     17  C   UNL     1       2.277   7.212  19.536  0.00  0.00    +0.000 A 
ATOM     18  C   UNL     1       2.371   7.637  18.209  0.00  0.00    +0.000 A 
ATOM     19  C   UNL     1       1.773   8.828  17.806  0.00  0.00    +0.000 A 
ATOM     20  C   UNL     1       1.069   9.608  18.728  0.00  0.00    +0.000 A 
ATOM     21  C   UNL     1       0.977   9.241  20.083  0.00  0.00    +0.000 A 
ATOM     22  C   UNL     1       1.622   8.045  20.461  0.00  0.00    +0.000 A 
BRANCH  21  23
ATOM     23  C   UNL     1       0.205  10.053  21.063  0.00  0.00    +0.000 A 
ATOM     24  C   UNL     1      -0.056  11.418  20.835  0.00  0.00    +0.000 A 
ATOM     25  C   UNL     1      -0.755  12.199  21.762  0.00  0.00    +0.000 A 
ATOM     26  C   UNL     1      -1.200  11.635  22.953  0.00  0.00    +0.000 A 
ATOM     27  C   UNL     1      -0.963  10.292  23.206  0.00  0.00    +0.000 A 
ATOM     28  C   UNL     1      -0.279   9.507  22.269  0.00  0.00    +0.000 A 
ENDBRANCH  21  23
ENDBRANCH  16  17
ENDBRANCH   5  16
TORSDOF 9
ENDMDL
