MODEL 1
REMARK VINA RESULT:      -8.7      0.000      0.000
REMARK  Name = 
REMARK  7 active torsions:
REMARK  status: ('A' for Active; 'I' for Inactive)
REMARK    1  A    between atoms: C_1  and  N_2
REMARK    2  A    between atoms: C_7  and  C_8
REMARK    3  A    between atoms: C_10  and  O_11
REMARK    4  A    between atoms: O_11  and  C_12
REMARK    5  A    between atoms: C_12  and  C_13
REMARK    6  A    between atoms: C_16  and  C_17
REMARK    7  A    between atoms: C_25  and  O_26
REMARK                            x       y       z     vdW  Elec       q    Type
REMARK                         _______ _______ _______ _____ _____    ______ ____
ROOT
ATOM      1  C   UNL     1       3.006   4.880  19.578  0.00  0.00    +0.000 A 
ATOM      2  C   UNL     1       4.014   5.054  18.611  0.00  0.00    +0.000 A 
ATOM      3  C   UNL     1       4.476   3.981  17.827  0.00  0.00    +0.000 A 
ATOM      4  C   UNL     1       3.920   2.717  18.043  0.00  0.00    +0.000 A 
ATOM      5  C   UNL     1       2.925   2.524  19.004  0.00  0.00    +0.000 A 
ATOM      6  C   UNL     1       2.466   3.600  19.765  0.00  0.00    +0.000 A 
ATOM      7 BR   UNL     1       1.086   3.257  21.030  0.00  0.00    +0.000 Br
ENDROOT
BRANCH   1  14
ATOM      8  C   UNL     1       0.441  10.484  19.981  0.00  0.00    +0.000 C 
ATOM      9  N   UNL     1       1.209   9.331  19.578  0.00  0.00    +0.000 N 
ATOM     10  C   UNL     1       1.790   9.255  18.342  0.00  0.00    +0.000 C 
ATOM     11  O   UNL     1       1.848  10.129  17.492  0.00  0.00    +0.000 OA
ATOM     12  S   UNL     1       2.518   7.675  18.118  0.00  0.00    +0.000 S 
ATOM     13  C   UNL     1       2.198   7.214  19.742  0.00  0.00    +0.000 C 
ATOM     14  C   UNL     1       2.481   6.036  20.322  0.00  0.00    +0.000 C 
ATOM     15  C   UNL     1       1.455   8.292  20.446  0.00  0.00    +0.000 C 
ATOM     16  O   UNL     1       1.105   8.233  21.619  0.00  0.00    +0.000 OA
ENDBRANCH   1  14
BRANCH   4  17
ATOM     17  O   UNL     1       4.307   1.584  17.385  0.00  0.00    +0.000 OA
ATOM     18  H   UNL     1       3.819   1.550  16.546  0.00  0.00    +0.000 HD
ENDBRANCH   4  17
BRANCH   3  19
ATOM     19  O   UNL     1       5.454   4.354  16.940  0.00  0.00    +0.000 OA
BRANCH  19  20
ATOM     20  C   UNL     1       6.809   4.349  17.376  0.00  0.00    +0.000 C 
BRANCH  20  21
ATOM     21  C   UNL     1       7.323   5.723  17.683  0.00  0.00    +0.000 A 
ATOM     22  C   UNL     1       8.050   6.072  18.798  0.00  0.00    +0.000 A 
ATOM     23  N   UNL     1       8.476   7.329  19.054  0.00  0.00    +0.000 NA
ATOM     24  C   UNL     1       8.156   8.277  18.150  0.00  0.00    +0.000 A 
ATOM     25  N   UNL     1       7.455   8.038  17.027  0.00  0.00    +0.000 NA
ATOM     26  C   UNL     1       7.059   6.769  16.822  0.00  0.00    +0.000 A 
BRANCH  24  27
ATOM     27  C   UNL     1       8.587   9.657  18.404  0.00  0.00    +0.000 A 
ATOM     28  C   UNL     1       8.289  10.719  17.536  0.00  0.00    +0.000 A 
ATOM     29  C   UNL     1       8.722  12.015  17.819  0.00  0.00    +0.000 A 
ATOM     30  C   UNL     1       9.452  12.225  18.975  0.00  0.00    +0.000 A 
ATOM     31  N   UNL     1       9.769  11.246  19.844  0.00  0.00    +0.000 NA
ATOM     32  C   UNL     1       9.330   9.997  19.537  0.00  0.00    +0.000 A 
ENDBRANCH  24  27
ENDBRANCH  20  21
ENDBRANCH  19  20
ENDBRANCH   3  19
TORSDOF 6
ENDMDL
MODEL 2
REMARK VINA RESULT:      -8.6      0.715      1.009
REMARK  Name = 
REMARK  7 active torsions:
REMARK  status: ('A' for Active; 'I' for Inactive)
REMARK    1  A    between atoms: C_1  and  N_2
REMARK    2  A    between atoms: C_7  and  C_8
REMARK    3  A    between atoms: C_10  and  O_11
REMARK    4  A    between atoms: O_11  and  C_12
REMARK    5  A    between atoms: C_12  and  C_13
REMARK    6  A    between atoms: C_16  and  C_17
REMARK    7  A    between atoms: C_25  and  O_26
REMARK                            x       y       z     vdW  Elec       q    Type
REMARK                         _______ _______ _______ _____ _____    ______ ____
ROOT
ATOM      1  C   UNL     1       3.019   4.842  19.904  0.00  0.00    +0.000 A 
ATOM      2  C   UNL     1       4.357   4.845  19.466  0.00  0.00    +0.000 A 
ATOM      3  C   UNL     1       4.907   3.755  18.769  0.00  0.00    +0.000 A 
ATOM      4  C   UNL     1       4.093   2.642  18.534  0.00  0.00    +0.000 A 
ATOM      5  C   UNL     1       2.766   2.617  18.969  0.00  0.00    +0.000 A 
ATOM      6  C   UNL     1       2.229   3.713  19.647  0.00  0.00    +0.000 A 
ATOM      7 BR   UNL     1       0.404   3.611  20.177  0.00  0.00    +0.000 Br
ENDROOT
BRANCH   1  14
ATOM      8  C   UNL     1       0.370  10.421  19.855  0.00  0.00    +0.000 C 
ATOM      9  N   UNL     1       1.171   9.258  19.557  0.00  0.00    +0.000 N 
ATOM     10  C   UNL     1       1.810   9.119  18.356  0.00  0.00    +0.000 C 
ATOM     11  O   UNL     1       1.898   9.942  17.459  0.00  0.00    +0.000 OA
ATOM     12  S   UNL     1       2.567   7.539  18.260  0.00  0.00    +0.000 S 
ATOM     13  C   UNL     1       2.176   7.169  19.892  0.00  0.00    +0.000 C 
ATOM     14  C   UNL     1       2.445   6.031  20.554  0.00  0.00    +0.000 C 
ATOM     15  C   UNL     1       1.387   8.275  20.496  0.00  0.00    +0.000 C 
ATOM     16  O   UNL     1       0.982   8.279  21.652  0.00  0.00    +0.000 OA
ENDBRANCH   1  14
BRANCH   4  17
ATOM     17  O   UNL     1       4.512   1.501  17.911  0.00  0.00    +0.000 OA
ATOM     18  H   UNL     1       3.881   0.797  18.131  0.00  0.00    +0.000 HD
ENDBRANCH   4  17
BRANCH   3  19
ATOM     19  O   UNL     1       6.220   3.952  18.423  0.00  0.00    +0.000 OA
BRANCH  19  20
ATOM     20  C   UNL     1       6.513   4.747  17.280  0.00  0.00    +0.000 C 
BRANCH  20  21
ATOM     21  C   UNL     1       7.143   6.060  17.635  0.00  0.00    +0.000 A 
ATOM     22  C   UNL     1       8.022   6.269  18.672  0.00  0.00    +0.000 A 
ATOM     23  N   UNL     1       8.552   7.474  18.978  0.00  0.00    +0.000 NA
ATOM     24  C   UNL     1       8.181   8.516  18.206  0.00  0.00    +0.000 A 
ATOM     25  N   UNL     1       7.333   8.417  17.166  0.00  0.00    +0.000 NA
ATOM     26  C   UNL     1       6.839   7.193  16.906  0.00  0.00    +0.000 A 
BRANCH  24  27
ATOM     27  C   UNL     1       8.723   9.844  18.519  0.00  0.00    +0.000 A 
ATOM     28  C   UNL     1       9.426  10.119  19.701  0.00  0.00    +0.000 A 
ATOM     29  C   UNL     1       9.921  11.400  19.955  0.00  0.00    +0.000 A 
ATOM     30  C   UNL     1       9.699  12.388  19.013  0.00  0.00    +0.000 A 
ATOM     31  N   UNL     1       9.030  12.183  17.862  0.00  0.00    +0.000 NA
ATOM     32  C   UNL     1       8.564  10.924  17.647  0.00  0.00    +0.000 A 
ENDBRANCH  24  27
ENDBRANCH  20  21
ENDBRANCH  19  20
ENDBRANCH   3  19
TORSDOF 6
ENDMDL
MODEL 3
REMARK VINA RESULT:      -8.2      3.626      7.691
REMARK  Name = 
REMARK  7 active torsions:
REMARK  status: ('A' for Active; 'I' for Inactive)
REMARK    1  A    between atoms: C_1  and  N_2
REMARK    2  A    between atoms: C_7  and  C_8
REMARK    3  A    between atoms: C_10  and  O_11
REMARK    4  A    between atoms: O_11  and  C_12
REMARK    5  A    between atoms: C_12  and  C_13
REMARK    6  A    between atoms: C_16  and  C_17
REMARK    7  A    between atoms: C_25  and  O_26
REMARK                            x       y       z     vdW  Elec       q    Type
REMARK                         _______ _______ _______ _____ _____    ______ ____
ROOT
ATOM      1  C   UNL     1       3.092   3.873  18.372  0.00  0.00    +0.000 A 
ATOM      2  C   UNL     1       2.514   4.975  19.031  0.00  0.00    +0.000 A 
ATOM      3  C   UNL     1       2.108   4.900  20.375  0.00  0.00    +0.000 A 
ATOM      4  C   UNL     1       2.274   3.686  21.049  0.00  0.00    +0.000 A 
ATOM      5  C   UNL     1       2.837   2.580  20.409  0.00  0.00    +0.000 A 
ATOM      6  C   UNL     1       3.249   2.672  19.079  0.00  0.00    +0.000 A 
ATOM      7 BR   UNL     1       4.035   1.128  18.292  0.00  0.00    +0.000 Br
ENDROOT
BRANCH   1  14
ATOM      8  C   UNL     1       7.392   5.254  14.159  0.00  0.00    +0.000 C 
ATOM      9  N   UNL     1       6.549   5.228  15.330  0.00  0.00    +0.000 N 
ATOM     10  C   UNL     1       6.882   5.912  16.467  0.00  0.00    +0.000 C 
ATOM     11  O   UNL     1       7.810   6.688  16.623  0.00  0.00    +0.000 OA
ATOM     12  S   UNL     1       5.732   5.551  17.741  0.00  0.00    +0.000 S 
ATOM     13  C   UNL     1       4.726   4.646  16.681  0.00  0.00    +0.000 C 
ATOM     14  C   UNL     1       3.587   4.006  16.992  0.00  0.00    +0.000 C 
ATOM     15  C   UNL     1       5.337   4.575  15.328  0.00  0.00    +0.000 C 
ATOM     16  O   UNL     1       4.829   3.999  14.373  0.00  0.00    +0.000 OA
ENDBRANCH   1  14
BRANCH   4  17
ATOM     17  O   UNL     1       1.883   3.463  22.339  0.00  0.00    +0.000 OA
ATOM     18  H   UNL     1       1.011   3.873  22.457  0.00  0.00    +0.000 HD
ENDBRANCH   4  17
BRANCH   3  19
ATOM     19  O   UNL     1       1.576   6.077  20.836  0.00  0.00    +0.000 OA
BRANCH  19  20
ATOM     20  C   UNL     1       1.987   7.297  20.229  0.00  0.00    +0.000 C 
BRANCH  20  21
ATOM     21  C   UNL     1       1.304   8.495  20.816  0.00  0.00    +0.000 A 
ATOM     22  C   UNL     1       1.345   8.869  22.140  0.00  0.00    +0.000 A 
ATOM     23  N   UNL     1       0.694   9.943  22.638  0.00  0.00    +0.000 NA
ATOM     24  C   UNL     1      -0.031  10.674  21.766  0.00  0.00    +0.000 A 
ATOM     25  N   UNL     1      -0.132  10.397  20.454  0.00  0.00    +0.000 NA
ATOM     26  C   UNL     1       0.539   9.317  20.013  0.00  0.00    +0.000 A 
BRANCH  24  27
ATOM     27  C   UNL     1      -0.766  11.839  22.275  0.00  0.00    +0.000 A 
ATOM     28  C   UNL     1      -1.959  11.727  23.005  0.00  0.00    +0.000 A 
ATOM     29  C   UNL     1      -2.623  12.864  23.466  0.00  0.00    +0.000 A 
ATOM     30  C   UNL     1      -2.076  14.103  23.185  0.00  0.00    +0.000 A 
ATOM     31  N   UNL     1      -0.936  14.273  22.488  0.00  0.00    +0.000 NA
ATOM     32  C   UNL     1      -0.315  13.143  22.056  0.00  0.00    +0.000 A 
ENDBRANCH  24  27
ENDBRANCH  20  21
ENDBRANCH  19  20
ENDBRANCH   3  19
TORSDOF 6
ENDMDL
MODEL 4
REMARK VINA RESULT:      -8.2      0.701      1.309
REMARK  Name = 
REMARK  7 active torsions:
REMARK  status: ('A' for Active; 'I' for Inactive)
REMARK    1  A    between atoms: C_1  and  N_2
REMARK    2  A    between atoms: C_7  and  C_8
REMARK    3  A    between atoms: C_10  and  O_11
REMARK    4  A    between atoms: O_11  and  C_12
REMARK    5  A    between atoms: C_12  and  C_13
REMARK    6  A    between atoms: C_16  and  C_17
REMARK    7  A    between atoms: C_25  and  O_26
REMARK                            x       y       z     vdW  Elec       q    Type
REMARK                         _______ _______ _______ _____ _____    ______ ____
ROOT
ATOM      1  C   UNL     1       2.995   5.306  19.425  0.00  0.00    +0.000 A 
ATOM      2  C   UNL     1       4.032   5.534  18.500  0.00  0.00    +0.000 A 
ATOM      3  C   UNL     1       4.554   4.496  17.707  0.00  0.00    +0.000 A 
ATOM      4  C   UNL     1       4.028   3.210  17.872  0.00  0.00    +0.000 A 
ATOM      5  C   UNL     1       3.006   2.964  18.791  0.00  0.00    +0.000 A 
ATOM      6  C   UNL     1       2.488   4.006  19.561  0.00  0.00    +0.000 A 
ATOM      7 BR   UNL     1       1.074   3.591  20.765  0.00  0.00    +0.000 Br
ENDROOT
BRANCH   1  14
ATOM      8  C   UNL     1       0.299  10.845  19.874  0.00  0.00    +0.000 C 
ATOM      9  N   UNL     1       1.110   9.720  19.474  0.00  0.00    +0.000 N 
ATOM     10  C   UNL     1       1.755   9.696  18.268  0.00  0.00    +0.000 C 
ATOM     11  O   UNL     1       1.838  10.599  17.451  0.00  0.00    +0.000 OA
ATOM     12  S   UNL     1       2.525   8.139  18.032  0.00  0.00    +0.000 S 
ATOM     13  C   UNL     1       2.132   7.618  19.622  0.00  0.00    +0.000 C 
ATOM     14  C   UNL     1       2.409   6.427  20.178  0.00  0.00    +0.000 C 
ATOM     15  C   UNL     1       1.332   8.657  20.320  0.00  0.00    +0.000 C 
ATOM     16  O   UNL     1       0.924   8.553  21.471  0.00  0.00    +0.000 OA
ENDBRANCH   1  14
BRANCH   4  17
ATOM     17  O   UNL     1       4.473   2.107  17.201  0.00  0.00    +0.000 OA
ATOM     18  H   UNL     1       4.056   1.329  17.606  0.00  0.00    +0.000 HD
ENDBRANCH   4  17
BRANCH   3  19
ATOM     19  O   UNL     1       5.551   4.919  16.866  0.00  0.00    +0.000 OA
BRANCH  19  20
ATOM     20  C   UNL     1       6.890   4.938  17.350  0.00  0.00    +0.000 C 
BRANCH  20  21
ATOM     21  C   UNL     1       7.366   6.319  17.683  0.00  0.00    +0.000 A 
ATOM     22  C   UNL     1       7.054   7.462  16.982  0.00  0.00    +0.000 A 
ATOM     23  N   UNL     1       7.523   8.689  17.298  0.00  0.00    +0.000 NA
ATOM     24  C   UNL     1       8.342   8.772  18.366  0.00  0.00    +0.000 A 
ATOM     25  N   UNL     1       8.704   7.717  19.120  0.00  0.00    +0.000 NA
ATOM     26  C   UNL     1       8.206   6.521  18.760  0.00  0.00    +0.000 A 
BRANCH  24  27
ATOM     27  C   UNL     1       8.885  10.086  18.729  0.00  0.00    +0.000 A 
ATOM     28  C   UNL     1       9.340  10.392  20.021  0.00  0.00    +0.000 A 
ATOM     29  C   UNL     1       9.847  11.658  20.319  0.00  0.00    +0.000 A 
ATOM     30  C   UNL     1       9.889  12.602  19.309  0.00  0.00    +0.000 A 
ATOM     31  N   UNL     1       9.466  12.367  18.052  0.00  0.00    +0.000 NA
ATOM     32  C   UNL     1       8.980  11.123  17.797  0.00  0.00    +0.000 A 
ENDBRANCH  24  27
ENDBRANCH  20  21
ENDBRANCH  19  20
ENDBRANCH   3  19
TORSDOF 6
ENDMDL
MODEL 5
REMARK VINA RESULT:      -7.8      1.252      1.908
REMARK  Name = 
REMARK  7 active torsions:
REMARK  status: ('A' for Active; 'I' for Inactive)
REMARK    1  A    between atoms: C_1  and  N_2
REMARK    2  A    between atoms: C_7  and  C_8
REMARK    3  A    between atoms: C_10  and  O_11
REMARK    4  A    between atoms: O_11  and  C_12
REMARK    5  A    between atoms: C_12  and  C_13
REMARK    6  A    between atoms: C_16  and  C_17
REMARK    7  A    between atoms: C_25  and  O_26
REMARK                            x       y       z     vdW  Elec       q    Type
REMARK                         _______ _______ _______ _____ _____    ______ ____
ROOT
ATOM      1  C   UNL     1       3.137   5.335  18.868  0.00  0.00    +0.000 A 
ATOM      2  C   UNL     1       4.508   5.225  18.569  0.00  0.00    +0.000 A 
ATOM      3  C   UNL     1       5.243   4.071  18.895  0.00  0.00    +0.000 A 
ATOM      4  C   UNL     1       4.581   3.027  19.549  0.00  0.00    +0.000 A 
ATOM      5  C   UNL     1       3.223   3.123  19.862  0.00  0.00    +0.000 A 
ATOM      6  C   UNL     1       2.502   4.267  19.520  0.00  0.00    +0.000 A 
ATOM      7 BR   UNL     1       0.649   4.303  19.953  0.00  0.00    +0.000 Br
ENDROOT
BRANCH   1  14
ATOM      8  C   UNL     1       0.615  10.902  19.757  0.00  0.00    +0.000 C 
ATOM      9  N   UNL     1       1.104   9.554  19.918  0.00  0.00    +0.000 N 
ATOM     10  C   UNL     1       1.253   8.991  21.156  0.00  0.00    +0.000 C 
ATOM     11  O   UNL     1       0.913   9.457  22.231  0.00  0.00    +0.000 OA
ATOM     12  S   UNL     1       2.001   7.411  21.008  0.00  0.00    +0.000 S 
ATOM     13  C   UNL     1       1.929   7.453  19.292  0.00  0.00    +0.000 C 
ATOM     14  C   UNL     1       2.373   6.517  18.438  0.00  0.00    +0.000 C 
ATOM     15  C   UNL     1       1.369   8.751  18.832  0.00  0.00    +0.000 C 
ATOM     16  O   UNL     1       1.196   9.047  17.656  0.00  0.00    +0.000 OA
ENDBRANCH   1  14
BRANCH   4  17
ATOM     17  O   UNL     1       5.184   1.873  19.962  0.00  0.00    +0.000 OA
ATOM     18  H   UNL     1       4.559   1.406  20.540  0.00  0.00    +0.000 HD
ENDBRANCH   4  17
BRANCH   3  19
ATOM     19  O   UNL     1       6.559   4.155  18.517  0.00  0.00    +0.000 OA
BRANCH  19  20
ATOM     20  C   UNL     1       6.895   4.947  17.383  0.00  0.00    +0.000 C 
BRANCH  20  21
ATOM     21  C   UNL     1       7.460   6.283  17.758  0.00  0.00    +0.000 A 
ATOM     22  C   UNL     1       8.227   6.542  18.871  0.00  0.00    +0.000 A 
ATOM     23  N   UNL     1       8.699   7.768  19.190  0.00  0.00    +0.000 NA
ATOM     24  C   UNL     1       8.385   8.778  18.354  0.00  0.00    +0.000 A 
ATOM     25  N   UNL     1       7.646   8.630  17.239  0.00  0.00    +0.000 NA
ATOM     26  C   UNL     1       7.206   7.388  16.969  0.00  0.00    +0.000 A 
BRANCH  24  27
ATOM     27  C   UNL     1       8.865  10.127  18.678  0.00  0.00    +0.000 A 
ATOM     28  C   UNL     1       9.501  10.438  19.889  0.00  0.00    +0.000 A 
ATOM     29  C   UNL     1       9.939  11.737  20.154  0.00  0.00    +0.000 A 
ATOM     30  C   UNL     1       9.729  12.708  19.191  0.00  0.00    +0.000 A 
ATOM     31  N   UNL     1       9.124  12.470  18.012  0.00  0.00    +0.000 NA
ATOM     32  C   UNL     1       8.712  11.194  17.788  0.00  0.00    +0.000 A 
ENDBRANCH  24  27
ENDBRANCH  20  21
ENDBRANCH  19  20
ENDBRANCH   3  19
TORSDOF 6
ENDMDL
MODEL 6
REMARK VINA RESULT:      -7.8      4.871      8.175
REMARK  Name = 
REMARK  7 active torsions:
REMARK  status: ('A' for Active; 'I' for Inactive)
REMARK    1  A    between atoms: C_1  and  N_2
REMARK    2  A    between atoms: C_7  and  C_8
REMARK    3  A    between atoms: C_10  and  O_11
REMARK    4  A    between atoms: O_11  and  C_12
REMARK    5  A    between atoms: C_12  and  C_13
REMARK    6  A    between atoms: C_16  and  C_17
REMARK    7  A    between atoms: C_25  and  O_26
REMARK                            x       y       z     vdW  Elec       q    Type
REMARK                         _______ _______ _______ _____ _____    ______ ____
ROOT
ATOM      1  C   UNL     1      -1.079  12.562  21.070  0.00  0.00    +0.000 A 
ATOM      2  C   UNL     1      -0.790  11.285  20.550  0.00  0.00    +0.000 A 
ATOM      3  C   UNL     1       0.119  11.109  19.491  0.00  0.00    +0.000 A 
ATOM      4  C   UNL     1       0.725  12.244  18.944  0.00  0.00    +0.000 A 
ATOM      5  C   UNL     1       0.443  13.519  19.440  0.00  0.00    +0.000 A 
ATOM      6  C   UNL     1      -0.449  13.678  20.501  0.00  0.00    +0.000 A 
ATOM      7 BR   UNL     1      -0.752  15.445  21.139  0.00  0.00    +0.000 Br
ENDROOT
BRANCH   1  14
ATOM      8  C   UNL     1      -6.614  12.717  23.806  0.00  0.00    +0.000 C 
ATOM      9  N   UNL     1      -5.515  12.846  22.878  0.00  0.00    +0.000 N 
ATOM     10  C   UNL     1      -5.726  13.125  21.555  0.00  0.00    +0.000 C 
ATOM     11  O   UNL     1      -6.782  13.404  21.012  0.00  0.00    +0.000 OA
ATOM     12  S   UNL     1      -4.206  13.067  20.682  0.00  0.00    +0.000 S 
ATOM     13  C   UNL     1      -3.297  12.858  22.126  0.00  0.00    +0.000 C 
ATOM     14  C   UNL     1      -1.967  12.708  22.234  0.00  0.00    +0.000 C 
ATOM     15  C   UNL     1      -4.207  12.770  23.298  0.00  0.00    +0.000 C 
ATOM     16  O   UNL     1      -3.827  12.629  24.455  0.00  0.00    +0.000 OA
ENDBRANCH   1  14
BRANCH   4  17
ATOM     17  O   UNL     1       1.590  12.221  17.887  0.00  0.00    +0.000 OA
ATOM     18  H   UNL     1       2.161  11.442  17.991  0.00  0.00    +0.000 HD
ENDBRANCH   4  17
BRANCH   3  19
ATOM     19  O   UNL     1       0.269   9.794  19.133  0.00  0.00    +0.000 OA
BRANCH  19  20
ATOM     20  C   UNL     1       0.993   8.927  20.000  0.00  0.00    +0.000 C 
BRANCH  20  21
ATOM     21  C   UNL     1       1.990   8.079  19.271  0.00  0.00    +0.000 A 
ATOM     22  C   UNL     1       2.472   6.864  19.701  0.00  0.00    +0.000 A 
ATOM     23  N   UNL     1       3.391   6.138  19.028  0.00  0.00    +0.000 NA
ATOM     24  C   UNL     1       3.847   6.657  17.869  0.00  0.00    +0.000 A 
ATOM     25  N   UNL     1       3.438   7.833  17.359  0.00  0.00    +0.000 NA
ATOM     26  C   UNL     1       2.520   8.511  18.071  0.00  0.00    +0.000 A 
BRANCH  24  27
ATOM     27  C   UNL     1       4.860   5.905  17.119  0.00  0.00    +0.000 A 
ATOM     28  C   UNL     1       4.632   4.616  16.614  0.00  0.00    +0.000 A 
ATOM     29  C   UNL     1       5.627   3.939  15.908  0.00  0.00    +0.000 A 
ATOM     30  C   UNL     1       6.843   4.571  15.719  0.00  0.00    +0.000 A 
ATOM     31  N   UNL     1       7.121   5.806  16.181  0.00  0.00    +0.000 NA
ATOM     32  C   UNL     1       6.127   6.435  16.863  0.00  0.00    +0.000 A 
ENDBRANCH  24  27
ENDBRANCH  20  21
ENDBRANCH  19  20
ENDBRANCH   3  19
TORSDOF 6
ENDMDL
MODEL 7
REMARK VINA RESULT:      -7.8      3.632      7.758
REMARK  Name = 
REMARK  7 active torsions:
REMARK  status: ('A' for Active; 'I' for Inactive)
REMARK    1  A    between atoms: C_1  and  N_2
REMARK    2  A    between atoms: C_7  and  C_8
REMARK    3  A    between atoms: C_10  and  O_11
REMARK    4  A    between atoms: O_11  and  C_12
REMARK    5  A    between atoms: C_12  and  C_13
REMARK    6  A    between atoms: C_16  and  C_17
REMARK    7  A    between atoms: C_25  and  O_26
REMARK                            x       y       z     vdW  Elec       q    Type
REMARK                         _______ _______ _______ _____ _____    ______ ____
ROOT
ATOM      1  C   UNL     1       3.099   3.840  18.364  0.00  0.00    +0.000 A 
ATOM      2  C   UNL     1       2.503   4.943  19.006  0.00  0.00    +0.000 A 
ATOM      3  C   UNL     1       2.095   4.881  20.350  0.00  0.00    +0.000 A 
ATOM      4  C   UNL     1       2.275   3.679  21.042  0.00  0.00    +0.000 A 
ATOM      5  C   UNL     1       2.855   2.572  20.418  0.00  0.00    +0.000 A 
ATOM      6  C   UNL     1       3.270   2.652  19.088  0.00  0.00    +0.000 A 
ATOM      7 BR   UNL     1       4.080   1.108  18.325  0.00  0.00    +0.000 Br
ENDROOT
BRANCH   1  14
ATOM      8  C   UNL     1       7.395   5.213  14.145  0.00  0.00    +0.000 C 
ATOM      9  N   UNL     1       6.549   5.192  15.314  0.00  0.00    +0.000 N 
ATOM     10  C   UNL     1       6.872   5.894  16.444  0.00  0.00    +0.000 C 
ATOM     11  O   UNL     1       7.792   6.682  16.593  0.00  0.00    +0.000 OA
ATOM     12  S   UNL     1       5.722   5.537  17.719  0.00  0.00    +0.000 S 
ATOM     13  C   UNL     1       4.729   4.609  16.668  0.00  0.00    +0.000 C 
ATOM     14  C   UNL     1       3.596   3.961  16.984  0.00  0.00    +0.000 C 
ATOM     15  C   UNL     1       5.344   4.527  15.317  0.00  0.00    +0.000 C 
ATOM     16  O   UNL     1       4.845   3.934  14.369  0.00  0.00    +0.000 OA
ENDBRANCH   1  14
BRANCH   4  17
ATOM     17  O   UNL     1       1.883   3.468  22.333  0.00  0.00    +0.000 OA
ATOM     18  H   UNL     1       2.539   2.886  22.748  0.00  0.00    +0.000 HD
ENDBRANCH   4  17
BRANCH   3  19
ATOM     19  O   UNL     1       1.545   6.057  20.793  0.00  0.00    +0.000 OA
BRANCH  19  20
ATOM     20  C   UNL     1       2.132   7.285  20.378  0.00  0.00    +0.000 C 
BRANCH  20  21
ATOM     21  C   UNL     1       1.254   8.468  20.652  0.00  0.00    +0.000 A 
ATOM     22  C   UNL     1       0.692   9.283  19.697  0.00  0.00    +0.000 A 
ATOM     23  N   UNL     1      -0.076  10.358  19.982  0.00  0.00    +0.000 NA
ATOM     24  C   UNL     1      -0.287  10.626  21.287  0.00  0.00    +0.000 A 
ATOM     25  N   UNL     1       0.212   9.890  22.297  0.00  0.00    +0.000 NA
ATOM     26  C   UNL     1       0.967   8.830  21.953  0.00  0.00    +0.000 A 
BRANCH  24  27
ATOM     27  C   UNL     1      -1.102  11.796  21.636  0.00  0.00    +0.000 A 
ATOM     28  C   UNL     1      -1.878  12.491  20.696  0.00  0.00    +0.000 A 
ATOM     29  C   UNL     1      -2.635  13.600  21.076  0.00  0.00    +0.000 A 
ATOM     30  C   UNL     1      -2.600  13.997  22.400  0.00  0.00    +0.000 A 
ATOM     31  N   UNL     1      -1.872  13.371  23.346  0.00  0.00    +0.000 NA
ATOM     32  C   UNL     1      -1.149  12.294  22.941  0.00  0.00    +0.000 A 
ENDBRANCH  24  27
ENDBRANCH  20  21
ENDBRANCH  19  20
ENDBRANCH   3  19
TORSDOF 6
ENDMDL
MODEL 8
REMARK VINA RESULT:      -7.7      3.801      9.454
REMARK  Name = 
REMARK  7 active torsions:
REMARK  status: ('A' for Active; 'I' for Inactive)
REMARK    1  A    between atoms: C_1  and  N_2
REMARK    2  A    between atoms: C_7  and  C_8
REMARK    3  A    between atoms: C_10  and  O_11
REMARK    4  A    between atoms: O_11  and  C_12
REMARK    5  A    between atoms: C_12  and  C_13
REMARK    6  A    between atoms: C_16  and  C_17
REMARK    7  A    between atoms: C_25  and  O_26
REMARK                            x       y       z     vdW  Elec       q    Type
REMARK                         _______ _______ _______ _____ _____    ______ ____
ROOT
ATOM      1  C   UNL     1       2.353   6.386  18.885  0.00  0.00    +0.000 A 
ATOM      2  C   UNL     1       2.071   7.739  18.615  0.00  0.00    +0.000 A 
ATOM      3  C   UNL     1       1.572   8.600  19.608  0.00  0.00    +0.000 A 
ATOM      4  C   UNL     1       1.337   8.075  20.883  0.00  0.00    +0.000 A 
ATOM      5  C   UNL     1       1.601   6.733  21.166  0.00  0.00    +0.000 A 
ATOM      6  C   UNL     1       2.111   5.893  20.175  0.00  0.00    +0.000 A 
ATOM      7 BR   UNL     1       2.474   4.087  20.654  0.00  0.00    +0.000 Br
ENDROOT
BRANCH   1  14
ATOM      8  C   UNL     1       7.109   4.241  15.580  0.00  0.00    +0.000 C 
ATOM      9  N   UNL     1       6.197   5.071  16.331  0.00  0.00    +0.000 N 
ATOM     10  C   UNL     1       6.572   6.299  16.802  0.00  0.00    +0.000 C 
ATOM     11  O   UNL     1       7.613   6.895  16.581  0.00  0.00    +0.000 OA
ATOM     12  S   UNL     1       5.291   6.977  17.790  0.00  0.00    +0.000 S 
ATOM     13  C   UNL     1       4.211   5.697  17.403  0.00  0.00    +0.000 C 
ATOM     14  C   UNL     1       2.956   5.530  17.851  0.00  0.00    +0.000 C 
ATOM     15  C   UNL     1       4.890   4.696  16.539  0.00  0.00    +0.000 C 
ATOM     16  O   UNL     1       4.351   3.684  16.106  0.00  0.00    +0.000 OA
ENDBRANCH   1  14
BRANCH   4  17
ATOM     17  O   UNL     1       0.813   8.787  21.924  0.00  0.00    +0.000 OA
ATOM     18  H   UNL     1       1.468   8.786  22.640  0.00  0.00    +0.000 HD
ENDBRANCH   4  17
BRANCH   3  19
ATOM     19  O   UNL     1       1.369   9.878  19.151  0.00  0.00    +0.000 OA
BRANCH  19  20
ATOM     20  C   UNL     1       0.651  10.062  17.936  0.00  0.00    +0.000 C 
BRANCH  20  21
ATOM     21  C   UNL     1      -0.740  10.572  18.157  0.00  0.00    +0.000 A 
ATOM     22  C   UNL     1      -1.133  11.399  19.185  0.00  0.00    +0.000 A 
ATOM     23  N   UNL     1      -2.405  11.819  19.367  0.00  0.00    +0.000 NA
ATOM     24  C   UNL     1      -3.322  11.389  18.476  0.00  0.00    +0.000 A 
ATOM     25  N   UNL     1      -3.040  10.585  17.435  0.00  0.00    +0.000 NA
ATOM     26  C   UNL     1      -1.758  10.200  17.302  0.00  0.00    +0.000 A 
BRANCH  24  27
ATOM     27  C   UNL     1      -4.717  11.811  18.653  0.00  0.00    +0.000 A 
ATOM     28  C   UNL     1      -5.743  11.436  17.772  0.00  0.00    +0.000 A 
ATOM     29  C   UNL     1      -7.055  11.864  17.980  0.00  0.00    +0.000 A 
ATOM     30  C   UNL     1      -7.317  12.667  19.075  0.00  0.00    +0.000 A 
ATOM     31  N   UNL     1      -6.374  13.060  19.953  0.00  0.00    +0.000 NA
ATOM     32  C   UNL     1      -5.108  12.623  19.720  0.00  0.00    +0.000 A 
ENDBRANCH  24  27
ENDBRANCH  20  21
ENDBRANCH  19  20
ENDBRANCH   3  19
TORSDOF 6
ENDMDL
MODEL 9
REMARK VINA RESULT:      -7.6      4.666      9.971
REMARK  Name = 
REMARK  7 active torsions:
REMARK  status: ('A' for Active; 'I' for Inactive)
REMARK    1  A    between atoms: C_1  and  N_2
REMARK    2  A    between atoms: C_7  and  C_8
REMARK    3  A    between atoms: C_10  and  O_11
REMARK    4  A    between atoms: O_11  and  C_12
REMARK    5  A    between atoms: C_12  and  C_13
REMARK    6  A    between atoms: C_16  and  C_17
REMARK    7  A    between atoms: C_25  and  O_26
REMARK                            x       y       z     vdW  Elec       q    Type
REMARK                         _______ _______ _______ _____ _____    ______ ____
ROOT
ATOM      1  C   UNL     1       2.856   7.130  19.212  0.00  0.00    +0.000 A 
ATOM      2  C   UNL     1       1.907   7.641  20.118  0.00  0.00    +0.000 A 
ATOM      3  C   UNL     1       1.145   8.785  19.819  0.00  0.00    +0.000 A 
ATOM      4  C   UNL     1       1.366   9.426  18.596  0.00  0.00    +0.000 A 
ATOM      5  C   UNL     1       2.310   8.939  17.689  0.00  0.00    +0.000 A 
ATOM      6  C   UNL     1       3.048   7.794  17.992  0.00  0.00    +0.000 A 
ATOM      7 BR   UNL     1       4.289   7.178  16.687  0.00  0.00    +0.000 Br
ENDROOT
BRANCH   1  14
ATOM      8  C   UNL     1       3.813   1.049  18.707  0.00  0.00    +0.000 C 
ATOM      9  N   UNL     1       3.220   2.362  18.800  0.00  0.00    +0.000 N 
ATOM     10  C   UNL     1       1.909   2.579  18.477  0.00  0.00    +0.000 C 
ATOM     11  O   UNL     1       1.064   1.745  18.193  0.00  0.00    +0.000 OA
ATOM     12  S   UNL     1       1.549   4.294  18.555  0.00  0.00    +0.000 S 
ATOM     13  C   UNL     1       3.099   4.667  19.198  0.00  0.00    +0.000 C 
ATOM     14  C   UNL     1       3.576   5.882  19.513  0.00  0.00    +0.000 C 
ATOM     15  C   UNL     1       3.927   3.436  19.291  0.00  0.00    +0.000 C 
ATOM     16  O   UNL     1       5.073   3.409  19.723  0.00  0.00    +0.000 OA
ENDBRANCH   1  14
BRANCH   4  17
ATOM     17  O   UNL     1       0.729  10.568  18.201  0.00  0.00    +0.000 OA
ATOM     18  H   UNL     1       0.297  10.385  17.351  0.00  0.00    +0.000 HD
ENDBRANCH   4  17
BRANCH   3  19
ATOM     19  O   UNL     1       0.274   9.120  20.824  0.00  0.00    +0.000 OA
BRANCH  19  20
ATOM     20  C   UNL     1       0.526  10.298  21.583  0.00  0.00    +0.000 C 
BRANCH  20  21
ATOM     21  C   UNL     1      -0.715  11.098  21.840  0.00  0.00    +0.000 A 
ATOM     22  C   UNL     1      -1.340  11.917  20.928  0.00  0.00    +0.000 A 
ATOM     23  N   UNL     1      -2.446  12.643  21.204  0.00  0.00    +0.000 NA
ATOM     24  C   UNL     1      -2.945  12.541  22.453  0.00  0.00    +0.000 A 
ATOM     25  N   UNL     1      -2.413  11.766  23.416  0.00  0.00    +0.000 NA
ATOM     26  C   UNL     1      -1.314  11.064  23.083  0.00  0.00    +0.000 A 
BRANCH  24  27
ATOM     27  C   UNL     1      -4.135  13.330  22.795  0.00  0.00    +0.000 A 
ATOM     28  C   UNL     1      -5.428  12.975  22.381  0.00  0.00    +0.000 A 
ATOM     29  C   UNL     1      -6.530  13.757  22.730  0.00  0.00    +0.000 A 
ATOM     30  C   UNL     1      -6.314  14.891  23.493  0.00  0.00    +0.000 A 
ATOM     31  N   UNL     1      -5.097  15.283  23.918  0.00  0.00    +0.000 NA
ATOM     32  C   UNL     1      -4.048  14.496  23.561  0.00  0.00    +0.000 A 
ENDBRANCH  24  27
ENDBRANCH  20  21
ENDBRANCH  19  20
ENDBRANCH   3  19
TORSDOF 6
ENDMDL
