MODEL 1
REMARK VINA RESULT:      -9.7      0.000      0.000
REMARK  Name = 
REMARK  7 active torsions:
REMARK  status: ('A' for Active; 'I' for Inactive)
REMARK    1  A    between atoms: C_1  and  C_2
REMARK    2  A    between atoms: C_6  and  N_7
REMARK    3  A    between atoms: C_10  and  C_11
REMARK    4  A    between atoms: C_11  and  C_13
REMARK    5  A    between atoms: C_15  and  C_16
REMARK    6  A    between atoms: C_22  and  C_23
REMARK    7  A    between atoms: C_30  and  N_31
REMARK                            x       y       z     vdW  Elec       q    Type
REMARK                         _______ _______ _______ _____ _____    ______ ____
ROOT
ATOM      1  C   UNL     1       1.239   9.864  19.171  0.00  0.00    +0.000 C 
ATOM      2  O   UNL     1       1.201  10.642  18.218  0.00  0.00    +0.000 OA
ENDROOT
BRANCH   1   3
ATOM      3  C   UNL     1       1.828   8.540  19.035  0.00  0.00    +0.000 A 
ATOM      4  C   UNL     1       2.732   8.101  18.079  0.00  0.00    +0.000 A 
ATOM      5  C   UNL     1       3.021   6.717  18.310  0.00  0.00    +0.000 A 
ATOM      6  C   UNL     1       2.239   6.324  19.394  0.00  0.00    +0.000 A 
ATOM      7  N   UNL     1       1.686   7.480  19.886  0.00  0.00    +0.000 N 
ATOM      8  H   UNL     1       1.213   7.515  20.773  0.00  0.00    +0.000 HD
BRANCH   5   9
ATOM      9  C   UNL     1       3.951   5.860  17.583  0.00  0.00    +0.000 A 
ATOM     10  C   UNL     1       3.721   4.490  17.438  0.00  0.00    +0.000 A 
ATOM     11  C   UNL     1       4.650   3.700  16.758  0.00  0.00    +0.000 A 
ATOM     12  C   UNL     1       5.783   4.305  16.242  0.00  0.00    +0.000 A 
ATOM     13  N   UNL     1       6.026   5.626  16.326  0.00  0.00    +0.000 NA
ATOM     14  C   UNL     1       5.099   6.369  16.977  0.00  0.00    +0.000 A 
ENDBRANCH   5   9
BRANCH   6  15
ATOM     15  C   UNL     1       1.971   5.043  20.063  0.00  0.00    +0.000 A 
ATOM     16  C   UNL     1       1.149   4.076  19.470  0.00  0.00    +0.000 A 
ATOM     17  C   UNL     1       0.892   2.874  20.125  0.00  0.00    +0.000 A 
ATOM     18  C   UNL     1       1.462   2.670  21.367  0.00  0.00    +0.000 A 
ATOM     19  N   UNL     1       2.285   3.555  21.963  0.00  0.00    +0.000 NA
ATOM     20  C   UNL     1       2.529   4.710  21.296  0.00  0.00    +0.000 A 
ENDBRANCH   6  15
ENDBRANCH   1   3
BRANCH   1  24
ATOM     21  N   UNL     1      -0.474  11.373  22.039  0.00  0.00    +0.000 N 
ATOM     22  N   UNL     1       0.277  10.486  22.728  0.00  0.00    +0.000 NA
ATOM     23  C   UNL     1       0.847   9.743  21.783  0.00  0.00    +0.000 A 
ATOM     24  C   UNL     1       0.676  10.248  20.474  0.00  0.00    +0.000 A 
ATOM     25  C   UNL     1      -0.217  11.298  20.666  0.00  0.00    +0.000 A 
BRANCH  21  31
ATOM     26  C   UNL     1      -3.189  17.257  25.369  0.00  0.00    +0.000 C 
ATOM     27  C   UNL     1      -2.839  15.952  24.763  0.00  0.00    +0.000 A 
ATOM     28  N   UNL     1      -1.771  15.689  24.040  0.00  0.00    +0.000 NA
ATOM     29  C   UNL     1      -1.880  14.369  23.699  0.00  0.00    +0.000 A 
ATOM     30  C   UNL     1      -1.005  13.573  22.948  0.00  0.00    +0.000 A 
ATOM     31  C   UNL     1      -1.351  12.231  22.743  0.00  0.00    +0.000 A 
ATOM     32  C   UNL     1      -2.566  11.710  23.219  0.00  0.00    +0.000 A 
ATOM     33  C   UNL     1      -3.436  12.494  23.988  0.00  0.00    +0.000 A 
ATOM     34  C   UNL     1      -3.050  13.809  24.207  0.00  0.00    +0.000 A 
ATOM     35  N   UNL     1      -3.630  14.841  24.901  0.00  0.00    +0.000 N 
ATOM     36  H   UNL     1      -4.493  14.789  25.422  0.00  0.00    +0.000 HD
ENDBRANCH  21  31
BRANCH  25  37
ATOM     37  N   UNL     1      -0.734  12.153  19.744  0.00  0.00    +0.000 N 
ATOM     38  H   UNL     1      -1.316  12.928  20.075  0.00  0.00    +0.000 HD
ATOM     39  H   UNL     1      -0.983  11.847  18.806  0.00  0.00    +0.000 HD
ENDBRANCH  25  37
ENDBRANCH   1  24
TORSDOF 6
ENDMDL
MODEL 2
REMARK VINA RESULT:      -9.6      0.624      3.226
REMARK  Name = 
REMARK  7 active torsions:
REMARK  status: ('A' for Active; 'I' for Inactive)
REMARK    1  A    between atoms: C_1  and  C_2
REMARK    2  A    between atoms: C_6  and  N_7
REMARK    3  A    between atoms: C_10  and  C_11
REMARK    4  A    between atoms: C_11  and  C_13
REMARK    5  A    between atoms: C_15  and  C_16
REMARK    6  A    between atoms: C_22  and  C_23
REMARK    7  A    between atoms: C_30  and  N_31
REMARK                            x       y       z     vdW  Elec       q    Type
REMARK                         _______ _______ _______ _____ _____    ______ ____
ROOT
ATOM      1  C   UNL     1       1.198   9.913  19.748  0.00  0.00    +0.000 C 
ATOM      2  O   UNL     1       1.414  10.731  18.854  0.00  0.00    +0.000 OA
ENDROOT
BRANCH   1   3
ATOM      3  C   UNL     1       1.604   8.523  19.607  0.00  0.00    +0.000 A 
ATOM      4  C   UNL     1       1.281   7.451  20.425  0.00  0.00    +0.000 A 
ATOM      5  C   UNL     1       1.921   6.271  19.923  0.00  0.00    +0.000 A 
ATOM      6  C   UNL     1       2.670   6.665  18.816  0.00  0.00    +0.000 A 
ATOM      7  N   UNL     1       2.310   7.969  18.576  0.00  0.00    +0.000 N 
ATOM      8  H   UNL     1       2.567   8.450  17.731  0.00  0.00    +0.000 HD
BRANCH   5   9
ATOM      9  C   UNL     1       1.824   4.909  20.436  0.00  0.00    +0.000 A 
ATOM     10  C   UNL     1       0.999   3.957  19.831  0.00  0.00    +0.000 A 
ATOM     11  C   UNL     1       0.915   2.672  20.370  0.00  0.00    +0.000 A 
ATOM     12  C   UNL     1       1.658   2.376  21.500  0.00  0.00    +0.000 A 
ATOM     13  N   UNL     1       2.493   3.251  22.092  0.00  0.00    +0.000 NA
ATOM     14  C   UNL     1       2.567   4.484  21.538  0.00  0.00    +0.000 A 
ENDBRANCH   5   9
BRANCH   6  15
ATOM     15  C   UNL     1       3.630   5.997  17.927  0.00  0.00    +0.000 A 
ATOM     16  C   UNL     1       3.432   4.672  17.514  0.00  0.00    +0.000 A 
ATOM     17  C   UNL     1       4.359   4.048  16.684  0.00  0.00    +0.000 A 
ATOM     18  C   UNL     1       5.472   4.767  16.289  0.00  0.00    +0.000 A 
ATOM     19  N   UNL     1       5.690   6.051  16.633  0.00  0.00    +0.000 NA
ATOM     20  C   UNL     1       4.763   6.638  17.430  0.00  0.00    +0.000 A 
ENDBRANCH   6  15
ENDBRANCH   1   3
BRANCH   1  24
ATOM     21  N   UNL     1      -0.741  11.499  22.424  0.00  0.00    +0.000 N 
ATOM     22  N   UNL     1      -0.143  10.550  23.178  0.00  0.00    +0.000 NA
ATOM     23  C   UNL     1       0.483   9.783  22.291  0.00  0.00    +0.000 A 
ATOM     24  C   UNL     1       0.509  10.318  20.983  0.00  0.00    +0.000 A 
ATOM     25  C   UNL     1      -0.326  11.426  21.091  0.00  0.00    +0.000 A 
BRANCH  21  31
ATOM     26  C   UNL     1      -3.476  17.573  25.376  0.00  0.00    +0.000 C 
ATOM     27  C   UNL     1      -3.131  16.239  24.836  0.00  0.00    +0.000 A 
ATOM     28  N   UNL     1      -2.024  15.918  24.200  0.00  0.00    +0.000 NA
ATOM     29  C   UNL     1      -2.155  14.591  23.890  0.00  0.00    +0.000 A 
ATOM     30  C   UNL     1      -1.258  13.744  23.228  0.00  0.00    +0.000 A 
ATOM     31  C   UNL     1      -1.635  12.408  23.038  0.00  0.00    +0.000 A 
ATOM     32  C   UNL     1      -2.899  11.944  23.440  0.00  0.00    +0.000 A 
ATOM     33  C   UNL     1      -3.794  12.779  24.121  0.00  0.00    +0.000 A 
ATOM     34  C   UNL     1      -3.378  14.088  24.329  0.00  0.00    +0.000 A 
ATOM     35  N   UNL     1      -3.968  15.159  24.949  0.00  0.00    +0.000 N 
ATOM     36  H   UNL     1      -4.867  15.153  25.407  0.00  0.00    +0.000 HD
ENDBRANCH  21  31
BRANCH  25  37
ATOM     37  N   UNL     1      -0.666  12.330  20.133  0.00  0.00    +0.000 N 
ATOM     38  H   UNL     1      -1.564  12.815  20.223  0.00  0.00    +0.000 HD
ATOM     39  H   UNL     1      -0.369  12.227  19.166  0.00  0.00    +0.000 HD
ENDBRANCH  25  37
ENDBRANCH   1  24
TORSDOF 6
ENDMDL
MODEL 3
REMARK VINA RESULT:      -9.6      1.078      1.584
REMARK  Name = 
REMARK  7 active torsions:
REMARK  status: ('A' for Active; 'I' for Inactive)
REMARK    1  A    between atoms: C_1  and  C_2
REMARK    2  A    between atoms: C_6  and  N_7
REMARK    3  A    between atoms: C_10  and  C_11
REMARK    4  A    between atoms: C_11  and  C_13
REMARK    5  A    between atoms: C_15  and  C_16
REMARK    6  A    between atoms: C_22  and  C_23
REMARK    7  A    between atoms: C_30  and  N_31
REMARK                            x       y       z     vdW  Elec       q    Type
REMARK                         _______ _______ _______ _____ _____    ______ ____
ROOT
ATOM      1  C   UNL     1       1.263   9.712  18.930  0.00  0.00    +0.000 C 
ATOM      2  O   UNL     1       1.172  10.406  17.918  0.00  0.00    +0.000 OA
ENDROOT
BRANCH   1   3
ATOM      3  C   UNL     1       1.911   8.410  18.890  0.00  0.00    +0.000 A 
ATOM      4  C   UNL     1       2.941   7.993  18.059  0.00  0.00    +0.000 A 
ATOM      5  C   UNL     1       3.250   6.625  18.347  0.00  0.00    +0.000 A 
ATOM      6  C   UNL     1       2.356   6.215  19.335  0.00  0.00    +0.000 A 
ATOM      7  N   UNL     1       1.705   7.356  19.735  0.00  0.00    +0.000 N 
ATOM      8  H   UNL     1       1.126   7.384  20.558  0.00  0.00    +0.000 HD
BRANCH   5   9
ATOM      9  C   UNL     1       4.292   5.794  17.754  0.00  0.00    +0.000 A 
ATOM     10  C   UNL     1       3.982   4.662  16.997  0.00  0.00    +0.000 A 
ATOM     11  C   UNL     1       5.010   3.878  16.470  0.00  0.00    +0.000 A 
ATOM     12  C   UNL     1       6.321   4.252  16.716  0.00  0.00    +0.000 A 
ATOM     13  N   UNL     1       6.664   5.355  17.407  0.00  0.00    +0.000 NA
ATOM     14  C   UNL     1       5.645   6.104  17.892  0.00  0.00    +0.000 A 
ENDBRANCH   5   9
BRANCH   6  15
ATOM     15  C   UNL     1       2.054   4.934  19.989  0.00  0.00    +0.000 A 
ATOM     16  C   UNL     1       1.294   3.952  19.340  0.00  0.00    +0.000 A 
ATOM     17  C   UNL     1       1.004   2.750  19.979  0.00  0.00    +0.000 A 
ATOM     18  C   UNL     1       1.480   2.560  21.262  0.00  0.00    +0.000 A 
ATOM     19  N   UNL     1       2.241   3.460  21.915  0.00  0.00    +0.000 NA
ATOM     20  C   UNL     1       2.520   4.615  21.263  0.00  0.00    +0.000 A 
ENDBRANCH   6  15
ENDBRANCH   1   3
BRANCH   1  24
ATOM     21  N   UNL     1      -0.500  11.347  21.697  0.00  0.00    +0.000 N 
ATOM     22  N   UNL     1       0.351  10.607  22.442  0.00  0.00    +0.000 NA
ATOM     23  C   UNL     1       0.960   9.825  21.555  0.00  0.00    +0.000 A 
ATOM     24  C   UNL     1       0.704  10.175  20.209  0.00  0.00    +0.000 A 
ATOM     25  C   UNL     1      -0.277  11.154  20.330  0.00  0.00    +0.000 A 
BRANCH  21  31
ATOM     26  C   UNL     1      -6.793  14.282  23.902  0.00  0.00    +0.000 C 
ATOM     27  C   UNL     1      -5.410  13.864  23.576  0.00  0.00    +0.000 A 
ATOM     28  N   UNL     1      -5.059  12.794  22.897  0.00  0.00    +0.000 NA
ATOM     29  C   UNL     1      -3.691  12.822  22.856  0.00  0.00    +0.000 A 
ATOM     30  C   UNL     1      -2.805  11.928  22.243  0.00  0.00    +0.000 A 
ATOM     31  C   UNL     1      -1.432  12.190  22.345  0.00  0.00    +0.000 A 
ATOM     32  C   UNL     1      -0.953  13.279  23.092  0.00  0.00    +0.000 A 
ATOM     33  C   UNL     1      -1.833  14.190  23.690  0.00  0.00    +0.000 A 
ATOM     34  C   UNL     1      -3.188  13.926  23.540  0.00  0.00    +0.000 A 
ATOM     35  N   UNL     1      -4.312  14.584  23.970  0.00  0.00    +0.000 N 
ATOM     36  H   UNL     1      -4.326  15.450  24.489  0.00  0.00    +0.000 HD
ENDBRANCH  21  31
BRANCH  25  37
ATOM     37  N   UNL     1      -0.899  11.860  19.347  0.00  0.00    +0.000 N 
ATOM     38  H   UNL     1      -0.688  12.858  19.260  0.00  0.00    +0.000 HD
ATOM     39  H   UNL     1      -1.836  11.627  19.028  0.00  0.00    +0.000 HD
ENDBRANCH  25  37
ENDBRANCH   1  24
TORSDOF 6
ENDMDL
MODEL 4
REMARK VINA RESULT:      -9.4      1.617      3.575
REMARK  Name = 
REMARK  7 active torsions:
REMARK  status: ('A' for Active; 'I' for Inactive)
REMARK    1  A    between atoms: C_1  and  C_2
REMARK    2  A    between atoms: C_6  and  N_7
REMARK    3  A    between atoms: C_10  and  C_11
REMARK    4  A    between atoms: C_11  and  C_13
REMARK    5  A    between atoms: C_15  and  C_16
REMARK    6  A    between atoms: C_22  and  C_23
REMARK    7  A    between atoms: C_30  and  N_31
REMARK                            x       y       z     vdW  Elec       q    Type
REMARK                         _______ _______ _______ _____ _____    ______ ____
ROOT
ATOM      1  C   UNL     1       1.999   9.731  18.216  0.00  0.00    +0.000 C 
ATOM      2  O   UNL     1       2.413  10.588  17.435  0.00  0.00    +0.000 OA
ENDROOT
BRANCH   1   3
ATOM      3  C   UNL     1       2.443   8.349  18.116  0.00  0.00    +0.000 A 
ATOM      4  C   UNL     1       1.905   7.232  18.737  0.00  0.00    +0.000 A 
ATOM      5  C   UNL     1       2.676   6.080  18.376  0.00  0.00    +0.000 A 
ATOM      6  C   UNL     1       3.713   6.534  17.565  0.00  0.00    +0.000 A 
ATOM      7  N   UNL     1       3.427   7.853  17.308  0.00  0.00    +0.000 N 
ATOM      8  H   UNL     1       3.917   8.382  16.607  0.00  0.00    +0.000 HD
BRANCH   5   9
ATOM      9  C   UNL     1       2.446   4.690  18.755  0.00  0.00    +0.000 A 
ATOM     10  C   UNL     1       1.501   3.900  18.097  0.00  0.00    +0.000 A 
ATOM     11  C   UNL     1       1.293   2.582  18.509  0.00  0.00    +0.000 A 
ATOM     12  C   UNL     1       2.039   2.093  19.568  0.00  0.00    +0.000 A 
ATOM     13  N   UNL     1       2.986   2.807  20.205  0.00  0.00    +0.000 NA
ATOM     14  C   UNL     1       3.177   4.076  19.773  0.00  0.00    +0.000 A 
ENDBRANCH   5   9
BRANCH   6  15
ATOM     15  C   UNL     1       4.900   5.913  16.959  0.00  0.00    +0.000 A 
ATOM     16  C   UNL     1       4.828   4.649  16.360  0.00  0.00    +0.000 A 
ATOM     17  C   UNL     1       5.964   4.068  15.804  0.00  0.00    +0.000 A 
ATOM     18  C   UNL     1       7.154   4.767  15.867  0.00  0.00    +0.000 A 
ATOM     19  N   UNL     1       7.267   5.998  16.403  0.00  0.00    +0.000 NA
ATOM     20  C   UNL     1       6.141   6.546  16.923  0.00  0.00    +0.000 A 
ENDBRANCH   6  15
ENDBRANCH   1   3
BRANCH   1  24
ATOM     21  N   UNL     1      -0.521  11.210  20.429  0.00  0.00    +0.000 N 
ATOM     22  N   UNL     1      -0.146  10.197  21.241  0.00  0.00    +0.000 NA
ATOM     23  C   UNL     1       0.670   9.466  20.487  0.00  0.00    +0.000 A 
ATOM     24  C   UNL     1       1.030  10.080  19.266  0.00  0.00    +0.000 A 
ATOM     25  C   UNL     1       0.213  11.206  19.239  0.00  0.00    +0.000 A 
BRANCH  21  31
ATOM     26  C   UNL     1      -4.275  15.930  24.517  0.00  0.00    +0.000 C 
ATOM     27  C   UNL     1      -3.696  14.987  23.534  0.00  0.00    +0.000 A 
ATOM     28  N   UNL     1      -2.513  14.415  23.604  0.00  0.00    +0.000 NA
ATOM     29  C   UNL     1      -2.417  13.640  22.480  0.00  0.00    +0.000 A 
ATOM     30  C   UNL     1      -1.371  12.806  22.067  0.00  0.00    +0.000 A 
ATOM     31  C   UNL     1      -1.526  12.107  20.862  0.00  0.00    +0.000 A 
ATOM     32  C   UNL     1      -2.666  12.283  20.059  0.00  0.00    +0.000 A 
ATOM     33  C   UNL     1      -3.726  13.099  20.475  0.00  0.00    +0.000 A 
ATOM     34  C   UNL     1      -3.561  13.749  21.691  0.00  0.00    +0.000 A 
ATOM     35  N   UNL     1      -4.368  14.600  22.403  0.00  0.00    +0.000 N 
ATOM     36  H   UNL     1      -5.297  14.891  22.136  0.00  0.00    +0.000 HD
ENDBRANCH  21  31
BRANCH  25  37
ATOM     37  N   UNL     1       0.136  12.178  18.290  0.00  0.00    +0.000 N 
ATOM     38  H   UNL     1      -0.427  13.009  18.493  0.00  0.00    +0.000 HD
ATOM     39  H   UNL     1       0.180  11.965  17.296  0.00  0.00    +0.000 HD
ENDBRANCH  25  37
ENDBRANCH   1  24
TORSDOF 6
ENDMDL
MODEL 5
REMARK VINA RESULT:      -9.4      1.708      3.666
REMARK  Name = 
REMARK  7 active torsions:
REMARK  status: ('A' for Active; 'I' for Inactive)
REMARK    1  A    between atoms: C_1  and  C_2
REMARK    2  A    between atoms: C_6  and  N_7
REMARK    3  A    between atoms: C_10  and  C_11
REMARK    4  A    between atoms: C_11  and  C_13
REMARK    5  A    between atoms: C_15  and  C_16
REMARK    6  A    between atoms: C_22  and  C_23
REMARK    7  A    between atoms: C_30  and  N_31
REMARK                            x       y       z     vdW  Elec       q    Type
REMARK                         _______ _______ _______ _____ _____    ______ ____
ROOT
ATOM      1  C   UNL     1       1.924   9.943  18.075  0.00  0.00    +0.000 C 
ATOM      2  O   UNL     1       2.673  10.745  17.517  0.00  0.00    +0.000 OA
ENDROOT
BRANCH   1   3
ATOM      3  C   UNL     1       2.314   8.553  18.253  0.00  0.00    +0.000 A 
ATOM      4  C   UNL     1       1.683   7.579  19.013  0.00  0.00    +0.000 A 
ATOM      5  C   UNL     1       2.428   6.359  18.921  0.00  0.00    +0.000 A 
ATOM      6  C   UNL     1       3.542   6.632  18.130  0.00  0.00    +0.000 A 
ATOM      7  N   UNL     1       3.333   7.893  17.626  0.00  0.00    +0.000 N 
ATOM      8  H   UNL     1       3.897   8.275  16.886  0.00  0.00    +0.000 HD
BRANCH   5   9
ATOM      9  C   UNL     1       2.110   5.065  19.515  0.00  0.00    +0.000 A 
ATOM     10  C   UNL     1       1.578   4.022  18.754  0.00  0.00    +0.000 A 
ATOM     11  C   UNL     1       1.263   2.808  19.367  0.00  0.00    +0.000 A 
ATOM     12  C   UNL     1       1.490   2.673  20.726  0.00  0.00    +0.000 A 
ATOM     13  N   UNL     1       2.035   3.638  21.490  0.00  0.00    +0.000 NA
ATOM     14  C   UNL     1       2.346   4.798  20.864  0.00  0.00    +0.000 A 
ENDBRANCH   5   9
BRANCH   6  15
ATOM     15  C   UNL     1       4.742   5.879  17.740  0.00  0.00    +0.000 A 
ATOM     16  C   UNL     1       5.034   5.631  16.393  0.00  0.00    +0.000 A 
ATOM     17  C   UNL     1       6.167   4.903  16.041  0.00  0.00    +0.000 A 
ATOM     18  C   UNL     1       6.983   4.432  17.052  0.00  0.00    +0.000 A 
ATOM     19  N   UNL     1       6.762   4.671  18.360  0.00  0.00    +0.000 NA
ATOM     20  C   UNL     1       5.660   5.396  18.672  0.00  0.00    +0.000 A 
ENDBRANCH   6  15
ENDBRANCH   1   3
BRANCH   1  24
ATOM     21  N   UNL     1      -0.978  11.306  19.851  0.00  0.00    +0.000 N 
ATOM     22  N   UNL     1      -1.656  10.559  18.952  0.00  0.00    +0.000 NA
ATOM     23  C   UNL     1      -0.714  10.121  18.122  0.00  0.00    +0.000 A 
ATOM     24  C   UNL     1       0.605  10.368  18.567  0.00  0.00    +0.000 A 
ATOM     25  C   UNL     1       0.403  11.171  19.685  0.00  0.00    +0.000 A 
BRANCH  21  31
ATOM     26  C   UNL     1      -5.238  16.409  22.833  0.00  0.00    +0.000 C 
ATOM     27  C   UNL     1      -4.337  15.297  22.453  0.00  0.00    +0.000 A 
ATOM     28  N   UNL     1      -4.017  14.938  21.228  0.00  0.00    +0.000 NA
ATOM     29  C   UNL     1      -3.173  13.870  21.372  0.00  0.00    +0.000 A 
ATOM     30  C   UNL     1      -2.524  13.115  20.388  0.00  0.00    +0.000 A 
ATOM     31  C   UNL     1      -1.699  12.062  20.805  0.00  0.00    +0.000 A 
ATOM     32  C   UNL     1      -1.573  11.731  22.165  0.00  0.00    +0.000 A 
ATOM     33  C   UNL     1      -2.202  12.494  23.157  0.00  0.00    +0.000 A 
ATOM     34  C   UNL     1      -2.983  13.554  22.716  0.00  0.00    +0.000 A 
ATOM     35  N   UNL     1      -3.723  14.498  23.382  0.00  0.00    +0.000 N 
ATOM     36  H   UNL     1      -3.801  14.586  24.384  0.00  0.00    +0.000 HD
ENDBRANCH  21  31
BRANCH  25  37
ATOM     37  N   UNL     1       1.331  11.708  20.524  0.00  0.00    +0.000 N 
ATOM     38  H   UNL     1       1.702  12.636  20.305  0.00  0.00    +0.000 HD
ATOM     39  H   UNL     1       1.994  11.129  21.034  0.00  0.00    +0.000 HD
ENDBRANCH  25  37
ENDBRANCH   1  24
TORSDOF 6
ENDMDL
MODEL 6
REMARK VINA RESULT:      -9.4      1.771      3.405
REMARK  Name = 
REMARK  7 active torsions:
REMARK  status: ('A' for Active; 'I' for Inactive)
REMARK    1  A    between atoms: C_1  and  C_2
REMARK    2  A    between atoms: C_6  and  N_7
REMARK    3  A    between atoms: C_10  and  C_11
REMARK    4  A    between atoms: C_11  and  C_13
REMARK    5  A    between atoms: C_15  and  C_16
REMARK    6  A    between atoms: C_22  and  C_23
REMARK    7  A    between atoms: C_30  and  N_31
REMARK                            x       y       z     vdW  Elec       q    Type
REMARK                         _______ _______ _______ _____ _____    ______ ____
ROOT
ATOM      1  C   UNL     1       1.963   9.638  18.200  0.00  0.00    +0.000 C 
ATOM      2  O   UNL     1       2.351  10.473  17.383  0.00  0.00    +0.000 OA
ENDROOT
BRANCH   1   3
ATOM      3  C   UNL     1       2.394   8.251  18.115  0.00  0.00    +0.000 A 
ATOM      4  C   UNL     1       1.667   7.110  18.420  0.00  0.00    +0.000 A 
ATOM      5  C   UNL     1       2.495   5.959  18.216  0.00  0.00    +0.000 A 
ATOM      6  C   UNL     1       3.746   6.434  17.827  0.00  0.00    +0.000 A 
ATOM      7  N   UNL     1       3.578   7.781  17.620  0.00  0.00    +0.000 N 
ATOM      8  H   UNL     1       4.276   8.346  17.167  0.00  0.00    +0.000 HD
BRANCH   5   9
ATOM      9  C   UNL     1       2.134   4.554  18.366  0.00  0.00    +0.000 A 
ATOM     10  C   UNL     1       1.369   4.106  19.446  0.00  0.00    +0.000 A 
ATOM     11  C   UNL     1       1.068   2.748  19.565  0.00  0.00    +0.000 A 
ATOM     12  C   UNL     1       1.543   1.876  18.600  0.00  0.00    +0.000 A 
ATOM     13  N   UNL     1       2.250   2.269  17.524  0.00  0.00    +0.000 NA
ATOM     14  C   UNL     1       2.512   3.594  17.426  0.00  0.00    +0.000 A 
ENDBRANCH   5   9
BRANCH   6  15
ATOM     15  C   UNL     1       5.054   5.813  17.575  0.00  0.00    +0.000 A 
ATOM     16  C   UNL     1       5.582   5.738  16.280  0.00  0.00    +0.000 A 
ATOM     17  C   UNL     1       6.816   5.133  16.056  0.00  0.00    +0.000 A 
ATOM     18  C   UNL     1       7.494   4.610  17.141  0.00  0.00    +0.000 A 
ATOM     19  N   UNL     1       7.043   4.687  18.409  0.00  0.00    +0.000 NA
ATOM     20  C   UNL     1       5.846   5.294  18.598  0.00  0.00    +0.000 A 
ENDBRANCH   6  15
ENDBRANCH   1   3
BRANCH   1  24
ATOM     21  N   UNL     1      -0.419  11.208  20.501  0.00  0.00    +0.000 N 
ATOM     22  N   UNL     1      -0.081  10.160  21.285  0.00  0.00    +0.000 NA
ATOM     23  C   UNL     1       0.676   9.401  20.498  0.00  0.00    +0.000 A 
ATOM     24  C   UNL     1       1.040  10.018  19.280  0.00  0.00    +0.000 A 
ATOM     25  C   UNL     1       0.285  11.187  19.294  0.00  0.00    +0.000 A 
BRANCH  21  31
ATOM     26  C   UNL     1      -3.838  16.002  24.792  0.00  0.00    +0.000 C 
ATOM     27  C   UNL     1      -3.328  15.060  23.769  0.00  0.00    +0.000 A 
ATOM     28  N   UNL     1      -2.183  14.414  23.808  0.00  0.00    +0.000 NA
ATOM     29  C   UNL     1      -2.144  13.675  22.656  0.00  0.00    +0.000 A 
ATOM     30  C   UNL     1      -1.155  12.793  22.203  0.00  0.00    +0.000 A 
ATOM     31  C   UNL     1      -1.362  12.150  20.976  0.00  0.00    +0.000 A 
ATOM     32  C   UNL     1      -2.494  12.425  20.190  0.00  0.00    +0.000 A 
ATOM     33  C   UNL     1      -3.498  13.291  20.646  0.00  0.00    +0.000 A 
ATOM     34  C   UNL     1      -3.283  13.885  21.882  0.00  0.00    +0.000 A 
ATOM     35  N   UNL     1      -4.031  14.758  22.632  0.00  0.00    +0.000 N 
ATOM     36  H   UNL     1      -4.941  15.116  22.384  0.00  0.00    +0.000 HD
ENDBRANCH  21  31
BRANCH  25  37
ATOM     37  N   UNL     1       0.241  12.181  18.365  0.00  0.00    +0.000 N 
ATOM     38  H   UNL     1      -0.404  12.962  18.523  0.00  0.00    +0.000 HD
ATOM     39  H   UNL     1       0.411  12.004  17.378  0.00  0.00    +0.000 HD
ENDBRANCH  25  37
ENDBRANCH   1  24
TORSDOF 6
ENDMDL
MODEL 7
REMARK VINA RESULT:      -9.4      1.567      2.096
REMARK  Name = 
REMARK  7 active torsions:
REMARK  status: ('A' for Active; 'I' for Inactive)
REMARK    1  A    between atoms: C_1  and  C_2
REMARK    2  A    between atoms: C_6  and  N_7
REMARK    3  A    between atoms: C_10  and  C_11
REMARK    4  A    between atoms: C_11  and  C_13
REMARK    5  A    between atoms: C_15  and  C_16
REMARK    6  A    between atoms: C_22  and  C_23
REMARK    7  A    between atoms: C_30  and  N_31
REMARK                            x       y       z     vdW  Elec       q    Type
REMARK                         _______ _______ _______ _____ _____    ______ ____
ROOT
ATOM      1  C   UNL     1       1.586   9.678  18.414  0.00  0.00    +0.000 C 
ATOM      2  O   UNL     1       1.521  10.419  17.433  0.00  0.00    +0.000 OA
ENDROOT
BRANCH   1   3
ATOM      3  C   UNL     1       2.229   8.375  18.328  0.00  0.00    +0.000 A 
ATOM      4  C   UNL     1       3.472   8.069  17.794  0.00  0.00    +0.000 A 
ATOM      5  C   UNL     1       3.689   6.657  17.896  0.00  0.00    +0.000 A 
ATOM      6  C   UNL     1       2.535   6.117  18.459  0.00  0.00    +0.000 A 
ATOM      7  N   UNL     1       1.778   7.195  18.849  0.00  0.00    +0.000 N 
ATOM      8  H   UNL     1       0.971   7.099  19.441  0.00  0.00    +0.000 HD
BRANCH   5   9
ATOM      9  C   UNL     1       4.873   5.900  17.507  0.00  0.00    +0.000 A 
ATOM     10  C   UNL     1       5.215   5.714  16.165  0.00  0.00    +0.000 A 
ATOM     11  C   UNL     1       6.342   4.959  15.836  0.00  0.00    +0.000 A 
ATOM     12  C   UNL     1       7.096   4.411  16.860  0.00  0.00    +0.000 A 
ATOM     13  N   UNL     1       6.825   4.596  18.166  0.00  0.00    +0.000 NA
ATOM     14  C   UNL     1       5.735   5.347  18.455  0.00  0.00    +0.000 A 
ENDBRANCH   5   9
BRANCH   6  15
ATOM     15  C   UNL     1       2.057   4.753  18.729  0.00  0.00    +0.000 A 
ATOM     16  C   UNL     1       1.574   4.393  19.994  0.00  0.00    +0.000 A 
ATOM     17  C   UNL     1       1.139   3.093  20.237  0.00  0.00    +0.000 A 
ATOM     18  C   UNL     1       1.203   2.178  19.204  0.00  0.00    +0.000 A 
ATOM     19  N   UNL     1       1.630   2.484  17.962  0.00  0.00    +0.000 NA
ATOM     20  C   UNL     1       2.032   3.761  17.751  0.00  0.00    +0.000 A 
ENDBRANCH   6  15
ENDBRANCH   1   3
BRANCH   1  24
ATOM     21  N   UNL     1      -0.175  11.237  21.225  0.00  0.00    +0.000 N 
ATOM     22  N   UNL     1       0.569  10.367  21.944  0.00  0.00    +0.000 NA
ATOM     23  C   UNL     1       1.155   9.608  21.022  0.00  0.00    +0.000 A 
ATOM     24  C   UNL     1       1.002  10.086  19.701  0.00  0.00    +0.000 A 
ATOM     25  C   UNL     1       0.103  11.136  19.859  0.00  0.00    +0.000 A 
BRANCH  21  31
ATOM     26  C   UNL     1      -6.309  14.177  23.835  0.00  0.00    +0.000 C 
ATOM     27  C   UNL     1      -4.953  13.770  23.401  0.00  0.00    +0.000 A 
ATOM     28  N   UNL     1      -4.636  12.657  22.776  0.00  0.00    +0.000 NA
ATOM     29  C   UNL     1      -3.281  12.718  22.590  0.00  0.00    +0.000 A 
ATOM     30  C   UNL     1      -2.432  11.800  21.961  0.00  0.00    +0.000 A 
ATOM     31  C   UNL     1      -1.065  12.106  21.899  0.00  0.00    +0.000 A 
ATOM     32  C   UNL     1      -0.550  13.265  22.503  0.00  0.00    +0.000 A 
ATOM     33  C   UNL     1      -1.396  14.199  23.116  0.00  0.00    +0.000 A 
ATOM     34  C   UNL     1      -2.749  13.888  23.130  0.00  0.00    +0.000 A 
ATOM     35  N   UNL     1      -3.846  14.549  23.621  0.00  0.00    +0.000 N 
ATOM     36  H   UNL     1      -3.837  15.453  24.069  0.00  0.00    +0.000 HD
ENDBRANCH  21  31
BRANCH  25  37
ATOM     37  N   UNL     1      -0.404  11.970  18.911  0.00  0.00    +0.000 N 
ATOM     38  H   UNL     1      -0.782  11.557  18.054  0.00  0.00    +0.000 HD
ATOM     39  H   UNL     1      -0.036  12.907  18.767  0.00  0.00    +0.000 HD
ENDBRANCH  25  37
ENDBRANCH   1  24
TORSDOF 6
ENDMDL
MODEL 8
REMARK VINA RESULT:      -9.4      1.244      1.487
REMARK  Name = 
REMARK  7 active torsions:
REMARK  status: ('A' for Active; 'I' for Inactive)
REMARK    1  A    between atoms: C_1  and  C_2
REMARK    2  A    between atoms: C_6  and  N_7
REMARK    3  A    between atoms: C_10  and  C_11
REMARK    4  A    between atoms: C_11  and  C_13
REMARK    5  A    between atoms: C_15  and  C_16
REMARK    6  A    between atoms: C_22  and  C_23
REMARK    7  A    between atoms: C_30  and  N_31
REMARK                            x       y       z     vdW  Elec       q    Type
REMARK                         _______ _______ _______ _____ _____    ______ ____
ROOT
ATOM      1  C   UNL     1       1.502   9.595  18.604  0.00  0.00    +0.000 C 
ATOM      2  O   UNL     1       1.373  10.347  17.638  0.00  0.00    +0.000 OA
ENDROOT
BRANCH   1   3
ATOM      3  C   UNL     1       2.169   8.308  18.468  0.00  0.00    +0.000 A 
ATOM      4  C   UNL     1       3.409   8.043  17.907  0.00  0.00    +0.000 A 
ATOM      5  C   UNL     1       3.655   6.633  17.961  0.00  0.00    +0.000 A 
ATOM      6  C   UNL     1       2.520   6.053  18.523  0.00  0.00    +0.000 A 
ATOM      7  N   UNL     1       1.749   7.103  18.958  0.00  0.00    +0.000 N 
ATOM      8  H   UNL     1       0.952   6.973  19.558  0.00  0.00    +0.000 HD
BRANCH   5   9
ATOM      9  C   UNL     1       4.848   5.912  17.532  0.00  0.00    +0.000 A 
ATOM     10  C   UNL     1       5.218   5.845  16.187  0.00  0.00    +0.000 A 
ATOM     11  C   UNL     1       6.353   5.121  15.816  0.00  0.00    +0.000 A 
ATOM     12  C   UNL     1       7.085   4.484  16.803  0.00  0.00    +0.000 A 
ATOM     13  N   UNL     1       6.786   4.553  18.114  0.00  0.00    +0.000 NA
ATOM     14  C   UNL     1       5.690   5.276  18.445  0.00  0.00    +0.000 A 
ENDBRANCH   5   9
BRANCH   6  15
ATOM     15  C   UNL     1       2.072   4.673  18.756  0.00  0.00    +0.000 A 
ATOM     16  C   UNL     1       1.642   4.256  20.023  0.00  0.00    +0.000 A 
ATOM     17  C   UNL     1       1.236   2.941  20.231  0.00  0.00    +0.000 A 
ATOM     18  C   UNL     1       1.275   2.067  19.161  0.00  0.00    +0.000 A 
ATOM     19  N   UNL     1       1.650   2.428  17.918  0.00  0.00    +0.000 NA
ATOM     20  C   UNL     1       2.026   3.719  17.742  0.00  0.00    +0.000 A 
ENDBRANCH   6  15
ENDBRANCH   1   3
BRANCH   1  24
ATOM     21  N   UNL     1      -0.061  11.135  21.539  0.00  0.00    +0.000 N 
ATOM     22  N   UNL     1       0.584  10.139  22.185  0.00  0.00    +0.000 NA
ATOM     23  C   UNL     1       1.077   9.387  21.206  0.00  0.00    +0.000 A 
ATOM     24  C   UNL     1       0.973   9.972  19.923  0.00  0.00    +0.000 A 
ATOM     25  C   UNL     1       0.198  11.101  20.166  0.00  0.00    +0.000 A 
BRANCH  21  31
ATOM     26  C   UNL     1      -2.082  17.014  25.340  0.00  0.00    +0.000 C 
ATOM     27  C   UNL     1      -1.892  15.737  24.614  0.00  0.00    +0.000 A 
ATOM     28  N   UNL     1      -0.828  15.381  23.928  0.00  0.00    +0.000 NA
ATOM     29  C   UNL     1      -1.111  14.136  23.437  0.00  0.00    +0.000 A 
ATOM     30  C   UNL     1      -0.316  13.290  22.654  0.00  0.00    +0.000 A 
ATOM     31  C   UNL     1      -0.846  12.047  22.283  0.00  0.00    +0.000 A 
ATOM     32  C   UNL     1      -2.157  11.682  22.631  0.00  0.00    +0.000 A 
ATOM     33  C   UNL     1      -2.952  12.513  23.432  0.00  0.00    +0.000 A 
ATOM     34  C   UNL     1      -2.387  13.721  23.816  0.00  0.00    +0.000 A 
ATOM     35  N   UNL     1      -2.851  14.758  24.585  0.00  0.00    +0.000 N 
ATOM     36  H   UNL     1      -3.747  14.791  25.048  0.00  0.00    +0.000 HD
ENDBRANCH  21  31
BRANCH  25  37
ATOM     37  N   UNL     1      -0.217  12.053  19.286  0.00  0.00    +0.000 N 
ATOM     38  H   UNL     1      -0.231  13.028  19.598  0.00  0.00    +0.000 HD
ATOM     39  H   UNL     1      -0.914  11.859  18.572  0.00  0.00    +0.000 HD
ENDBRANCH  25  37
ENDBRANCH   1  24
TORSDOF 6
ENDMDL
MODEL 9
REMARK VINA RESULT:      -9.4      1.562      1.717
REMARK  Name = 
REMARK  7 active torsions:
REMARK  status: ('A' for Active; 'I' for Inactive)
REMARK    1  A    between atoms: C_1  and  C_2
REMARK    2  A    between atoms: C_6  and  N_7
REMARK    3  A    between atoms: C_10  and  C_11
REMARK    4  A    between atoms: C_11  and  C_13
REMARK    5  A    between atoms: C_15  and  C_16
REMARK    6  A    between atoms: C_22  and  C_23
REMARK    7  A    between atoms: C_30  and  N_31
REMARK                            x       y       z     vdW  Elec       q    Type
REMARK                         _______ _______ _______ _____ _____    ______ ____
ROOT
ATOM      1  C   UNL     1       1.339   9.644  18.633  0.00  0.00    +0.000 C 
ATOM      2  O   UNL     1       1.269  10.272  17.577  0.00  0.00    +0.000 OA
ENDROOT
BRANCH   1   3
ATOM      3  C   UNL     1       2.026   8.364  18.700  0.00  0.00    +0.000 A 
ATOM      4  C   UNL     1       3.155   7.962  18.001  0.00  0.00    +0.000 A 
ATOM      5  C   UNL     1       3.470   6.611  18.358  0.00  0.00    +0.000 A 
ATOM      6  C   UNL     1       2.482   6.195  19.248  0.00  0.00    +0.000 A 
ATOM      7  N   UNL     1       1.756   7.323  19.544  0.00  0.00    +0.000 N 
ATOM      8  H   UNL     1       1.088   7.350  20.295  0.00  0.00    +0.000 HD
BRANCH   5   9
ATOM      9  C   UNL     1       4.596   5.801  17.908  0.00  0.00    +0.000 A 
ATOM     10  C   UNL     1       4.744   5.435  16.568  0.00  0.00    +0.000 A 
ATOM     11  C   UNL     1       5.823   4.637  16.183  0.00  0.00    +0.000 A 
ATOM     12  C   UNL     1       6.724   4.227  17.152  0.00  0.00    +0.000 A 
ATOM     13  N   UNL     1       6.640   4.587  18.446  0.00  0.00    +0.000 NA
ATOM     14  C   UNL     1       5.593   5.376  18.786  0.00  0.00    +0.000 A 
ENDBRANCH   5   9
BRANCH   6  15
ATOM     15  C   UNL     1       2.146   4.919  19.897  0.00  0.00    +0.000 A 
ATOM     16  C   UNL     1       1.526   3.886  19.182  0.00  0.00    +0.000 A 
ATOM     17  C   UNL     1       1.200   2.690  19.815  0.00  0.00    +0.000 A 
ATOM     18  C   UNL     1       1.500   2.557  21.157  0.00  0.00    +0.000 A 
ATOM     19  N   UNL     1       2.124   3.508  21.879  0.00  0.00    +0.000 NA
ATOM     20  C   UNL     1       2.443   4.657  21.233  0.00  0.00    +0.000 A 
ENDBRANCH   6  15
ENDBRANCH   1   3
BRANCH   1  24
ATOM     21  N   UNL     1      -0.713  11.232  21.223  0.00  0.00    +0.000 N 
ATOM     22  N   UNL     1       0.328  10.885  22.011  0.00  0.00    +0.000 NA
ATOM     23  C   UNL     1       1.097  10.143  21.219  0.00  0.00    +0.000 A 
ATOM     24  C   UNL     1       0.716  10.168  19.858  0.00  0.00    +0.000 A 
ATOM     25  C   UNL     1      -0.489  10.862  19.893  0.00  0.00    +0.000 A 
BRANCH  21  31
ATOM     26  C   UNL     1      -6.347  15.771  22.086  0.00  0.00    +0.000 C 
ATOM     27  C   UNL     1      -5.244  14.784  22.138  0.00  0.00    +0.000 A 
ATOM     28  N   UNL     1      -4.455  14.444  21.142  0.00  0.00    +0.000 NA
ATOM     29  C   UNL     1      -3.603  13.505  21.658  0.00  0.00    +0.000 A 
ATOM     30  C   UNL     1      -2.552  12.824  21.032  0.00  0.00    +0.000 A 
ATOM     31  C   UNL     1      -1.819  11.904  21.794  0.00  0.00    +0.000 A 
ATOM     32  C   UNL     1      -2.163  11.625  23.128  0.00  0.00    +0.000 A 
ATOM     33  C   UNL     1      -3.200  12.318  23.767  0.00  0.00    +0.000 A 
ATOM     34  C   UNL     1      -3.884  13.250  22.998  0.00  0.00    +0.000 A 
ATOM     35  N   UNL     1      -4.924  14.099  23.281  0.00  0.00    +0.000 N 
ATOM     36  H   UNL     1      -5.375  14.199  24.178  0.00  0.00    +0.000 HD
ENDBRANCH  21  31
BRANCH  25  37
ATOM     37  N   UNL     1      -1.309  11.193  18.859  0.00  0.00    +0.000 N 
ATOM     38  H   UNL     1      -0.902  11.263  17.921  0.00  0.00    +0.000 HD
ATOM     39  H   UNL     1      -2.115  11.801  18.984  0.00  0.00    +0.000 HD
ENDBRANCH  25  37
ENDBRANCH   1  24
TORSDOF 6
ENDMDL
