MODEL 1
REMARK VINA RESULT:      -8.1      0.000      0.000
REMARK  Name = 
REMARK  2 active torsions:
REMARK  status: ('A' for Active; 'I' for Inactive)
REMARK    1  A    between atoms: C_1  and  C_2
REMARK    2  A    between atoms: C_16  and  N_17
REMARK                            x       y       z     vdW  Elec       q    Type
REMARK                         _______ _______ _______ _____ _____    ______ ____
ROOT
ATOM      1  C   UNL     1       7.902   9.217  17.672  0.00  0.00    +0.000 C 
ATOM      2  C   UNL     1       7.503   7.772  17.719  0.00  0.00    +0.000 C 
ATOM      3  C   UNL     1       8.316   6.884  18.319  0.00  0.00    +0.000 C 
ATOM      4  C   UNL     1       7.825   5.480  18.497  0.00  0.00    +0.000 C 
ATOM      5  C   UNL     1       6.726   5.544  19.624  0.00  0.00    +0.000 C 
ATOM      6  C   UNL     1       5.335   5.165  19.189  0.00  0.00    +0.000 A 
ATOM      7  N   UNL     1       4.454   4.790  20.145  0.00  0.00    +0.000 NA
ATOM      8  C   UNL     1       3.399   4.053  19.775  0.00  0.00    +0.000 A 
ATOM      9  C   UNL     1       2.421   3.788  20.721  0.00  0.00    +0.000 A 
ATOM     10  C   UNL     1       1.388   2.904  20.451  0.00  0.00    +0.000 A 
ATOM     11  F   UNL     1       0.439   2.683  21.375  0.00  0.00    +0.000 F 
ATOM     12  C   UNL     1       1.334   2.229  19.248  0.00  0.00    +0.000 A 
ATOM     13  C   UNL     1       2.285   2.527  18.278  0.00  0.00    +0.000 A 
ATOM     14  F   UNL     1       2.236   1.835  17.126  0.00  0.00    +0.000 F 
ATOM     15  C   UNL     1       3.291   3.499  18.488  0.00  0.00    +0.000 A 
ATOM     16  C   UNL     1       4.222   3.951  17.511  0.00  0.00    +0.000 A 
ATOM     17  C   UNL     1       5.095   4.994  17.836  0.00  0.00    +0.000 A 
ATOM     18  C   UNL     1       6.009   5.742  16.874  0.00  0.00    +0.000 C 
ATOM     19  C   UNL     1       6.157   7.312  17.130  0.00  0.00    +0.000 C 
ATOM     20  C   UNL     1       7.341   5.048  17.095  0.00  0.00    +0.000 C 
ENDROOT
BRANCH  16  21
ATOM     21  N   UNL     1       4.192   3.437  16.193  0.00  0.00    +0.000 N 
ATOM     22  H   UNL     1       4.986   3.759  15.637  0.00  0.00    +0.000 HD
ATOM     23  H   UNL     1       3.321   3.657  15.715  0.00  0.00    +0.000 HD
ENDBRANCH  16  21
TORSDOF 1
ENDMDL
MODEL 2
REMARK VINA RESULT:      -7.9      3.730      4.917
REMARK  Name = 
REMARK  2 active torsions:
REMARK  status: ('A' for Active; 'I' for Inactive)
REMARK    1  A    between atoms: C_1  and  C_2
REMARK    2  A    between atoms: C_16  and  N_17
REMARK                            x       y       z     vdW  Elec       q    Type
REMARK                         _______ _______ _______ _____ _____    ______ ____
ROOT
ATOM      1  C   UNL     1       5.957   3.604  14.200  0.00  0.00    +0.000 C 
ATOM      2  C   UNL     1       5.778   4.328  15.501  0.00  0.00    +0.000 C 
ATOM      3  C   UNL     1       6.763   5.124  15.952  0.00  0.00    +0.000 C 
ATOM      4  C   UNL     1       6.501   5.960  17.166  0.00  0.00    +0.000 C 
ATOM      5  C   UNL     1       5.514   7.098  16.705  0.00  0.00    +0.000 C 
ATOM      6  C   UNL     1       4.159   7.080  17.360  0.00  0.00    +0.000 A 
ATOM      7  N   UNL     1       3.434   8.223  17.346  0.00  0.00    +0.000 NA
ATOM      8  C   UNL     1       2.468   8.368  18.262  0.00  0.00    +0.000 A 
ATOM      9  C   UNL     1       1.631   9.468  18.163  0.00  0.00    +0.000 A 
ATOM     10  C   UNL     1       0.716   9.761  19.163  0.00  0.00    +0.000 A 
ATOM     11  F   UNL     1      -0.100  10.819  19.032  0.00  0.00    +0.000 F 
ATOM     12  C   UNL     1       0.650   8.990  20.306  0.00  0.00    +0.000 A 
ATOM     13  C   UNL     1       1.452   7.857  20.389  0.00  0.00    +0.000 A 
ATOM     14  F   UNL     1       1.398   7.137  21.522  0.00  0.00    +0.000 F 
ATOM     15  C   UNL     1       2.322   7.476  19.339  0.00  0.00    +0.000 A 
ATOM     16  C   UNL     1       3.082   6.275  19.289  0.00  0.00    +0.000 A 
ATOM     17  C   UNL     1       3.821   5.985  18.138  0.00  0.00    +0.000 A 
ATOM     18  C   UNL     1       4.522   4.672  17.819  0.00  0.00    +0.000 C 
ATOM     19  C   UNL     1       4.465   4.200  16.293  0.00  0.00    +0.000 C 
ATOM     20  C   UNL     1       5.956   4.970  18.220  0.00  0.00    +0.000 C 
ENDROOT
BRANCH  16  21
ATOM     21  N   UNL     1       3.005   5.327  20.338  0.00  0.00    +0.000 N 
ATOM     22  H   UNL     1       3.230   5.738  21.244  0.00  0.00    +0.000 HD
ATOM     23  H   UNL     1       3.596   4.517  20.167  0.00  0.00    +0.000 HD
ENDBRANCH  16  21
TORSDOF 1
ENDMDL
MODEL 3
REMARK VINA RESULT:      -7.8      3.150      4.306
REMARK  Name = 
REMARK  2 active torsions:
REMARK  status: ('A' for Active; 'I' for Inactive)
REMARK    1  A    between atoms: C_1  and  C_2
REMARK    2  A    between atoms: C_16  and  N_17
REMARK                            x       y       z     vdW  Elec       q    Type
REMARK                         _______ _______ _______ _____ _____    ______ ____
ROOT
ATOM      1  C   UNL     1       6.146   3.776  13.121  0.00  0.00    +0.000 C 
ATOM      2  C   UNL     1       6.063   4.199  14.557  0.00  0.00    +0.000 C 
ATOM      3  C   UNL     1       7.072   4.908  15.094  0.00  0.00    +0.000 C 
ATOM      4  C   UNL     1       6.898   5.457  16.476  0.00  0.00    +0.000 C 
ATOM      5  C   UNL     1       5.865   6.640  16.346  0.00  0.00    +0.000 C 
ATOM      6  C   UNL     1       4.566   6.444  17.081  0.00  0.00    +0.000 A 
ATOM      7  N   UNL     1       3.830   7.544  17.368  0.00  0.00    +0.000 NA
ATOM      8  C   UNL     1       2.938   7.463  18.363  0.00  0.00    +0.000 A 
ATOM      9  C   UNL     1       2.084   8.536  18.566  0.00  0.00    +0.000 A 
ATOM     10  C   UNL     1       1.249   8.583  19.672  0.00  0.00    +0.000 A 
ATOM     11  F   UNL     1       0.413   9.622  19.833  0.00  0.00    +0.000 F 
ATOM     12  C   UNL     1       1.281   7.583  20.623  0.00  0.00    +0.000 A 
ATOM     13  C   UNL     1       2.100   6.482  20.400  0.00  0.00    +0.000 A 
ATOM     14  F   UNL     1       2.143   5.535  21.353  0.00  0.00    +0.000 F 
ATOM     15  C   UNL     1       2.888   6.358  19.231  0.00  0.00    +0.000 A 
ATOM     16  C   UNL     1       3.654   5.216  18.867  0.00  0.00    +0.000 A 
ATOM     17  C   UNL     1       4.303   5.200  17.628  0.00  0.00    +0.000 A 
ATOM     18  C   UNL     1       4.991   4.005  16.982  0.00  0.00    +0.000 C 
ATOM     19  C   UNL     1       4.818   3.869  15.400  0.00  0.00    +0.000 C 
ATOM     20  C   UNL     1       6.448   4.250  17.329  0.00  0.00    +0.000 C 
ENDROOT
BRANCH  16  21
ATOM     21  N   UNL     1       3.671   4.065  19.690  0.00  0.00    +0.000 N 
ATOM     22  H   UNL     1       4.381   3.393  19.396  0.00  0.00    +0.000 HD
ATOM     23  H   UNL     1       2.761   3.611  19.733  0.00  0.00    +0.000 HD
ENDBRANCH  16  21
TORSDOF 1
ENDMDL
MODEL 4
REMARK VINA RESULT:      -7.4      4.639      6.220
REMARK  Name = 
REMARK  2 active torsions:
REMARK  status: ('A' for Active; 'I' for Inactive)
REMARK    1  A    between atoms: C_1  and  C_2
REMARK    2  A    between atoms: C_16  and  N_17
REMARK                            x       y       z     vdW  Elec       q    Type
REMARK                         _______ _______ _______ _____ _____    ______ ____
ROOT
ATOM      1  C   UNL     1       4.748   2.062  20.202  0.00  0.00    +0.000 C 
ATOM      2  C   UNL     1       3.799   3.090  19.664  0.00  0.00    +0.000 C 
ATOM      3  C   UNL     1       2.543   2.726  19.349  0.00  0.00    +0.000 C 
ATOM      4  C   UNL     1       1.569   3.798  18.968  0.00  0.00    +0.000 C 
ATOM      5  C   UNL     1       1.229   4.569  20.299  0.00  0.00    +0.000 C 
ATOM      6  C   UNL     1       1.643   6.016  20.327  0.00  0.00    +0.000 A 
ATOM      7  N   UNL     1       1.031   6.832  21.219  0.00  0.00    +0.000 NA
ATOM      8  C   UNL     1       1.047   8.149  20.981  0.00  0.00    +0.000 A 
ATOM      9  C   UNL     1       0.550   8.997  21.959  0.00  0.00    +0.000 A 
ATOM     10  C   UNL     1       0.391  10.352  21.715  0.00  0.00    +0.000 A 
ATOM     11  F   UNL     1      -0.069  11.156  22.687  0.00  0.00    +0.000 F 
ATOM     12  C   UNL     1       0.680  10.883  20.474  0.00  0.00    +0.000 A 
ATOM     13  C   UNL     1       1.224  10.047  19.505  0.00  0.00    +0.000 A 
ATOM     14  F   UNL     1       1.468  10.575  18.293  0.00  0.00    +0.000 F 
ATOM     15  C   UNL     1       1.492   8.681  19.759  0.00  0.00    +0.000 A 
ATOM     16  C   UNL     1       2.157   7.790  18.872  0.00  0.00    +0.000 A 
ATOM     17  C   UNL     1       2.443   6.490  19.301  0.00  0.00    +0.000 A 
ATOM     18  C   UNL     1       3.316   5.470  18.582  0.00  0.00    +0.000 C 
ATOM     19  C   UNL     1       4.238   4.558  19.515  0.00  0.00    +0.000 C 
ATOM     20  C   UNL     1       2.285   4.614  17.869  0.00  0.00    +0.000 C 
ENDROOT
BRANCH  16  21
ATOM     21  N   UNL     1       2.628   8.239  17.614  0.00  0.00    +0.000 N 
ATOM     22  H   UNL     1       3.535   8.701  17.686  0.00  0.00    +0.000 HD
ATOM     23  H   UNL     1       1.961   8.853  17.153  0.00  0.00    +0.000 HD
ENDBRANCH  16  21
TORSDOF 1
ENDMDL
MODEL 5
REMARK VINA RESULT:      -7.1      2.726      6.175
REMARK  Name = 
REMARK  2 active torsions:
REMARK  status: ('A' for Active; 'I' for Inactive)
REMARK    1  A    between atoms: C_1  and  C_2
REMARK    2  A    between atoms: C_16  and  N_17
REMARK                            x       y       z     vdW  Elec       q    Type
REMARK                         _______ _______ _______ _____ _____    ______ ____
ROOT
ATOM      1  C   UNL     1       1.198   2.306  22.123  0.00  0.00    +0.000 C 
ATOM      2  C   UNL     1       1.614   2.765  20.758  0.00  0.00    +0.000 C 
ATOM      3  C   UNL     1       0.752   3.481  20.014  0.00  0.00    +0.000 C 
ATOM      4  C   UNL     1       1.243   4.066  18.726  0.00  0.00    +0.000 C 
ATOM      5  C   UNL     1       2.200   5.252  19.124  0.00  0.00    +0.000 C 
ATOM      6  C   UNL     1       3.639   5.083  18.713  0.00  0.00    +0.000 A 
ATOM      7  N   UNL     1       4.409   6.194  18.635  0.00  0.00    +0.000 NA
ATOM      8  C   UNL     1       5.512   6.143  17.878  0.00  0.00    +0.000 A 
ATOM      9  C   UNL     1       6.377   7.226  17.908  0.00  0.00    +0.000 A 
ATOM     10  C   UNL     1       7.450   7.307  17.034  0.00  0.00    +0.000 A 
ATOM     11  F   UNL     1       8.287   8.354  17.099  0.00  0.00    +0.000 F 
ATOM     12  C   UNL     1       7.656   6.331  16.080  0.00  0.00    +0.000 A 
ATOM     13  C   UNL     1       6.821   5.219  16.077  0.00  0.00    +0.000 A 
ATOM     14  F   UNL     1       7.017   4.296  15.119  0.00  0.00    +0.000 F 
ATOM     15  C   UNL     1       5.780   5.061  17.022  0.00  0.00    +0.000 A 
ATOM     16  C   UNL     1       4.963   3.906  17.168  0.00  0.00    +0.000 A 
ATOM     17  C   UNL     1       4.039   3.854  18.216  0.00  0.00    +0.000 A 
ATOM     18  C   UNL     1       3.232   2.639  18.653  0.00  0.00    +0.000 C 
ATOM     19  C   UNL     1       3.027   2.464  20.228  0.00  0.00    +0.000 C 
ATOM     20  C   UNL     1       1.896   2.883  17.976  0.00  0.00    +0.000 C 
ENDROOT
BRANCH  16  21
ATOM     21  N   UNL     1       5.156   2.775  16.339  0.00  0.00    +0.000 N 
ATOM     22  H   UNL     1       5.583   1.997  16.843  0.00  0.00    +0.000 HD
ATOM     23  H   UNL     1       5.706   2.996  15.511  0.00  0.00    +0.000 HD
ENDBRANCH  16  21
TORSDOF 1
ENDMDL
MODEL 6
REMARK VINA RESULT:      -7.0      5.084      6.651
REMARK  Name = 
REMARK  2 active torsions:
REMARK  status: ('A' for Active; 'I' for Inactive)
REMARK    1  A    between atoms: C_1  and  C_2
REMARK    2  A    between atoms: C_16  and  N_17
REMARK                            x       y       z     vdW  Elec       q    Type
REMARK                         _______ _______ _______ _____ _____    ______ ____
ROOT
ATOM      1  C   UNL     1       2.940   2.794  16.687  0.00  0.00    +0.000 C 
ATOM      2  C   UNL     1       3.172   4.009  17.535  0.00  0.00    +0.000 C 
ATOM      3  C   UNL     1       4.371   4.618  17.498  0.00  0.00    +0.000 C 
ATOM      4  C   UNL     1       4.530   5.917  18.226  0.00  0.00    +0.000 C 
ATOM      5  C   UNL     1       3.733   6.985  17.385  0.00  0.00    +0.000 C 
ATOM      6  C   UNL     1       2.557   7.610  18.087  0.00  0.00    +0.000 A 
ATOM      7  N   UNL     1       2.100   8.796  17.621  0.00  0.00    +0.000 NA
ATOM      8  C   UNL     1       1.381   9.564  18.450  0.00  0.00    +0.000 A 
ATOM      9  C   UNL     1       0.791  10.708  17.936  0.00  0.00    +0.000 A 
ATOM     10  C   UNL     1       0.170  11.626  18.769  0.00  0.00    +0.000 A 
ATOM     11  F   UNL     1      -0.416  12.714  18.244  0.00  0.00    +0.000 F 
ATOM     12  C   UNL     1       0.165  11.445  20.137  0.00  0.00    +0.000 A 
ATOM     13  C   UNL     1       0.713  10.277  20.654  0.00  0.00    +0.000 A 
ATOM     14  F   UNL     1       0.729  10.134  21.990  0.00  0.00    +0.000 F 
ATOM     15  C   UNL     1       1.263   9.274  19.820  0.00  0.00    +0.000 A 
ATOM     16  C   UNL     1       1.730   8.002  20.253  0.00  0.00    +0.000 A 
ATOM     17  C   UNL     1       2.155   7.073  19.298  0.00  0.00    +0.000 A 
ATOM     18  C   UNL     1       2.490   5.608  19.546  0.00  0.00    +0.000 C 
ATOM     19  C   UNL     1       2.040   4.585  18.405  0.00  0.00    +0.000 C 
ATOM     20  C   UNL     1       4.003   5.641  19.652  0.00  0.00    +0.000 C 
ENDROOT
BRANCH  16  21
ATOM     21  N   UNL     1       1.660   7.633  21.617  0.00  0.00    +0.000 N 
ATOM     22  H   UNL     1       2.394   8.073  22.173  0.00  0.00    +0.000 HD
ATOM     23  H   UNL     1       1.687   6.623  21.743  0.00  0.00    +0.000 HD
ENDBRANCH  16  21
TORSDOF 1
ENDMDL
MODEL 7
REMARK VINA RESULT:      -6.9      5.591      6.955
REMARK  Name = 
REMARK  2 active torsions:
REMARK  status: ('A' for Active; 'I' for Inactive)
REMARK    1  A    between atoms: C_1  and  C_2
REMARK    2  A    between atoms: C_16  and  N_17
REMARK                            x       y       z     vdW  Elec       q    Type
REMARK                         _______ _______ _______ _____ _____    ______ ____
ROOT
ATOM      1  C   UNL     1       0.174  13.926  19.880  0.00  0.00    +0.000 C 
ATOM      2  C   UNL     1       0.080  12.433  19.787  0.00  0.00    +0.000 C 
ATOM      3  C   UNL     1      -0.899  11.880  19.049  0.00  0.00    +0.000 C 
ATOM      4  C   UNL     1      -0.878  10.398  18.838  0.00  0.00    +0.000 C 
ATOM      5  C   UNL     1       0.311  10.117  17.842  0.00  0.00    +0.000 C 
ATOM      6  C   UNL     1       1.436   9.288  18.400  0.00  0.00    +0.000 A 
ATOM      7  N   UNL     1       2.256   8.662  17.523  0.00  0.00    +0.000 NA
ATOM      8  C   UNL     1       2.957   7.608  17.958  0.00  0.00    +0.000 A 
ATOM      9  C   UNL     1       3.902   7.054  17.109  0.00  0.00    +0.000 A 
ATOM     10  C   UNL     1       4.547   5.871  17.433  0.00  0.00    +0.000 A 
ATOM     11  F   UNL     1       5.477   5.368  16.605  0.00  0.00    +0.000 F 
ATOM     12  C   UNL     1       4.229   5.189  18.590  0.00  0.00    +0.000 A 
ATOM     13  C   UNL     1       3.317   5.764  19.469  0.00  0.00    +0.000 A 
ATOM     14  F   UNL     1       2.995   5.069  20.574  0.00  0.00    +0.000 F 
ATOM     15  C   UNL     1       2.718   7.020  19.213  0.00  0.00    +0.000 A 
ATOM     16  C   UNL     1       1.876   7.734  20.109  0.00  0.00    +0.000 A 
ATOM     17  C   UNL     1       1.439   9.015  19.758  0.00  0.00    +0.000 A 
ATOM     18  C   UNL     1       0.711  10.002  20.660  0.00  0.00    +0.000 C 
ATOM     19  C   UNL     1       1.118  11.538  20.488  0.00  0.00    +0.000 C 
ATOM     20  C   UNL     1      -0.737   9.797  20.255  0.00  0.00    +0.000 C 
ENDROOT
BRANCH  16  21
ATOM     21  N   UNL     1       1.573   7.209  21.389  0.00  0.00    +0.000 N 
ATOM     22  H   UNL     1       2.006   7.750  22.138  0.00  0.00    +0.000 HD
ATOM     23  H   UNL     1       1.834   6.229  21.473  0.00  0.00    +0.000 HD
ENDBRANCH  16  21
TORSDOF 1
ENDMDL
MODEL 8
REMARK VINA RESULT:      -6.9      3.698      6.133
REMARK  Name = 
REMARK  2 active torsions:
REMARK  status: ('A' for Active; 'I' for Inactive)
REMARK    1  A    between atoms: C_1  and  C_2
REMARK    2  A    between atoms: C_16  and  N_17
REMARK                            x       y       z     vdW  Elec       q    Type
REMARK                         _______ _______ _______ _____ _____    ______ ____
ROOT
ATOM      1  C   UNL     1       1.662   5.804  20.240  0.00  0.00    +0.000 C 
ATOM      2  C   UNL     1       2.980   5.439  19.628  0.00  0.00    +0.000 C 
ATOM      3  C   UNL     1       3.618   4.332  20.050  0.00  0.00    +0.000 C 
ATOM      4  C   UNL     1       4.848   3.898  19.315  0.00  0.00    +0.000 C 
ATOM      5  C   UNL     1       4.351   3.331  17.931  0.00  0.00    +0.000 C 
ATOM      6  C   UNL     1       4.819   4.092  16.719  0.00  0.00    +0.000 A 
ATOM      7  N   UNL     1       4.798   3.453  15.526  0.00  0.00    +0.000 NA
ATOM      8  C   UNL     1       5.587   3.918  14.549  0.00  0.00    +0.000 A 
ATOM      9  C   UNL     1       5.465   3.359  13.286  0.00  0.00    +0.000 A 
ATOM     10  C   UNL     1       6.355   3.681  12.274  0.00  0.00    +0.000 A 
ATOM     11  F   UNL     1       6.201   3.145  11.052  0.00  0.00    +0.000 F 
ATOM     12  C   UNL     1       7.415   4.533  12.512  0.00  0.00    +0.000 A 
ATOM     13  C   UNL     1       7.515   5.134  13.762  0.00  0.00    +0.000 A 
ATOM     14  F   UNL     1       8.572   5.934  13.986  0.00  0.00    +0.000 F 
ATOM     15  C   UNL     1       6.563   4.902  14.784  0.00  0.00    +0.000 A 
ATOM     16  C   UNL     1       6.520   5.566  16.041  0.00  0.00    +0.000 A 
ATOM     17  C   UNL     1       5.457   5.305  16.911  0.00  0.00    +0.000 A 
ATOM     18  C   UNL     1       5.132   6.058  18.194  0.00  0.00    +0.000 C 
ATOM     19  C   UNL     1       3.580   6.291  18.495  0.00  0.00    +0.000 C 
ATOM     20  C   UNL     1       5.740   5.159  19.255  0.00  0.00    +0.000 C 
ENDROOT
BRANCH  16  21
ATOM     21  N   UNL     1       7.472   6.562  16.365  0.00  0.00    +0.000 N 
ATOM     22  H   UNL     1       8.415   6.180  16.444  0.00  0.00    +0.000 HD
ATOM     23  H   UNL     1       7.228   7.063  17.216  0.00  0.00    +0.000 HD
ENDBRANCH  16  21
TORSDOF 1
ENDMDL
MODEL 9
REMARK VINA RESULT:      -6.8      5.247      6.273
REMARK  Name = 
REMARK  2 active torsions:
REMARK  status: ('A' for Active; 'I' for Inactive)
REMARK    1  A    between atoms: C_1  and  C_2
REMARK    2  A    between atoms: C_16  and  N_17
REMARK                            x       y       z     vdW  Elec       q    Type
REMARK                         _______ _______ _______ _____ _____    ______ ____
ROOT
ATOM      1  C   UNL     1       5.981   4.390  18.929  0.00  0.00    +0.000 C 
ATOM      2  C   UNL     1       4.638   5.030  18.742  0.00  0.00    +0.000 C 
ATOM      3  C   UNL     1       3.539   4.256  18.708  0.00  0.00    +0.000 C 
ATOM      4  C   UNL     1       2.200   4.925  18.683  0.00  0.00    +0.000 C 
ATOM      5  C   UNL     1       1.985   5.519  20.127  0.00  0.00    +0.000 C 
ATOM      6  C   UNL     1       1.885   7.020  20.197  0.00  0.00    +0.000 A 
ATOM      7  N   UNL     1       1.295   7.564  21.287  0.00  0.00    +0.000 NA
ATOM      8  C   UNL     1       0.808   8.807  21.185  0.00  0.00    +0.000 A 
ATOM      9  C   UNL     1       0.333   9.421  22.334  0.00  0.00    +0.000 A 
ATOM     10  C   UNL     1      -0.326  10.639  22.271  0.00  0.00    +0.000 A 
ATOM     11  F   UNL     1      -0.756  11.225  23.401  0.00  0.00    +0.000 F 
ATOM     12  C   UNL     1      -0.567  11.248  21.057  0.00  0.00    +0.000 A 
ATOM     13  C   UNL     1      -0.051  10.662  19.907  0.00  0.00    +0.000 A 
ATOM     14  F   UNL     1      -0.324  11.253  18.730  0.00  0.00    +0.000 F 
ATOM     15  C   UNL     1       0.713   9.471  19.950  0.00  0.00    +0.000 A 
ATOM     16  C   UNL     1       1.379   8.875  18.844  0.00  0.00    +0.000 A 
ATOM     17  C   UNL     1       2.183   7.751  19.060  0.00  0.00    +0.000 A 
ATOM     18  C   UNL     1       3.124   7.104  18.053  0.00  0.00    +0.000 C 
ATOM     19  C   UNL     1       4.508   6.560  18.638  0.00  0.00    +0.000 C 
ATOM     20  C   UNL     1       2.288   5.950  17.530  0.00  0.00    +0.000 C 
ENDROOT
BRANCH  16  21
ATOM     21  N   UNL     1       1.326   9.471  17.561  0.00  0.00    +0.000 N 
ATOM     22  H   UNL     1       2.136   9.228  16.991  0.00  0.00    +0.000 HD
ATOM     23  H   UNL     1       1.226  10.482  17.612  0.00  0.00    +0.000 HD
ENDBRANCH  16  21
TORSDOF 1
ENDMDL
