MODEL 1
REMARK VINA RESULT:      -6.6      0.000      0.000
REMARK  Name = 
REMARK  7 active torsions:
REMARK  status: ('A' for Active; 'I' for Inactive)
REMARK    1  A    between atoms: C_1  and  C_2
REMARK    2  A    between atoms: C_2  and  C_4
REMARK    3  A    between atoms: C_4  and  C_5
REMARK    4  A    between atoms: C_5  and  C_6
REMARK    5  A    between atoms: C_8  and  N_9
REMARK    6  A    between atoms: C_8  and  N_10
REMARK    7  A    between atoms: C_11  and  C_13
REMARK                            x       y       z     vdW  Elec       q    Type
REMARK                         _______ _______ _______ _____ _____    ______ ____
ROOT
ATOM      1  C   UNL     1       3.072   3.708  20.019  0.00  0.00    +0.000 C 
ATOM      2  C   UNL     1       3.581   4.939  19.713  0.00  0.00    +0.000 C 
ENDROOT
BRANCH   2   3
ATOM      3  N   UNL     1       2.812   6.098  19.786  0.00  0.00    +0.000 N 
ATOM      4  C   UNL     1       2.732   7.089  18.814  0.00  0.00    +0.000 C 
ATOM      5  O   UNL     1       3.219   7.020  17.688  0.00  0.00    +0.000 OA
ATOM      6  H   UNL     1       2.145   6.180  20.544  0.00  0.00    +0.000 HD
BRANCH   4   7
ATOM      7  C   UNL     1       1.923   8.287  19.175  0.00  0.00    +0.000 A 
ATOM      8  C   UNL     1       1.635   9.288  18.239  0.00  0.00    +0.000 A 
ATOM      9  C   UNL     1       0.909  10.417  18.623  0.00  0.00    +0.000 A 
ATOM     10  C   UNL     1       0.451  10.537  19.936  0.00  0.00    +0.000 A 
ATOM     11  C   UNL     1       0.697   9.524  20.859  0.00  0.00    +0.000 A 
ATOM     12  C   UNL     1       1.427   8.396  20.480  0.00  0.00    +0.000 A 
ENDBRANCH   4   7
ENDBRANCH   2   3
BRANCH   1  14
ATOM     13  C   UNL     1       3.520   1.606  18.497  0.00  0.00    +0.000 C 
ATOM     14  C   UNL     1       3.921   2.490  19.651  0.00  0.00    +0.000 C 
ATOM     15  O   UNL     1       4.971   2.220  20.248  0.00  0.00    +0.000 OA
ENDBRANCH   1  14
BRANCH   1  16
ATOM     16  C   UNL     1       1.717   3.459  20.634  0.00  0.00    +0.000 C 
ATOM     17  C   UNL     1       1.515   2.508  21.790  0.00  0.00    +0.000 C 
ATOM     18  O   UNL     1       0.716   4.010  20.167  0.00  0.00    +0.000 OA
ENDBRANCH   1  16
BRANCH   2  19
ATOM     19  N   UNL     1       4.889   5.109  19.301  0.00  0.00    +0.000 N 
ATOM     20  H   UNL     1       5.493   4.295  19.464  0.00  0.00    +0.000 HD
ATOM     21  H   UNL     1       4.964   5.479  18.349  0.00  0.00    +0.000 HD
ENDBRANCH   2  19
TORSDOF 5
ENDMDL
MODEL 2
REMARK VINA RESULT:      -6.6      0.110      1.145
REMARK  Name = 
REMARK  7 active torsions:
REMARK  status: ('A' for Active; 'I' for Inactive)
REMARK    1  A    between atoms: C_1  and  C_2
REMARK    2  A    between atoms: C_2  and  C_4
REMARK    3  A    between atoms: C_4  and  C_5
REMARK    4  A    between atoms: C_5  and  C_6
REMARK    5  A    between atoms: C_8  and  N_9
REMARK    6  A    between atoms: C_8  and  N_10
REMARK    7  A    between atoms: C_11  and  C_13
REMARK                            x       y       z     vdW  Elec       q    Type
REMARK                         _______ _______ _______ _____ _____    ______ ____
ROOT
ATOM      1  C   UNL     1       3.084   3.748  20.028  0.00  0.00    +0.000 C 
ATOM      2  C   UNL     1       3.605   4.984  19.762  0.00  0.00    +0.000 C 
ENDROOT
BRANCH   2   3
ATOM      3  N   UNL     1       2.847   6.147  19.874  0.00  0.00    +0.000 N 
ATOM      4  C   UNL     1       2.612   7.070  18.862  0.00  0.00    +0.000 C 
ATOM      5  O   UNL     1       2.921   6.924  17.681  0.00  0.00    +0.000 OA
ATOM      6  H   UNL     1       2.304   6.282  20.718  0.00  0.00    +0.000 HD
BRANCH   4   7
ATOM      7  C   UNL     1       1.859   8.292  19.261  0.00  0.00    +0.000 A 
ATOM      8  C   UNL     1       1.363   8.458  20.561  0.00  0.00    +0.000 A 
ATOM      9  C   UNL     1       0.625   9.597  20.888  0.00  0.00    +0.000 A 
ATOM     10  C   UNL     1       0.401  10.582  19.925  0.00  0.00    +0.000 A 
ATOM     11  C   UNL     1       0.929  10.442  18.643  0.00  0.00    +0.000 A 
ATOM     12  C   UNL     1       1.662   9.302  18.311  0.00  0.00    +0.000 A 
ENDBRANCH   4   7
ENDBRANCH   2   3
BRANCH   1  14
ATOM     13  C   UNL     1       3.536   1.721  18.410  0.00  0.00    +0.000 C 
ATOM     14  C   UNL     1       3.921   2.535  19.620  0.00  0.00    +0.000 C 
ATOM     15  O   UNL     1       4.948   2.213  20.229  0.00  0.00    +0.000 OA
ENDBRANCH   1  14
BRANCH   1  16
ATOM     16  C   UNL     1       1.728   3.492  20.637  0.00  0.00    +0.000 C 
ATOM     17  C   UNL     1       1.526   2.546  21.797  0.00  0.00    +0.000 C 
ATOM     18  O   UNL     1       0.726   4.034  20.163  0.00  0.00    +0.000 OA
ENDBRANCH   1  16
BRANCH   2  19
ATOM     19  N   UNL     1       4.914   5.154  19.353  0.00  0.00    +0.000 N 
ATOM     20  H   UNL     1       5.565   5.399  20.109  0.00  0.00    +0.000 HD
ATOM     21  H   UNL     1       5.253   4.387  18.766  0.00  0.00    +0.000 HD
ENDBRANCH   2  19
TORSDOF 5
ENDMDL
MODEL 3
REMARK VINA RESULT:      -6.5      4.527      6.440
REMARK  Name = 
REMARK  7 active torsions:
REMARK  status: ('A' for Active; 'I' for Inactive)
REMARK    1  A    between atoms: C_1  and  C_2
REMARK    2  A    between atoms: C_2  and  C_4
REMARK    3  A    between atoms: C_4  and  C_5
REMARK    4  A    between atoms: C_5  and  C_6
REMARK    5  A    between atoms: C_8  and  N_9
REMARK    6  A    between atoms: C_8  and  N_10
REMARK    7  A    between atoms: C_11  and  C_13
REMARK                            x       y       z     vdW  Elec       q    Type
REMARK                         _______ _______ _______ _____ _____    ______ ____
ROOT
ATOM      1  C   UNL     1       3.750   3.522  18.554  0.00  0.00    +0.000 C 
ATOM      2  C   UNL     1       5.027   3.783  18.140  0.00  0.00    +0.000 C 
ENDROOT
BRANCH   2   3
ATOM      3  N   UNL     1       5.384   3.782  16.795  0.00  0.00    +0.000 N 
ATOM      4  C   UNL     1       6.497   4.407  16.244  0.00  0.00    +0.000 C 
ATOM      5  O   UNL     1       7.404   4.934  16.883  0.00  0.00    +0.000 OA
ATOM      6  H   UNL     1       4.877   3.169  16.168  0.00  0.00    +0.000 HD
BRANCH   4   7
ATOM      7  C   UNL     1       6.602   4.353  14.759  0.00  0.00    +0.000 A 
ATOM      8  C   UNL     1       5.740   3.560  13.989  0.00  0.00    +0.000 A 
ATOM      9  C   UNL     1       5.896   3.501  12.603  0.00  0.00    +0.000 A 
ATOM     10  C   UNL     1       6.894   4.252  11.980  0.00  0.00    +0.000 A 
ATOM     11  C   UNL     1       7.725   5.076  12.737  0.00  0.00    +0.000 A 
ATOM     12  C   UNL     1       7.577   5.132  14.124  0.00  0.00    +0.000 A 
ENDBRANCH   4   7
ENDBRANCH   2   3
BRANCH   1  14
ATOM     13  C   UNL     1       2.602   4.183  20.830  0.00  0.00    +0.000 C 
ATOM     14  C   UNL     1       3.535   3.290  20.051  0.00  0.00    +0.000 C 
ATOM     15  O   UNL     1       4.074   2.353  20.652  0.00  0.00    +0.000 OA
ENDBRANCH   1  14
BRANCH   1  16
ATOM     16  C   UNL     1       2.555   3.387  17.644  0.00  0.00    +0.000 C 
ATOM     17  C   UNL     1       1.499   4.460  17.529  0.00  0.00    +0.000 C 
ATOM     18  O   UNL     1       2.391   2.353  16.989  0.00  0.00    +0.000 OA
ENDBRANCH   1  16
BRANCH   2  19
ATOM     19  N   UNL     1       6.045   4.053  19.034  0.00  0.00    +0.000 N 
ATOM     20  H   UNL     1       5.768   4.002  20.021  0.00  0.00    +0.000 HD
ATOM     21  H   UNL     1       6.904   3.532  18.832  0.00  0.00    +0.000 HD
ENDBRANCH   2  19
TORSDOF 5
ENDMDL
MODEL 4
REMARK VINA RESULT:      -6.5      3.969      6.072
REMARK  Name = 
REMARK  7 active torsions:
REMARK  status: ('A' for Active; 'I' for Inactive)
REMARK    1  A    between atoms: C_1  and  C_2
REMARK    2  A    between atoms: C_2  and  C_4
REMARK    3  A    between atoms: C_4  and  C_5
REMARK    4  A    between atoms: C_5  and  C_6
REMARK    5  A    between atoms: C_8  and  N_9
REMARK    6  A    between atoms: C_8  and  N_10
REMARK    7  A    between atoms: C_11  and  C_13
REMARK                            x       y       z     vdW  Elec       q    Type
REMARK                         _______ _______ _______ _____ _____    ______ ____
ROOT
ATOM      1  C   UNL     1       2.912   3.662  18.884  0.00  0.00    +0.000 C 
ATOM      2  C   UNL     1       4.132   3.138  18.559  0.00  0.00    +0.000 C 
ENDROOT
BRANCH   2   3
ATOM      3  N   UNL     1       4.698   3.303  17.298  0.00  0.00    +0.000 N 
ATOM      4  C   UNL     1       5.701   4.206  16.965  0.00  0.00    +0.000 C 
ATOM      5  O   UNL     1       6.334   4.892  17.763  0.00  0.00    +0.000 OA
ATOM      6  H   UNL     1       4.467   2.628  16.580  0.00  0.00    +0.000 HD
BRANCH   4   7
ATOM      7  C   UNL     1       6.062   4.269  15.520  0.00  0.00    +0.000 A 
ATOM      8  C   UNL     1       5.292   3.627  14.541  0.00  0.00    +0.000 A 
ATOM      9  C   UNL     1       5.685   3.672  13.202  0.00  0.00    +0.000 A 
ATOM     10  C   UNL     1       6.832   4.377  12.835  0.00  0.00    +0.000 A 
ATOM     11  C   UNL     1       7.577   5.053  13.799  0.00  0.00    +0.000 A 
ATOM     12  C   UNL     1       7.190   5.005  15.140  0.00  0.00    +0.000 A 
ENDBRANCH   4   7
ENDBRANCH   2   3
BRANCH   1  14
ATOM     13  C   UNL     1       2.234   4.123  21.387  0.00  0.00    +0.000 C 
ATOM     14  C   UNL     1       2.279   3.197  20.197  0.00  0.00    +0.000 C 
ATOM     15  O   UNL     1       1.752   2.084  20.310  0.00  0.00    +0.000 OA
ENDBRANCH   1  14
BRANCH   1  16
ATOM     16  C   UNL     1       2.120   4.614  18.021  0.00  0.00    +0.000 C 
ATOM     17  C   UNL     1       2.404   6.097  17.980  0.00  0.00    +0.000 C 
ATOM     18  O   UNL     1       1.176   4.195  17.346  0.00  0.00    +0.000 OA
ENDBRANCH   1  16
BRANCH   2  19
ATOM     19  N   UNL     1       4.875   2.401  19.461  0.00  0.00    +0.000 N 
ATOM     20  H   UNL     1       5.191   2.930  20.283  0.00  0.00    +0.000 HD
ATOM     21  H   UNL     1       4.438   1.507  19.705  0.00  0.00    +0.000 HD
ENDBRANCH   2  19
TORSDOF 5
ENDMDL
MODEL 5
REMARK VINA RESULT:      -6.5      4.377      6.283
REMARK  Name = 
REMARK  7 active torsions:
REMARK  status: ('A' for Active; 'I' for Inactive)
REMARK    1  A    between atoms: C_1  and  C_2
REMARK    2  A    between atoms: C_2  and  C_4
REMARK    3  A    between atoms: C_4  and  C_5
REMARK    4  A    between atoms: C_5  and  C_6
REMARK    5  A    between atoms: C_8  and  N_9
REMARK    6  A    between atoms: C_8  and  N_10
REMARK    7  A    between atoms: C_11  and  C_13
REMARK                            x       y       z     vdW  Elec       q    Type
REMARK                         _______ _______ _______ _____ _____    ______ ____
ROOT
ATOM      1  C   UNL     1       3.635   3.547  18.610  0.00  0.00    +0.000 C 
ATOM      2  C   UNL     1       4.939   3.779  18.269  0.00  0.00    +0.000 C 
ENDROOT
BRANCH   2   3
ATOM      3  N   UNL     1       5.375   3.752  16.947  0.00  0.00    +0.000 N 
ATOM      4  C   UNL     1       6.170   4.710  16.329  0.00  0.00    +0.000 C 
ATOM      5  O   UNL     1       6.721   5.650  16.897  0.00  0.00    +0.000 OA
ATOM      6  H   UNL     1       5.221   2.906  16.413  0.00  0.00    +0.000 HD
BRANCH   4   7
ATOM      7  C   UNL     1       6.411   4.511  14.873  0.00  0.00    +0.000 A 
ATOM      8  C   UNL     1       7.471   5.144  14.209  0.00  0.00    +0.000 A 
ATOM      9  C   UNL     1       7.641   4.966  12.835  0.00  0.00    +0.000 A 
ATOM     10  C   UNL     1       6.769   4.140  12.125  0.00  0.00    +0.000 A 
ATOM     11  C   UNL     1       5.740   3.474  12.788  0.00  0.00    +0.000 A 
ATOM     12  C   UNL     1       5.563   3.653  14.162  0.00  0.00    +0.000 A 
ENDBRANCH   4   7
ENDBRANCH   2   3
BRANCH   1  14
ATOM     13  C   UNL     1       2.434   4.311  20.825  0.00  0.00    +0.000 C 
ATOM     14  C   UNL     1       3.328   3.341  20.095  0.00  0.00    +0.000 C 
ATOM     15  O   UNL     1       3.757   2.366  20.723  0.00  0.00    +0.000 OA
ENDBRANCH   1  14
BRANCH   1  16
ATOM     16  C   UNL     1       2.493   3.419  17.633  0.00  0.00    +0.000 C 
ATOM     17  C   UNL     1       1.436   4.486  17.479  0.00  0.00    +0.000 C 
ATOM     18  O   UNL     1       2.375   2.397  16.951  0.00  0.00    +0.000 OA
ENDBRANCH   1  16
BRANCH   2  19
ATOM     19  N   UNL     1       5.907   4.044  19.218  0.00  0.00    +0.000 N 
ATOM     20  H   UNL     1       5.977   5.033  19.487  0.00  0.00    +0.000 HD
ATOM     21  H   UNL     1       5.863   3.413  20.023  0.00  0.00    +0.000 HD
ENDBRANCH   2  19
TORSDOF 5
ENDMDL
MODEL 6
REMARK VINA RESULT:      -6.4      3.954      6.042
REMARK  Name = 
REMARK  7 active torsions:
REMARK  status: ('A' for Active; 'I' for Inactive)
REMARK    1  A    between atoms: C_1  and  C_2
REMARK    2  A    between atoms: C_2  and  C_4
REMARK    3  A    between atoms: C_4  and  C_5
REMARK    4  A    between atoms: C_5  and  C_6
REMARK    5  A    between atoms: C_8  and  N_9
REMARK    6  A    between atoms: C_8  and  N_10
REMARK    7  A    between atoms: C_11  and  C_13
REMARK                            x       y       z     vdW  Elec       q    Type
REMARK                         _______ _______ _______ _____ _____    ______ ____
ROOT
ATOM      1  C   UNL     1       2.909   3.655  18.879  0.00  0.00    +0.000 C 
ATOM      2  C   UNL     1       4.139   3.136  18.582  0.00  0.00    +0.000 C 
ENDROOT
BRANCH   2   3
ATOM      3  N   UNL     1       4.737   3.314  17.338  0.00  0.00    +0.000 N 
ATOM      4  C   UNL     1       5.728   4.240  17.033  0.00  0.00    +0.000 C 
ATOM      5  O   UNL     1       6.321   4.941  17.849  0.00  0.00    +0.000 OA
ATOM      6  H   UNL     1       4.543   2.633  16.614  0.00  0.00    +0.000 HD
BRANCH   4   7
ATOM      7  C   UNL     1       6.130   4.311  15.599  0.00  0.00    +0.000 A 
ATOM      8  C   UNL     1       7.262   5.027  15.188  0.00  0.00    +0.000 A 
ATOM      9  C   UNL     1       7.584   5.106  13.832  0.00  0.00    +0.000 A 
ATOM     10  C   UNL     1       6.791   4.452  12.887  0.00  0.00    +0.000 A 
ATOM     11  C   UNL     1       5.690   3.702  13.296  0.00  0.00    +0.000 A 
ATOM     12  C   UNL     1       5.361   3.626  14.651  0.00  0.00    +0.000 A 
ENDBRANCH   4   7
ENDBRANCH   2   3
BRANCH   1  14
ATOM     13  C   UNL     1       2.144   4.099  21.359  0.00  0.00    +0.000 C 
ATOM     14  C   UNL     1       2.243   3.177  20.170  0.00  0.00    +0.000 C 
ATOM     15  O   UNL     1       1.732   2.054  20.265  0.00  0.00    +0.000 OA
ENDBRANCH   1  14
BRANCH   1  16
ATOM     16  C   UNL     1       2.138   4.612  18.004  0.00  0.00    +0.000 C 
ATOM     17  C   UNL     1       2.444   6.091  17.957  0.00  0.00    +0.000 C 
ATOM     18  O   UNL     1       1.194   4.203  17.324  0.00  0.00    +0.000 OA
ENDBRANCH   1  16
BRANCH   2  19
ATOM     19  N   UNL     1       4.859   2.392  19.496  0.00  0.00    +0.000 N 
ATOM     20  H   UNL     1       4.387   1.538  19.815  0.00  0.00    +0.000 HD
ATOM     21  H   UNL     1       5.828   2.228  19.205  0.00  0.00    +0.000 HD
ENDBRANCH   2  19
TORSDOF 5
ENDMDL
MODEL 7
REMARK VINA RESULT:      -6.4      3.111      5.602
REMARK  Name = 
REMARK  7 active torsions:
REMARK  status: ('A' for Active; 'I' for Inactive)
REMARK    1  A    between atoms: C_1  and  C_2
REMARK    2  A    between atoms: C_2  and  C_4
REMARK    3  A    between atoms: C_4  and  C_5
REMARK    4  A    between atoms: C_5  and  C_6
REMARK    5  A    between atoms: C_8  and  N_9
REMARK    6  A    between atoms: C_8  and  N_10
REMARK    7  A    between atoms: C_11  and  C_13
REMARK                            x       y       z     vdW  Elec       q    Type
REMARK                         _______ _______ _______ _____ _____    ______ ____
ROOT
ATOM      1  C   UNL     1       6.348   6.186  17.897  0.00  0.00    +0.000 C 
ATOM      2  C   UNL     1       5.061   6.229  17.437  0.00  0.00    +0.000 C 
ENDROOT
BRANCH   2   3
ATOM      3  N   UNL     1       4.076   5.367  17.910  0.00  0.00    +0.000 N 
ATOM      4  C   UNL     1       3.006   5.718  18.725  0.00  0.00    +0.000 C 
ATOM      5  O   UNL     1       2.693   6.865  19.034  0.00  0.00    +0.000 OA
ATOM      6  H   UNL     1       4.042   4.429  17.531  0.00  0.00    +0.000 HD
BRANCH   4   7
ATOM      7  C   UNL     1       2.146   4.591  19.187  0.00  0.00    +0.000 A 
ATOM      8  C   UNL     1       1.864   4.390  20.544  0.00  0.00    +0.000 A 
ATOM      9  C   UNL     1       1.090   3.299  20.943  0.00  0.00    +0.000 A 
ATOM     10  C   UNL     1       0.576   2.422  19.988  0.00  0.00    +0.000 A 
ATOM     11  C   UNL     1       0.818   2.642  18.633  0.00  0.00    +0.000 A 
ATOM     12  C   UNL     1       1.597   3.729  18.231  0.00  0.00    +0.000 A 
ENDBRANCH   4   7
ENDBRANCH   2   3
BRANCH   1  14
ATOM     13  C   UNL     1       7.874   8.318  17.657  0.00  0.00    +0.000 C 
ATOM     14  C   UNL     1       7.393   6.992  17.125  0.00  0.00    +0.000 C 
ATOM     15  O   UNL     1       7.903   6.569  16.080  0.00  0.00    +0.000 OA
ENDBRANCH   1  14
BRANCH   1  16
ATOM     16  C   UNL     1       6.822   5.361  19.068  0.00  0.00    +0.000 C 
ATOM     17  C   UNL     1       8.102   5.667  19.809  0.00  0.00    +0.000 C 
ATOM     18  O   UNL     1       6.177   4.372  19.427  0.00  0.00    +0.000 OA
ENDBRANCH   1  16
BRANCH   2  19
ATOM     19  N   UNL     1       4.661   7.126  16.464  0.00  0.00    +0.000 N 
ATOM     20  H   UNL     1       4.783   6.790  15.502  0.00  0.00    +0.000 HD
ATOM     21  H   UNL     1       3.730   7.515  16.637  0.00  0.00    +0.000 HD
ENDBRANCH   2  19
TORSDOF 5
ENDMDL
MODEL 8
REMARK VINA RESULT:      -6.4      3.584      5.672
REMARK  Name = 
REMARK  7 active torsions:
REMARK  status: ('A' for Active; 'I' for Inactive)
REMARK    1  A    between atoms: C_1  and  C_2
REMARK    2  A    between atoms: C_2  and  C_4
REMARK    3  A    between atoms: C_4  and  C_5
REMARK    4  A    between atoms: C_5  and  C_6
REMARK    5  A    between atoms: C_8  and  N_9
REMARK    6  A    between atoms: C_8  and  N_10
REMARK    7  A    between atoms: C_11  and  C_13
REMARK                            x       y       z     vdW  Elec       q    Type
REMARK                         _______ _______ _______ _____ _____    ______ ____
ROOT
ATOM      1  C   UNL     1       3.068   3.618  19.776  0.00  0.00    +0.000 C 
ATOM      2  C   UNL     1       4.178   2.963  19.321  0.00  0.00    +0.000 C 
ENDROOT
BRANCH   2   3
ATOM      3  N   UNL     1       4.763   3.262  18.093  0.00  0.00    +0.000 N 
ATOM      4  C   UNL     1       5.843   4.112  17.888  0.00  0.00    +0.000 C 
ATOM      5  O   UNL     1       6.529   4.617  18.774  0.00  0.00    +0.000 OA
ATOM      6  H   UNL     1       4.478   2.721  17.286  0.00  0.00    +0.000 HD
BRANCH   4   7
ATOM      7  C   UNL     1       6.216   4.354  16.466  0.00  0.00    +0.000 A 
ATOM      8  C   UNL     1       7.304   5.167  16.118  0.00  0.00    +0.000 A 
ATOM      9  C   UNL     1       7.598   5.405  14.775  0.00  0.00    +0.000 A 
ATOM     10  C   UNL     1       6.823   4.813  13.776  0.00  0.00    +0.000 A 
ATOM     11  C   UNL     1       5.768   3.969  14.116  0.00  0.00    +0.000 A 
ATOM     12  C   UNL     1       5.467   3.734  15.459  0.00  0.00    +0.000 A 
ENDBRANCH   4   7
ENDBRANCH   2   3
BRANCH   1  14
ATOM     13  C   UNL     1       0.874   2.800  20.982  0.00  0.00    +0.000 C 
ATOM     14  C   UNL     1       2.364   3.032  21.002  0.00  0.00    +0.000 C 
ATOM     15  O   UNL     1       2.989   2.693  22.014  0.00  0.00    +0.000 OA
ENDBRANCH   1  14
BRANCH   1  16
ATOM     16  C   UNL     1       2.452   4.833  19.128  0.00  0.00    +0.000 C 
ATOM     17  C   UNL     1       2.334   6.159  19.842  0.00  0.00    +0.000 C 
ATOM     18  O   UNL     1       1.985   4.756  17.988  0.00  0.00    +0.000 OA
ENDBRANCH   1  16
BRANCH   2  19
ATOM     19  N   UNL     1       4.784   1.957  20.048  0.00  0.00    +0.000 N 
ATOM     20  H   UNL     1       5.228   2.271  20.919  0.00  0.00    +0.000 HD
ATOM     21  H   UNL     1       4.181   1.139  20.180  0.00  0.00    +0.000 HD
ENDBRANCH   2  19
TORSDOF 5
ENDMDL
MODEL 9
REMARK VINA RESULT:      -6.4      3.123      5.515
REMARK  Name = 
REMARK  7 active torsions:
REMARK  status: ('A' for Active; 'I' for Inactive)
REMARK    1  A    between atoms: C_1  and  C_2
REMARK    2  A    between atoms: C_2  and  C_4
REMARK    3  A    between atoms: C_4  and  C_5
REMARK    4  A    between atoms: C_5  and  C_6
REMARK    5  A    between atoms: C_8  and  N_9
REMARK    6  A    between atoms: C_8  and  N_10
REMARK    7  A    between atoms: C_11  and  C_13
REMARK                            x       y       z     vdW  Elec       q    Type
REMARK                         _______ _______ _______ _____ _____    ______ ____
ROOT
ATOM      1  C   UNL     1       6.364   6.187  17.886  0.00  0.00    +0.000 C 
ATOM      2  C   UNL     1       5.080   6.203  17.416  0.00  0.00    +0.000 C 
ENDROOT
BRANCH   2   3
ATOM      3  N   UNL     1       4.106   5.329  17.891  0.00  0.00    +0.000 N 
ATOM      4  C   UNL     1       2.938   5.689  18.554  0.00  0.00    +0.000 C 
ATOM      5  O   UNL     1       2.526   6.838  18.694  0.00  0.00    +0.000 OA
ATOM      6  H   UNL     1       4.170   4.354  17.624  0.00  0.00    +0.000 HD
BRANCH   4   7
ATOM      7  C   UNL     1       2.107   4.561  19.061  0.00  0.00    +0.000 A 
ATOM      8  C   UNL     1       1.492   3.652  18.191  0.00  0.00    +0.000 A 
ATOM      9  C   UNL     1       0.686   2.632  18.700  0.00  0.00    +0.000 A 
ATOM     10  C   UNL     1       0.512   2.503  20.079  0.00  0.00    +0.000 A 
ATOM     11  C   UNL     1       1.157   3.378  20.951  0.00  0.00    +0.000 A 
ATOM     12  C   UNL     1       1.959   4.403  20.445  0.00  0.00    +0.000 A 
ENDBRANCH   4   7
ENDBRANCH   2   3
BRANCH   1  14
ATOM     13  C   UNL     1       7.871   8.333  17.645  0.00  0.00    +0.000 C 
ATOM     14  C   UNL     1       7.401   7.003  17.113  0.00  0.00    +0.000 C 
ATOM     15  O   UNL     1       7.913   6.585  16.067  0.00  0.00    +0.000 OA
ENDBRANCH   1  14
BRANCH   1  16
ATOM     16  C   UNL     1       6.843   5.383  19.069  0.00  0.00    +0.000 C 
ATOM     17  C   UNL     1       8.121   5.710  19.807  0.00  0.00    +0.000 C 
ATOM     18  O   UNL     1       6.207   4.394  19.442  0.00  0.00    +0.000 OA
ENDBRANCH   1  16
BRANCH   2  19
ATOM     19  N   UNL     1       4.672   7.082  16.431  0.00  0.00    +0.000 N 
ATOM     20  H   UNL     1       4.602   6.666  15.495  0.00  0.00    +0.000 HD
ATOM     21  H   UNL     1       3.841   7.620  16.693  0.00  0.00    +0.000 HD
ENDBRANCH   2  19
TORSDOF 5
ENDMDL
