MODEL 1
REMARK VINA RESULT:      -8.1      0.000      0.000
REMARK  Name = 
REMARK  8 active torsions:
REMARK  status: ('A' for Active; 'I' for Inactive)
REMARK    1  A    between atoms: C_1  and  C_2
REMARK    2  A    between atoms: C_2  and  C_3
REMARK    3  A    between atoms: C_3  and  C_4
REMARK    4  A    between atoms: C_4  and  S_5
REMARK    5  A    between atoms: S_5  and  C_7
REMARK    6  A    between atoms: C_11  and  C_12
REMARK    7  A    between atoms: C_18  and  C_19
REMARK    8  A    between atoms: C_26  and  N_27
REMARK                            x       y       z     vdW  Elec       q    Type
REMARK                         _______ _______ _______ _____ _____    ______ ____
ROOT
ATOM      1  C   UNL     1       5.584   5.671  16.706  0.00  0.00    +0.000 A 
ATOM      2  S   UNL     1       5.028   7.213  16.250  0.00  0.00    +0.000 S 
ATOM      3  C   UNL     1       3.818   7.208  17.457  0.00  0.00    +0.000 A 
ATOM      4  N   UNL     1       3.080   8.324  17.657  0.00  0.00    +0.000 NA
ATOM      5  C   UNL     1       2.138   8.209  18.614  0.00  0.00    +0.000 A 
ATOM      6  C   UNL     1       1.829   7.012  19.241  0.00  0.00    +0.000 A 
ATOM      7  C   UNL     1       2.608   5.860  19.033  0.00  0.00    +0.000 A 
ATOM      8  C   UNL     1       3.718   5.990  18.136  0.00  0.00    +0.000 A 
ATOM      9  C   UNL     1       4.860   5.162  17.771  0.00  0.00    +0.000 A 
ENDROOT
BRANCH   7  10
ATOM     10  C   UNL     1       2.274   4.608  19.737  0.00  0.00    +0.000 A 
ATOM     11  C   UNL     1       1.789   3.477  19.057  0.00  0.00    +0.000 A 
ATOM     12  C   UNL     1       1.565   2.265  19.717  0.00  0.00    +0.000 A 
ATOM     13  C   UNL     1       1.726   2.182  21.095  0.00  0.00    +0.000 A 
ATOM     14  C   UNL     1       2.104   3.312  21.812  0.00  0.00    +0.000 A 
ATOM     15  C   UNL     1       2.388   4.503  21.139  0.00  0.00    +0.000 A 
ENDBRANCH   7  10
BRANCH   5  16
ATOM     16  C   UNL     1       1.477   9.471  19.002  0.00  0.00    +0.000 A 
ATOM     17  C   UNL     1       1.510  10.707  18.382  0.00  0.00    +0.000 A 
ATOM     18  C   UNL     1       0.761  11.700  19.078  0.00  0.00    +0.000 A 
ATOM     19  C   UNL     1       0.188  11.206  20.229  0.00  0.00    +0.000 A 
ATOM     20  S   UNL     1       0.558   9.563  20.461  0.00  0.00    +0.000 S 
ENDBRANCH   5  16
BRANCH   9  21
ATOM     21  N   UNL     1       5.207   4.016  18.398  0.00  0.00    +0.000 N 
ATOM     22  H   UNL     1       4.604   3.475  19.006  0.00  0.00    +0.000 HD
ATOM     23  H   UNL     1       6.172   3.663  18.347  0.00  0.00    +0.000 HD
ENDBRANCH   9  21
BRANCH   1  24
ATOM     24  S   UNL     1       7.025   4.947  16.001  0.00  0.00    +0.000 S 
ATOM     25  O   UNL     1       7.862   4.298  17.167  0.00  0.00    +0.000 OA
BRANCH  24  26
ATOM     26  C   UNL     1       6.281   3.584  15.036  0.00  0.00    +0.000 C 
BRANCH  26  27
ATOM     27  C   UNL     1       5.552   4.160  13.813  0.00  0.00    +0.000 C 
BRANCH  27  29
ATOM     28  C   UNL     1       4.641   3.221  11.652  0.00  0.00    +0.000 C 
ATOM     29  C   UNL     1       5.878   3.403  12.524  0.00  0.00    +0.000 C 
ENDBRANCH  27  29
ENDBRANCH  26  27
ENDBRANCH  24  26
ENDBRANCH   1  24
TORSDOF 7
ENDMDL
MODEL 2
REMARK VINA RESULT:      -8.0      0.722      1.235
REMARK  Name = 
REMARK  8 active torsions:
REMARK  status: ('A' for Active; 'I' for Inactive)
REMARK    1  A    between atoms: C_1  and  C_2
REMARK    2  A    between atoms: C_2  and  C_3
REMARK    3  A    between atoms: C_3  and  C_4
REMARK    4  A    between atoms: C_4  and  S_5
REMARK    5  A    between atoms: S_5  and  C_7
REMARK    6  A    between atoms: C_11  and  C_12
REMARK    7  A    between atoms: C_18  and  C_19
REMARK    8  A    between atoms: C_26  and  N_27
REMARK                            x       y       z     vdW  Elec       q    Type
REMARK                         _______ _______ _______ _____ _____    ______ ____
ROOT
ATOM      1  C   UNL     1       5.489   5.768  16.690  0.00  0.00    +0.000 A 
ATOM      2  S   UNL     1       4.959   7.305  16.185  0.00  0.00    +0.000 S 
ATOM      3  C   UNL     1       3.730   7.346  17.372  0.00  0.00    +0.000 A 
ATOM      4  N   UNL     1       3.003   8.475  17.531  0.00  0.00    +0.000 NA
ATOM      5  C   UNL     1       2.044   8.396  18.476  0.00  0.00    +0.000 A 
ATOM      6  C   UNL     1       1.711   7.219  19.128  0.00  0.00    +0.000 A 
ATOM      7  C   UNL     1       2.479   6.052  18.962  0.00  0.00    +0.000 A 
ATOM      8  C   UNL     1       3.605   6.146  18.080  0.00  0.00    +0.000 A 
ATOM      9  C   UNL     1       4.741   5.296  17.755  0.00  0.00    +0.000 A 
ENDROOT
BRANCH   7  10
ATOM     10  C   UNL     1       2.118   4.823  19.692  0.00  0.00    +0.000 A 
ATOM     11  C   UNL     1       2.535   4.592  21.014  0.00  0.00    +0.000 A 
ATOM     12  C   UNL     1       2.109   3.471  21.731  0.00  0.00    +0.000 A 
ATOM     13  C   UNL     1       1.334   2.499  21.110  0.00  0.00    +0.000 A 
ATOM     14  C   UNL     1       0.991   2.646  19.771  0.00  0.00    +0.000 A 
ATOM     15  C   UNL     1       1.366   3.801  19.077  0.00  0.00    +0.000 A 
ENDBRANCH   7  10
BRANCH   5  16
ATOM     16  C   UNL     1       1.393   9.675  18.821  0.00  0.00    +0.000 A 
ATOM     17  C   UNL     1       0.225   9.904  19.526  0.00  0.00    +0.000 A 
ATOM     18  C   UNL     1      -0.100  11.288  19.630  0.00  0.00    +0.000 A 
ATOM     19  C   UNL     1       0.816  12.087  18.984  0.00  0.00    +0.000 A 
ATOM     20  S   UNL     1       2.049  11.170  18.257  0.00  0.00    +0.000 S 
ENDBRANCH   5  16
BRANCH   9  21
ATOM     21  N   UNL     1       5.065   4.163  18.416  0.00  0.00    +0.000 N 
ATOM     22  H   UNL     1       5.311   4.106  19.398  0.00  0.00    +0.000 HD
ATOM     23  H   UNL     1       5.156   3.270  17.913  0.00  0.00    +0.000 HD
ENDBRANCH   9  21
BRANCH   1  24
ATOM     24  S   UNL     1       6.931   5.009  16.027  0.00  0.00    +0.000 S 
ATOM     25  O   UNL     1       7.715   4.335  17.215  0.00  0.00    +0.000 OA
BRANCH  24  26
ATOM     26  C   UNL     1       6.183   3.670  15.033  0.00  0.00    +0.000 C 
BRANCH  26  27
ATOM     27  C   UNL     1       5.674   4.242  13.702  0.00  0.00    +0.000 C 
BRANCH  27  29
ATOM     28  C   UNL     1       4.668   3.164  11.650  0.00  0.00    +0.000 C 
ATOM     29  C   UNL     1       5.910   3.293  12.526  0.00  0.00    +0.000 C 
ENDBRANCH  27  29
ENDBRANCH  26  27
ENDBRANCH  24  26
ENDBRANCH   1  24
TORSDOF 7
ENDMDL
MODEL 3
REMARK VINA RESULT:      -7.1      1.692      2.448
REMARK  Name = 
REMARK  8 active torsions:
REMARK  status: ('A' for Active; 'I' for Inactive)
REMARK    1  A    between atoms: C_1  and  C_2
REMARK    2  A    between atoms: C_2  and  C_3
REMARK    3  A    between atoms: C_3  and  C_4
REMARK    4  A    between atoms: C_4  and  S_5
REMARK    5  A    between atoms: S_5  and  C_7
REMARK    6  A    between atoms: C_11  and  C_12
REMARK    7  A    between atoms: C_18  and  C_19
REMARK    8  A    between atoms: C_26  and  N_27
REMARK                            x       y       z     vdW  Elec       q    Type
REMARK                         _______ _______ _______ _____ _____    ______ ____
ROOT
ATOM      1  C   UNL     1       5.132   5.168  16.393  0.00  0.00    +0.000 A 
ATOM      2  S   UNL     1       4.735   6.738  15.870  0.00  0.00    +0.000 S 
ATOM      3  C   UNL     1       3.647   6.968  17.167  0.00  0.00    +0.000 A 
ATOM      4  N   UNL     1       3.075   8.182  17.342  0.00  0.00    +0.000 NA
ATOM      5  C   UNL     1       2.215   8.251  18.378  0.00  0.00    +0.000 A 
ATOM      6  C   UNL     1       1.816   7.148  19.115  0.00  0.00    +0.000 A 
ATOM      7  C   UNL     1       2.423   5.892  18.930  0.00  0.00    +0.000 A 
ATOM      8  C   UNL     1       3.456   5.818  17.940  0.00  0.00    +0.000 A 
ATOM      9  C   UNL     1       4.448   4.827  17.547  0.00  0.00    +0.000 A 
ENDROOT
BRANCH   7  10
ATOM     10  C   UNL     1       1.999   4.742  19.750  0.00  0.00    +0.000 A 
ATOM     11  C   UNL     1       1.099   3.775  19.269  0.00  0.00    +0.000 A 
ATOM     12  C   UNL     1       0.776   2.638  20.015  0.00  0.00    +0.000 A 
ATOM     13  C   UNL     1       1.269   2.490  21.306  0.00  0.00    +0.000 A 
ATOM     14  C   UNL     1       2.077   3.480  21.852  0.00  0.00    +0.000 A 
ATOM     15  C   UNL     1       2.448   4.583  21.077  0.00  0.00    +0.000 A 
ENDBRANCH   7  10
BRANCH   5  16
ATOM     16  C   UNL     1       1.755   9.611  18.723  0.00  0.00    +0.000 A 
ATOM     17  C   UNL     1       2.067  10.822  18.130  0.00  0.00    +0.000 A 
ATOM     18  C   UNL     1       1.442  11.932  18.769  0.00  0.00    +0.000 A 
ATOM     19  C   UNL     1       0.682  11.549  19.851  0.00  0.00    +0.000 A 
ATOM     20  S   UNL     1       0.731   9.866  20.090  0.00  0.00    +0.000 S 
ENDBRANCH   5  16
BRANCH   9  21
ATOM     21  N   UNL     1       4.704   3.687  18.227  0.00  0.00    +0.000 N 
ATOM     22  H   UNL     1       5.049   3.638  19.179  0.00  0.00    +0.000 HD
ATOM     23  H   UNL     1       4.631   2.772  17.763  0.00  0.00    +0.000 HD
ENDBRANCH   9  21
BRANCH   1  24
ATOM     24  S   UNL     1       6.402   4.218  15.630  0.00  0.00    +0.000 S 
ATOM     25  O   UNL     1       6.466   4.623  14.109  0.00  0.00    +0.000 OA
BRANCH  24  26
ATOM     26  C   UNL     1       7.882   4.915  16.446  0.00  0.00    +0.000 C 
BRANCH  26  27
ATOM     27  C   UNL     1       7.829   4.612  17.950  0.00  0.00    +0.000 C 
BRANCH  27  29
ATOM     28  C   UNL     1       7.784   7.139  17.949  0.00  0.00    +0.000 C 
ATOM     29  C   UNL     1       7.854   5.880  18.806  0.00  0.00    +0.000 C 
ENDBRANCH  27  29
ENDBRANCH  26  27
ENDBRANCH  24  26
ENDBRANCH   1  24
TORSDOF 7
ENDMDL
MODEL 4
REMARK VINA RESULT:      -6.8      1.834      2.730
REMARK  Name = 
REMARK  8 active torsions:
REMARK  status: ('A' for Active; 'I' for Inactive)
REMARK    1  A    between atoms: C_1  and  C_2
REMARK    2  A    between atoms: C_2  and  C_3
REMARK    3  A    between atoms: C_3  and  C_4
REMARK    4  A    between atoms: C_4  and  S_5
REMARK    5  A    between atoms: S_5  and  C_7
REMARK    6  A    between atoms: C_11  and  C_12
REMARK    7  A    between atoms: C_18  and  C_19
REMARK    8  A    between atoms: C_26  and  N_27
REMARK                            x       y       z     vdW  Elec       q    Type
REMARK                         _______ _______ _______ _____ _____    ______ ____
ROOT
ATOM      1  C   UNL     1       5.068   5.192  16.498  0.00  0.00    +0.000 A 
ATOM      2  S   UNL     1       4.636   6.772  16.035  0.00  0.00    +0.000 S 
ATOM      3  C   UNL     1       3.579   6.946  17.366  0.00  0.00    +0.000 A 
ATOM      4  N   UNL     1       2.996   8.146  17.593  0.00  0.00    +0.000 NA
ATOM      5  C   UNL     1       2.162   8.171  18.652  0.00  0.00    +0.000 A 
ATOM      6  C   UNL     1       1.798   7.040  19.364  0.00  0.00    +0.000 A 
ATOM      7  C   UNL     1       2.416   5.799  19.125  0.00  0.00    +0.000 A 
ATOM      8  C   UNL     1       3.424   5.771  18.107  0.00  0.00    +0.000 A 
ATOM      9  C   UNL     1       4.419   4.807  17.658  0.00  0.00    +0.000 A 
ENDROOT
BRANCH   7  10
ATOM     10  C   UNL     1       2.029   4.618  19.919  0.00  0.00    +0.000 A 
ATOM     11  C   UNL     1       2.556   4.375  21.200  0.00  0.00    +0.000 A 
ATOM     12  C   UNL     1       2.112   3.308  21.985  0.00  0.00    +0.000 A 
ATOM     13  C   UNL     1       1.200   2.395  21.468  0.00  0.00    +0.000 A 
ATOM     14  C   UNL     1       0.738   2.547  20.166  0.00  0.00    +0.000 A 
ATOM     15  C   UNL     1       1.137   3.653  19.409  0.00  0.00    +0.000 A 
ENDBRANCH   7  10
BRANCH   5  16
ATOM     16  C   UNL     1       1.692   9.513  19.051  0.00  0.00    +0.000 A 
ATOM     17  C   UNL     1       0.891   9.882  20.116  0.00  0.00    +0.000 A 
ATOM     18  C   UNL     1       0.628  11.283  20.156  0.00  0.00    +0.000 A 
ATOM     19  C   UNL     1       1.216  11.952  19.106  0.00  0.00    +0.000 A 
ATOM     20  S   UNL     1       2.071  10.894  18.086  0.00  0.00    +0.000 S 
ENDBRANCH   5  16
BRANCH   9  21
ATOM     21  N   UNL     1       4.708   3.650  18.296  0.00  0.00    +0.000 N 
ATOM     22  H   UNL     1       5.442   3.528  18.985  0.00  0.00    +0.000 HD
ATOM     23  H   UNL     1       4.224   2.778  18.044  0.00  0.00    +0.000 HD
ENDBRANCH   9  21
BRANCH   1  24
ATOM     24  S   UNL     1       6.331   4.285  15.674  0.00  0.00    +0.000 S 
ATOM     25  O   UNL     1       6.338   4.725  14.162  0.00  0.00    +0.000 OA
BRANCH  24  26
ATOM     26  C   UNL     1       7.823   4.992  16.459  0.00  0.00    +0.000 C 
BRANCH  26  27
ATOM     27  C   UNL     1       7.833   4.638  17.953  0.00  0.00    +0.000 C 
BRANCH  27  29
ATOM     28  C   UNL     1       7.804   7.163  18.034  0.00  0.00    +0.000 C 
ATOM     29  C   UNL     1       7.814   5.877  18.851  0.00  0.00    +0.000 C 
ENDBRANCH  27  29
ENDBRANCH  26  27
ENDBRANCH  24  26
ENDBRANCH   1  24
TORSDOF 7
ENDMDL
MODEL 5
REMARK VINA RESULT:      -6.7      0.723      1.185
REMARK  Name = 
REMARK  8 active torsions:
REMARK  status: ('A' for Active; 'I' for Inactive)
REMARK    1  A    between atoms: C_1  and  C_2
REMARK    2  A    between atoms: C_2  and  C_3
REMARK    3  A    between atoms: C_3  and  C_4
REMARK    4  A    between atoms: C_4  and  S_5
REMARK    5  A    between atoms: S_5  and  C_7
REMARK    6  A    between atoms: C_11  and  C_12
REMARK    7  A    between atoms: C_18  and  C_19
REMARK    8  A    between atoms: C_26  and  N_27
REMARK                            x       y       z     vdW  Elec       q    Type
REMARK                         _______ _______ _______ _____ _____    ______ ____
ROOT
ATOM      1  C   UNL     1       5.183   5.991  16.956  0.00  0.00    +0.000 A 
ATOM      2  S   UNL     1       4.609   7.548  16.579  0.00  0.00    +0.000 S 
ATOM      3  C   UNL     1       3.456   7.503  17.839  0.00  0.00    +0.000 A 
ATOM      4  N   UNL     1       2.730   8.611  18.110  0.00  0.00    +0.000 NA
ATOM      5  C   UNL     1       1.832   8.464  19.105  0.00  0.00    +0.000 A 
ATOM      6  C   UNL     1       1.551   7.247  19.705  0.00  0.00    +0.000 A 
ATOM      7  C   UNL     1       2.318   6.102  19.422  0.00  0.00    +0.000 A 
ATOM      8  C   UNL     1       3.386   6.262  18.480  0.00  0.00    +0.000 A 
ATOM      9  C   UNL     1       4.508   5.447  18.035  0.00  0.00    +0.000 A 
ENDROOT
BRANCH   7  10
ATOM     10  C   UNL     1       2.014   4.827  20.098  0.00  0.00    +0.000 A 
ATOM     11  C   UNL     1       2.621   4.464  21.312  0.00  0.00    +0.000 A 
ATOM     12  C   UNL     1       2.257   3.300  21.996  0.00  0.00    +0.000 A 
ATOM     13  C   UNL     1       1.345   2.417  21.430  0.00  0.00    +0.000 A 
ATOM     14  C   UNL     1       0.804   2.695  20.180  0.00  0.00    +0.000 A 
ATOM     15  C   UNL     1       1.124   3.891  19.532  0.00  0.00    +0.000 A 
ENDBRANCH   7  10
BRANCH   5  16
ATOM     16  C   UNL     1       1.192   9.712  19.565  0.00  0.00    +0.000 A 
ATOM     17  C   UNL     1       0.970  10.891  18.876  0.00  0.00    +0.000 A 
ATOM     18  C   UNL     1       0.343  11.892  19.674  0.00  0.00    +0.000 A 
ATOM     19  C   UNL     1       0.119  11.464  20.963  0.00  0.00    +0.000 A 
ATOM     20  S   UNL     1       0.665   9.872  21.202  0.00  0.00    +0.000 S 
ENDBRANCH   5  16
BRANCH   9  21
ATOM     21  N   UNL     1       4.882   4.280  18.607  0.00  0.00    +0.000 N 
ATOM     22  H   UNL     1       5.272   3.485  18.114  0.00  0.00    +0.000 HD
ATOM     23  H   UNL     1       4.707   4.106  19.605  0.00  0.00    +0.000 HD
ENDBRANCH   9  21
BRANCH   1  24
ATOM     24  S   UNL     1       6.589   5.291  16.162  0.00  0.00    +0.000 S 
ATOM     25  O   UNL     1       7.365   4.424  17.224  0.00  0.00    +0.000 OA
BRANCH  24  26
ATOM     26  C   UNL     1       5.779   4.137  14.997  0.00  0.00    +0.000 C 
BRANCH  26  27
ATOM     27  C   UNL     1       6.746   3.801  13.854  0.00  0.00    +0.000 C 
BRANCH  27  29
ATOM     28  C   UNL     1       6.994   3.048  11.454  0.00  0.00    +0.000 C 
ATOM     29  C   UNL     1       6.020   3.465  12.550  0.00  0.00    +0.000 C 
ENDBRANCH  27  29
ENDBRANCH  26  27
ENDBRANCH  24  26
ENDBRANCH   1  24
TORSDOF 7
ENDMDL
MODEL 6
REMARK VINA RESULT:      -6.7      1.869      2.682
REMARK  Name = 
REMARK  8 active torsions:
REMARK  status: ('A' for Active; 'I' for Inactive)
REMARK    1  A    between atoms: C_1  and  C_2
REMARK    2  A    between atoms: C_2  and  C_3
REMARK    3  A    between atoms: C_3  and  C_4
REMARK    4  A    between atoms: C_4  and  S_5
REMARK    5  A    between atoms: S_5  and  C_7
REMARK    6  A    between atoms: C_11  and  C_12
REMARK    7  A    between atoms: C_18  and  C_19
REMARK    8  A    between atoms: C_26  and  N_27
REMARK                            x       y       z     vdW  Elec       q    Type
REMARK                         _______ _______ _______ _____ _____    ______ ____
ROOT
ATOM      1  C   UNL     1       5.035   5.455  16.617  0.00  0.00    +0.000 A 
ATOM      2  S   UNL     1       4.564   7.026  16.162  0.00  0.00    +0.000 S 
ATOM      3  C   UNL     1       3.478   7.153  17.475  0.00  0.00    +0.000 A 
ATOM      4  N   UNL     1       2.854   8.332  17.704  0.00  0.00    +0.000 NA
ATOM      5  C   UNL     1       2.001   8.320  18.748  0.00  0.00    +0.000 A 
ATOM      6  C   UNL     1       1.658   7.170  19.441  0.00  0.00    +0.000 A 
ATOM      7  C   UNL     1       2.319   5.952  19.200  0.00  0.00    +0.000 A 
ATOM      8  C   UNL     1       3.346   5.966  18.201  0.00  0.00    +0.000 A 
ATOM      9  C   UNL     1       4.377   5.037  17.760  0.00  0.00    +0.000 A 
ENDROOT
BRANCH   7  10
ATOM     10  C   UNL     1       1.953   4.751  19.975  0.00  0.00    +0.000 A 
ATOM     11  C   UNL     1       1.066   3.783  19.474  0.00  0.00    +0.000 A 
ATOM     12  C   UNL     1       0.799   2.602  20.172  0.00  0.00    +0.000 A 
ATOM     13  C   UNL     1       1.337   2.405  21.438  0.00  0.00    +0.000 A 
ATOM     14  C   UNL     1       2.135   3.390  22.007  0.00  0.00    +0.000 A 
ATOM     15  C   UNL     1       2.450   4.540  21.278  0.00  0.00    +0.000 A 
ENDBRANCH   7  10
BRANCH   5  16
ATOM     16  C   UNL     1       1.483   9.642  19.152  0.00  0.00    +0.000 A 
ATOM     17  C   UNL     1       0.614   9.969  20.177  0.00  0.00    +0.000 A 
ATOM     18  C   UNL     1       0.322  11.363  20.236  0.00  0.00    +0.000 A 
ATOM     19  C   UNL     1       0.958  12.070  19.241  0.00  0.00    +0.000 A 
ATOM     20  S   UNL     1       1.892  11.055  18.247  0.00  0.00    +0.000 S 
ENDBRANCH   5  16
BRANCH   9  21
ATOM     21  N   UNL     1       4.689   3.883  18.391  0.00  0.00    +0.000 N 
ATOM     22  H   UNL     1       4.949   3.800  19.367  0.00  0.00    +0.000 HD
ATOM     23  H   UNL     1       4.758   3.001  17.866  0.00  0.00    +0.000 HD
ENDBRANCH   9  21
BRANCH   1  24
ATOM     24  S   UNL     1       6.340   4.596  15.806  0.00  0.00    +0.000 S 
ATOM     25  O   UNL     1       6.638   5.334  14.448  0.00  0.00    +0.000 OA
BRANCH  24  26
ATOM     26  C   UNL     1       7.731   4.947  16.939  0.00  0.00    +0.000 C 
BRANCH  26  27
ATOM     27  C   UNL     1       7.731   6.438  17.305  0.00  0.00    +0.000 C 
BRANCH  27  29
ATOM     28  C   UNL     1       7.611   5.488  19.643  0.00  0.00    +0.000 C 
ATOM     29  C   UNL     1       8.023   6.680  18.787  0.00  0.00    +0.000 C 
ENDBRANCH  27  29
ENDBRANCH  26  27
ENDBRANCH  24  26
ENDBRANCH   1  24
TORSDOF 7
ENDMDL
MODEL 7
REMARK VINA RESULT:      -6.4      1.202      1.697
REMARK  Name = 
REMARK  8 active torsions:
REMARK  status: ('A' for Active; 'I' for Inactive)
REMARK    1  A    between atoms: C_1  and  C_2
REMARK    2  A    between atoms: C_2  and  C_3
REMARK    3  A    between atoms: C_3  and  C_4
REMARK    4  A    between atoms: C_4  and  S_5
REMARK    5  A    between atoms: S_5  and  C_7
REMARK    6  A    between atoms: C_11  and  C_12
REMARK    7  A    between atoms: C_18  and  C_19
REMARK    8  A    between atoms: C_26  and  N_27
REMARK                            x       y       z     vdW  Elec       q    Type
REMARK                         _______ _______ _______ _____ _____    ______ ____
ROOT
ATOM      1  C   UNL     1       5.918   6.206  17.642  0.00  0.00    +0.000 A 
ATOM      2  S   UNL     1       5.359   7.638  16.911  0.00  0.00    +0.000 S 
ATOM      3  C   UNL     1       3.858   7.546  17.722  0.00  0.00    +0.000 A 
ATOM      4  N   UNL     1       2.980   8.569  17.604  0.00  0.00    +0.000 NA
ATOM      5  C   UNL     1       1.817   8.387  18.262  0.00  0.00    +0.000 A 
ATOM      6  C   UNL     1       1.468   7.197  18.880  0.00  0.00    +0.000 A 
ATOM      7  C   UNL     1       2.391   6.143  19.004  0.00  0.00    +0.000 A 
ATOM      8  C   UNL     1       3.694   6.364  18.450  0.00  0.00    +0.000 A 
ATOM      9  C   UNL     1       4.973   5.669  18.499  0.00  0.00    +0.000 A 
ENDROOT
BRANCH   7  10
ATOM     10  C   UNL     1       2.000   4.899  19.693  0.00  0.00    +0.000 A 
ATOM     11  C   UNL     1       2.337   4.653  21.035  0.00  0.00    +0.000 A 
ATOM     12  C   UNL     1       1.881   3.517  21.710  0.00  0.00    +0.000 A 
ATOM     13  C   UNL     1       1.157   2.546  21.027  0.00  0.00    +0.000 A 
ATOM     14  C   UNL     1       0.896   2.709  19.672  0.00  0.00    +0.000 A 
ATOM     15  C   UNL     1       1.300   3.877  19.019  0.00  0.00    +0.000 A 
ENDBRANCH   7  10
BRANCH   5  16
ATOM     16  C   UNL     1       0.942   9.574  18.332  0.00  0.00    +0.000 A 
ATOM     17  C   UNL     1      -0.376   9.718  17.938  0.00  0.00    +0.000 A 
ATOM     18  C   UNL     1      -0.876  11.038  18.140  0.00  0.00    +0.000 A 
ATOM     19  C   UNL     1       0.077  11.880  18.666  0.00  0.00    +0.000 A 
ATOM     20  S   UNL     1       1.559  11.082  18.905  0.00  0.00    +0.000 S 
ENDBRANCH   5  16
BRANCH   9  21
ATOM     21  N   UNL     1       5.242   4.612  19.298  0.00  0.00    +0.000 N 
ATOM     22  H   UNL     1       5.920   4.605  20.052  0.00  0.00    +0.000 HD
ATOM     23  H   UNL     1       4.806   3.698  19.121  0.00  0.00    +0.000 HD
ENDBRANCH   9  21
BRANCH   1  24
ATOM     24  S   UNL     1       7.570   5.633  17.441  0.00  0.00    +0.000 S 
ATOM     25  O   UNL     1       8.023   4.971  18.796  0.00  0.00    +0.000 OA
BRANCH  24  26
ATOM     26  C   UNL     1       7.317   4.288  16.230  0.00  0.00    +0.000 C 
BRANCH  26  27
ATOM     27  C   UNL     1       7.000   4.889  14.854  0.00  0.00    +0.000 C 
BRANCH  27  29
ATOM     28  C   UNL     1       4.714   3.907  15.295  0.00  0.00    +0.000 C 
ATOM     29  C   UNL     1       5.733   4.298  14.231  0.00  0.00    +0.000 C 
ENDBRANCH  27  29
ENDBRANCH  26  27
ENDBRANCH  24  26
ENDBRANCH   1  24
TORSDOF 7
ENDMDL
MODEL 8
REMARK VINA RESULT:      -6.3      2.246      3.334
REMARK  Name = 
REMARK  8 active torsions:
REMARK  status: ('A' for Active; 'I' for Inactive)
REMARK    1  A    between atoms: C_1  and  C_2
REMARK    2  A    between atoms: C_2  and  C_3
REMARK    3  A    between atoms: C_3  and  C_4
REMARK    4  A    between atoms: C_4  and  S_5
REMARK    5  A    between atoms: S_5  and  C_7
REMARK    6  A    between atoms: C_11  and  C_12
REMARK    7  A    between atoms: C_18  and  C_19
REMARK    8  A    between atoms: C_26  and  N_27
REMARK                            x       y       z     vdW  Elec       q    Type
REMARK                         _______ _______ _______ _____ _____    ______ ____
ROOT
ATOM      1  C   UNL     1       5.650   6.264  17.489  0.00  0.00    +0.000 A 
ATOM      2  S   UNL     1       5.020   7.659  16.745  0.00  0.00    +0.000 S 
ATOM      3  C   UNL     1       3.562   7.556  17.630  0.00  0.00    +0.000 A 
ATOM      4  N   UNL     1       2.654   8.553  17.525  0.00  0.00    +0.000 NA
ATOM      5  C   UNL     1       1.529   8.363  18.244  0.00  0.00    +0.000 A 
ATOM      6  C   UNL     1       1.240   7.185  18.913  0.00  0.00    +0.000 A 
ATOM      7  C   UNL     1       2.195   6.158  19.023  0.00  0.00    +0.000 A 
ATOM      8  C   UNL     1       3.464   6.393  18.400  0.00  0.00    +0.000 A 
ATOM      9  C   UNL     1       4.761   5.731  18.407  0.00  0.00    +0.000 A 
ENDROOT
BRANCH   7  10
ATOM     10  C   UNL     1       1.869   4.927  19.767  0.00  0.00    +0.000 A 
ATOM     11  C   UNL     1       1.121   3.885  19.192  0.00  0.00    +0.000 A 
ATOM     12  C   UNL     1       0.898   2.682  19.869  0.00  0.00    +0.000 A 
ATOM     13  C   UNL     1       1.334   2.530  21.180  0.00  0.00    +0.000 A 
ATOM     14  C   UNL     1       1.986   3.582  21.814  0.00  0.00    +0.000 A 
ATOM     15  C   UNL     1       2.261   4.757  21.111  0.00  0.00    +0.000 A 
ENDBRANCH   7  10
BRANCH   5  16
ATOM     16  C   UNL     1       0.628   9.531  18.322  0.00  0.00    +0.000 A 
ATOM     17  C   UNL     1      -0.683   9.659  17.897  0.00  0.00    +0.000 A 
ATOM     18  C   UNL     1      -1.215  10.962  18.120  0.00  0.00    +0.000 A 
ATOM     19  C   UNL     1      -0.292  11.810  18.691  0.00  0.00    +0.000 A 
ATOM     20  S   UNL     1       1.199  11.035  18.948  0.00  0.00    +0.000 S 
ENDBRANCH   5  16
BRANCH   9  21
ATOM     21  N   UNL     1       5.094   4.706  19.223  0.00  0.00    +0.000 N 
ATOM     22  H   UNL     1       5.761   3.975  19.003  0.00  0.00    +0.000 HD
ATOM     23  H   UNL     1       4.607   4.569  20.118  0.00  0.00    +0.000 HD
ENDBRANCH   9  21
BRANCH   1  24
ATOM     24  S   UNL     1       7.304   5.726  17.225  0.00  0.00    +0.000 S 
ATOM     25  O   UNL     1       7.725   6.145  15.767  0.00  0.00    +0.000 OA
BRANCH  24  26
ATOM     26  C   UNL     1       8.203   6.811  18.390  0.00  0.00    +0.000 C 
BRANCH  26  27
ATOM     27  C   UNL     1       8.173   8.256  17.872  0.00  0.00    +0.000 C 
BRANCH  27  29
ATOM     28  C   UNL     1       8.955  10.634  18.219  0.00  0.00    +0.000 C 
ATOM     29  C   UNL     1       8.871   9.235  18.818  0.00  0.00    +0.000 C 
ENDBRANCH  27  29
ENDBRANCH  26  27
ENDBRANCH  24  26
ENDBRANCH   1  24
TORSDOF 7
ENDMDL
MODEL 9
REMARK VINA RESULT:      -6.2      1.993      2.969
REMARK  Name = 
REMARK  8 active torsions:
REMARK  status: ('A' for Active; 'I' for Inactive)
REMARK    1  A    between atoms: C_1  and  C_2
REMARK    2  A    between atoms: C_2  and  C_3
REMARK    3  A    between atoms: C_3  and  C_4
REMARK    4  A    between atoms: C_4  and  S_5
REMARK    5  A    between atoms: S_5  and  C_7
REMARK    6  A    between atoms: C_11  and  C_12
REMARK    7  A    between atoms: C_18  and  C_19
REMARK    8  A    between atoms: C_26  and  N_27
REMARK                            x       y       z     vdW  Elec       q    Type
REMARK                         _______ _______ _______ _____ _____    ______ ____
ROOT
ATOM      1  C   UNL     1       4.937   5.867  16.900  0.00  0.00    +0.000 A 
ATOM      2  S   UNL     1       4.348   7.418  16.520  0.00  0.00    +0.000 S 
ATOM      3  C   UNL     1       3.249   7.396  17.828  0.00  0.00    +0.000 A 
ATOM      4  N   UNL     1       2.535   8.510  18.110  0.00  0.00    +0.000 NA
ATOM      5  C   UNL     1       1.680   8.380  19.144  0.00  0.00    +0.000 A 
ATOM      6  C   UNL     1       1.423   7.173  19.776  0.00  0.00    +0.000 A 
ATOM      7  C   UNL     1       2.177   6.023  19.481  0.00  0.00    +0.000 A 
ATOM      8  C   UNL     1       3.205   6.166  18.492  0.00  0.00    +0.000 A 
ATOM      9  C   UNL     1       4.307   5.342  18.015  0.00  0.00    +0.000 A 
ENDROOT
BRANCH   7  10
ATOM     10  C   UNL     1       1.900   4.760  20.191  0.00  0.00    +0.000 A 
ATOM     11  C   UNL     1       2.535   4.431  21.401  0.00  0.00    +0.000 A 
ATOM     12  C   UNL     1       2.198   3.278  22.116  0.00  0.00    +0.000 A 
ATOM     13  C   UNL     1       1.286   2.373  21.587  0.00  0.00    +0.000 A 
ATOM     14  C   UNL     1       0.717   2.617  20.342  0.00  0.00    +0.000 A 
ATOM     15  C   UNL     1       1.011   3.802  19.662  0.00  0.00    +0.000 A 
ENDBRANCH   7  10
BRANCH   5  16
ATOM     16  C   UNL     1       1.060   9.636  19.610  0.00  0.00    +0.000 A 
ATOM     17  C   UNL     1       0.671  10.746  18.881  0.00  0.00    +0.000 A 
ATOM     18  C   UNL     1       0.132  11.785  19.695  0.00  0.00    +0.000 A 
ATOM     19  C   UNL     1       0.139  11.455  21.032  0.00  0.00    +0.000 A 
ATOM     20  S   UNL     1       0.796   9.909  21.294  0.00  0.00    +0.000 S 
ENDBRANCH   5  16
BRANCH   9  21
ATOM     21  N   UNL     1       4.703   4.185  18.590  0.00  0.00    +0.000 N 
ATOM     22  H   UNL     1       5.455   3.592  18.257  0.00  0.00    +0.000 HD
ATOM     23  H   UNL     1       4.186   3.791  19.387  0.00  0.00    +0.000 HD
ENDBRANCH   9  21
BRANCH   1  24
ATOM     24  S   UNL     1       6.307   5.152  16.060  0.00  0.00    +0.000 S 
ATOM     25  O   UNL     1       6.426   5.841  14.648  0.00  0.00    +0.000 OA
BRANCH  24  26
ATOM     26  C   UNL     1       7.690   5.763  17.087  0.00  0.00    +0.000 C 
BRANCH  26  27
ATOM     27  C   UNL     1       7.634   7.295  17.164  0.00  0.00    +0.000 C 
BRANCH  27  29
ATOM     28  C   UNL     1       8.523   9.351  18.334  0.00  0.00    +0.000 C 
ATOM     29  C   UNL     1       8.304   7.846  18.425  0.00  0.00    +0.000 C 
ENDBRANCH  27  29
ENDBRANCH  26  27
ENDBRANCH  24  26
ENDBRANCH   1  24
TORSDOF 7
ENDMDL
