MODEL 1
REMARK VINA RESULT:      -8.7      0.000      0.000
REMARK  Name = 
REMARK  2 active torsions:
REMARK  status: ('A' for Active; 'I' for Inactive)
REMARK    1  A    between atoms: N_10  and  C_11
REMARK    2  A    between atoms: C_15  and  C_16
REMARK                            x       y       z     vdW  Elec       q    Type
REMARK                         _______ _______ _______ _____ _____    ______ ____
ROOT
ATOM      1  C   UNL     1       4.038   4.932  17.257  0.00  0.00    +0.000 C 
ATOM      2  C   UNL     1       3.427   6.149  17.961  0.00  0.00    +0.000 C 
ATOM      3  C   UNL     1       4.165   7.322  17.351  0.00  0.00    +0.000 C 
ATOM      4  C   UNL     1       5.595   6.820  17.191  0.00  0.00    +0.000 C 
ATOM      5  C   UNL     1       5.504   5.296  16.959  0.00  0.00    +0.000 C 
ENDROOT
BRANCH   1  15
ATOM      6  O   UNL     1       5.428   3.839  19.670  0.00  0.00    +0.000 OA
ATOM      7  C   UNL     1       4.416   3.360  19.174  0.00  0.00    +0.000 C 
ATOM      8  C   UNL     1       3.557   2.293  19.841  0.00  0.00    +0.000 C 
ATOM      9  C   UNL     1       2.880   2.765  21.125  0.00  0.00    +0.000 C 
ATOM     10  C   UNL     1       1.572   3.373  20.631  0.00  0.00    +0.000 C 
ATOM     11  C   UNL     1       1.196   2.445  19.480  0.00  0.00    +0.000 C 
ATOM     12  N   UNL     1       2.482   2.127  18.875  0.00  0.00    +0.000 N 
ATOM     13  C   UNL     1       2.752   2.893  17.732  0.00  0.00    +0.000 C 
ATOM     14  O   UNL     1       2.030   2.936  16.750  0.00  0.00    +0.000 OA
ATOM     15  N   UNL     1       3.829   3.694  17.992  0.00  0.00    +0.000 N 
ENDBRANCH   1  15
BRANCH   5  16
ATOM     16  C   UNL     1       5.909   4.899  15.545  0.00  0.00    +0.000 A 
ATOM     17  C   UNL     1       7.162   5.281  15.039  0.00  0.00    +0.000 A 
ATOM     18  C   UNL     1       7.553   4.901  13.753  0.00  0.00    +0.000 A 
ATOM     19  C   UNL     1       6.699   4.135  12.970  0.00  0.00    +0.000 A 
ATOM     20  F   UNL     1       7.079   3.769  11.738  0.00  0.00    +0.000 F 
ATOM     21  C   UNL     1       5.457   3.744  13.446  0.00  0.00    +0.000 A 
ATOM     22  C   UNL     1       5.060   4.129  14.726  0.00  0.00    +0.000 A 
ENDBRANCH   5  16
TORSDOF 2
ENDMDL
MODEL 2
REMARK VINA RESULT:      -8.7      0.055      1.031
REMARK  Name = 
REMARK  2 active torsions:
REMARK  status: ('A' for Active; 'I' for Inactive)
REMARK    1  A    between atoms: N_10  and  C_11
REMARK    2  A    between atoms: C_15  and  C_16
REMARK                            x       y       z     vdW  Elec       q    Type
REMARK                         _______ _______ _______ _____ _____    ______ ____
ROOT
ATOM      1  C   UNL     1       4.062   4.929  17.234  0.00  0.00    +0.000 C 
ATOM      2  C   UNL     1       3.443   6.154  17.916  0.00  0.00    +0.000 C 
ATOM      3  C   UNL     1       4.205   7.319  17.319  0.00  0.00    +0.000 C 
ATOM      4  C   UNL     1       5.635   6.805  17.198  0.00  0.00    +0.000 C 
ATOM      5  C   UNL     1       5.538   5.280  16.972  0.00  0.00    +0.000 C 
ENDROOT
BRANCH   1  15
ATOM      6  O   UNL     1       5.440   3.797  19.636  0.00  0.00    +0.000 OA
ATOM      7  C   UNL     1       4.412   3.346  19.148  0.00  0.00    +0.000 C 
ATOM      8  C   UNL     1       3.529   2.303  19.821  0.00  0.00    +0.000 C 
ATOM      9  C   UNL     1       2.875   2.792  21.110  0.00  0.00    +0.000 C 
ATOM     10  C   UNL     1       1.580   3.435  20.627  0.00  0.00    +0.000 C 
ATOM     11  C   UNL     1       1.171   2.519  19.478  0.00  0.00    +0.000 C 
ATOM     12  N   UNL     1       2.443   2.166  18.863  0.00  0.00    +0.000 N 
ATOM     13  C   UNL     1       2.724   2.925  17.718  0.00  0.00    +0.000 C 
ATOM     14  O   UNL     1       1.997   2.989  16.741  0.00  0.00    +0.000 OA
ATOM     15  N   UNL     1       3.825   3.697  17.970  0.00  0.00    +0.000 N 
ENDBRANCH   1  15
BRANCH   5  16
ATOM     16  C   UNL     1       5.976   4.872  15.570  0.00  0.00    +0.000 A 
ATOM     17  C   UNL     1       5.134   4.079  14.774  0.00  0.00    +0.000 A 
ATOM     18  C   UNL     1       5.515   3.720  13.479  0.00  0.00    +0.000 A 
ATOM     19  C   UNL     1       6.732   4.156  12.971  0.00  0.00    +0.000 A 
ATOM     20  F   UNL     1       7.092   3.814  11.727  0.00  0.00    +0.000 F 
ATOM     21  C   UNL     1       7.581   4.941  13.737  0.00  0.00    +0.000 A 
ATOM     22  C   UNL     1       7.208   5.293  15.033  0.00  0.00    +0.000 A 
ENDBRANCH   5  16
TORSDOF 2
ENDMDL
MODEL 3
REMARK VINA RESULT:      -8.1      3.819      6.498
REMARK  Name = 
REMARK  2 active torsions:
REMARK  status: ('A' for Active; 'I' for Inactive)
REMARK    1  A    between atoms: N_10  and  C_11
REMARK    2  A    between atoms: C_15  and  C_16
REMARK                            x       y       z     vdW  Elec       q    Type
REMARK                         _______ _______ _______ _____ _____    ______ ____
ROOT
ATOM      1  C   UNL     1       3.469   5.908  17.895  0.00  0.00    +0.000 C 
ATOM      2  C   UNL     1       3.122   4.438  17.634  0.00  0.00    +0.000 C 
ATOM      3  C   UNL     1       1.784   4.260  18.322  0.00  0.00    +0.000 C 
ATOM      4  C   UNL     1       1.905   5.093  19.593  0.00  0.00    +0.000 C 
ATOM      5  C   UNL     1       2.864   6.259  19.266  0.00  0.00    +0.000 C 
ENDROOT
BRANCH   1  15
ATOM      6  O   UNL     1       5.781   5.313  19.697  0.00  0.00    +0.000 OA
ATOM      7  C   UNL     1       5.884   5.736  18.552  0.00  0.00    +0.000 C 
ATOM      8  C   UNL     1       7.190   5.787  17.770  0.00  0.00    +0.000 C 
ATOM      9  C   UNL     1       7.779   4.411  17.469  0.00  0.00    +0.000 C 
ATOM     10  C   UNL     1       7.118   4.024  16.152  0.00  0.00    +0.000 C 
ATOM     11  C   UNL     1       7.043   5.360  15.420  0.00  0.00    +0.000 C 
ATOM     12  N   UNL     1       6.750   6.308  16.485  0.00  0.00    +0.000 N 
ATOM     13  C   UNL     1       5.391   6.648  16.554  0.00  0.00    +0.000 C 
ATOM     14  O   UNL     1       4.756   7.124  15.628  0.00  0.00    +0.000 OA
ATOM     15  N   UNL     1       4.888   6.186  17.739  0.00  0.00    +0.000 N 
ENDBRANCH   1  15
BRANCH   5  16
ATOM     16  C   UNL     1       2.151   7.606  19.242  0.00  0.00    +0.000 A 
ATOM     17  C   UNL     1       2.054   8.328  18.041  0.00  0.00    +0.000 A 
ATOM     18  C   UNL     1       1.381   9.552  18.003  0.00  0.00    +0.000 A 
ATOM     19  C   UNL     1       0.799  10.056  19.159  0.00  0.00    +0.000 A 
ATOM     20  F   UNL     1       0.151  11.228  19.117  0.00  0.00    +0.000 F 
ATOM     21  C   UNL     1       0.881   9.363  20.357  0.00  0.00    +0.000 A 
ATOM     22  C   UNL     1       1.559   8.145  20.400  0.00  0.00    +0.000 A 
ENDBRANCH   5  16
TORSDOF 2
ENDMDL
MODEL 4
REMARK VINA RESULT:      -8.1      3.833      6.528
REMARK  Name = 
REMARK  2 active torsions:
REMARK  status: ('A' for Active; 'I' for Inactive)
REMARK    1  A    between atoms: N_10  and  C_11
REMARK    2  A    between atoms: C_15  and  C_16
REMARK                            x       y       z     vdW  Elec       q    Type
REMARK                         _______ _______ _______ _____ _____    ______ ____
ROOT
ATOM      1  C   UNL     1       3.425   5.836  18.141  0.00  0.00    +0.000 C 
ATOM      2  C   UNL     1       3.110   4.342  18.007  0.00  0.00    +0.000 C 
ATOM      3  C   UNL     1       1.802   4.184  18.757  0.00  0.00    +0.000 C 
ATOM      4  C   UNL     1       1.945   5.117  19.954  0.00  0.00    +0.000 C 
ATOM      5  C   UNL     1       2.859   6.277  19.503  0.00  0.00    +0.000 C 
ENDROOT
BRANCH   1  15
ATOM      6  O   UNL     1       5.845   5.218  19.787  0.00  0.00    +0.000 OA
ATOM      7  C   UNL     1       5.875   5.675  18.651  0.00  0.00    +0.000 C 
ATOM      8  C   UNL     1       7.133   5.764  17.796  0.00  0.00    +0.000 C 
ATOM      9  C   UNL     1       7.718   4.406  17.421  0.00  0.00    +0.000 C 
ATOM     10  C   UNL     1       6.985   4.047  16.134  0.00  0.00    +0.000 C 
ATOM     11  C   UNL     1       6.853   5.403  15.447  0.00  0.00    +0.000 C 
ATOM     12  N   UNL     1       6.613   6.317  16.555  0.00  0.00    +0.000 N 
ATOM     13  C   UNL     1       5.257   6.637  16.712  0.00  0.00    +0.000 C 
ATOM     14  O   UNL     1       4.563   7.132  15.839  0.00  0.00    +0.000 OA
ATOM     15  N   UNL     1       4.829   6.136  17.911  0.00  0.00    +0.000 N 
ENDBRANCH   1  15
BRANCH   5  16
ATOM     16  C   UNL     1       2.110   7.600  19.402  0.00  0.00    +0.000 A 
ATOM     17  C   UNL     1       1.467   8.132  20.532  0.00  0.00    +0.000 A 
ATOM     18  C   UNL     1       0.798   9.356  20.456  0.00  0.00    +0.000 A 
ATOM     19  C   UNL     1       0.772  10.056  19.256  0.00  0.00    +0.000 A 
ATOM     20  F   UNL     1       0.133  11.231  19.189  0.00  0.00    +0.000 F 
ATOM     21  C   UNL     1       1.399   9.552  18.126  0.00  0.00    +0.000 A 
ATOM     22  C   UNL     1       2.060   8.327  18.197  0.00  0.00    +0.000 A 
ENDBRANCH   5  16
TORSDOF 2
ENDMDL
MODEL 5
REMARK VINA RESULT:      -8.0      3.094      5.998
REMARK  Name = 
REMARK  2 active torsions:
REMARK  status: ('A' for Active; 'I' for Inactive)
REMARK    1  A    between atoms: N_10  and  C_11
REMARK    2  A    between atoms: C_15  and  C_16
REMARK                            x       y       z     vdW  Elec       q    Type
REMARK                         _______ _______ _______ _____ _____    ______ ____
ROOT
ATOM      1  C   UNL     1       3.313   4.212  17.733  0.00  0.00    +0.000 C 
ATOM      2  C   UNL     1       2.604   2.863  17.568  0.00  0.00    +0.000 C 
ATOM      3  C   UNL     1       1.314   3.039  18.342  0.00  0.00    +0.000 C 
ATOM      4  C   UNL     1       1.720   3.861  19.560  0.00  0.00    +0.000 C 
ATOM      5  C   UNL     1       2.906   4.746  19.119  0.00  0.00    +0.000 C 
ENDROOT
BRANCH   1  15
ATOM      6  O   UNL     1       4.863   4.527  15.195  0.00  0.00    +0.000 OA
ATOM      7  C   UNL     1       5.364   4.442  16.309  0.00  0.00    +0.000 C 
ATOM      8  C   UNL     1       6.827   4.736  16.616  0.00  0.00    +0.000 C 
ATOM      9  C   UNL     1       7.220   6.193  16.391  0.00  0.00    +0.000 C 
ATOM     10  C   UNL     1       6.906   6.854  17.728  0.00  0.00    +0.000 C 
ATOM     11  C   UNL     1       7.287   5.766  18.727  0.00  0.00    +0.000 C 
ATOM     12  N   UNL     1       6.876   4.540  18.057  0.00  0.00    +0.000 N 
ATOM     13  C   UNL     1       5.639   4.060  18.510  0.00  0.00    +0.000 C 
ATOM     14  O   UNL     1       5.393   3.790  19.674  0.00  0.00    +0.000 OA
ATOM     15  N   UNL     1       4.743   4.130  17.480  0.00  0.00    +0.000 N 
ENDBRANCH   1  15
BRANCH   5  16
ATOM     16  C   UNL     1       2.540   6.225  19.070  0.00  0.00    +0.000 A 
ATOM     17  C   UNL     1       2.749   6.961  17.893  0.00  0.00    +0.000 A 
ATOM     18  C   UNL     1       2.393   8.311  17.829  0.00  0.00    +0.000 A 
ATOM     19  C   UNL     1       1.822   8.928  18.935  0.00  0.00    +0.000 A 
ATOM     20  F   UNL     1       1.478  10.221  18.868  0.00  0.00    +0.000 F 
ATOM     21  C   UNL     1       1.605   8.222  20.109  0.00  0.00    +0.000 A 
ATOM     22  C   UNL     1       1.967   6.878  20.178  0.00  0.00    +0.000 A 
ENDBRANCH   5  16
TORSDOF 2
ENDMDL
MODEL 6
REMARK VINA RESULT:      -8.0      3.087      6.015
REMARK  Name = 
REMARK  2 active torsions:
REMARK  status: ('A' for Active; 'I' for Inactive)
REMARK    1  A    between atoms: N_10  and  C_11
REMARK    2  A    between atoms: C_15  and  C_16
REMARK                            x       y       z     vdW  Elec       q    Type
REMARK                         _______ _______ _______ _____ _____    ______ ____
ROOT
ATOM      1  C   UNL     1       3.310   4.155  17.731  0.00  0.00    +0.000 C 
ATOM      2  C   UNL     1       2.621   2.794  17.580  0.00  0.00    +0.000 C 
ATOM      3  C   UNL     1       1.331   2.959  18.357  0.00  0.00    +0.000 C 
ATOM      4  C   UNL     1       1.729   3.798  19.566  0.00  0.00    +0.000 C 
ATOM      5  C   UNL     1       2.901   4.697  19.113  0.00  0.00    +0.000 C 
ENDROOT
BRANCH   1  15
ATOM      6  O   UNL     1       4.848   4.475  15.185  0.00  0.00    +0.000 OA
ATOM      7  C   UNL     1       5.353   4.405  16.298  0.00  0.00    +0.000 C 
ATOM      8  C   UNL     1       6.812   4.722  16.598  0.00  0.00    +0.000 C 
ATOM      9  C   UNL     1       7.185   6.183  16.363  0.00  0.00    +0.000 C 
ATOM     10  C   UNL     1       6.866   6.848  17.697  0.00  0.00    +0.000 C 
ATOM     11  C   UNL     1       7.266   5.771  18.701  0.00  0.00    +0.000 C 
ATOM     12  N   UNL     1       6.869   4.535  18.040  0.00  0.00    +0.000 N 
ATOM     13  C   UNL     1       5.641   4.041  18.501  0.00  0.00    +0.000 C 
ATOM     14  O   UNL     1       5.402   3.775  19.667  0.00  0.00    +0.000 OA
ATOM     15  N   UNL     1       4.740   4.092  17.473  0.00  0.00    +0.000 N 
ENDBRANCH   1  15
BRANCH   5  16
ATOM     16  C   UNL     1       2.512   6.169  19.051  0.00  0.00    +0.000 A 
ATOM     17  C   UNL     1       1.961   6.798  20.179  0.00  0.00    +0.000 A 
ATOM     18  C   UNL     1       1.624   8.154  20.140  0.00  0.00    +0.000 A 
ATOM     19  C   UNL     1       1.841   8.886  18.980  0.00  0.00    +0.000 A 
ATOM     20  F   UNL     1       1.521  10.187  18.948  0.00  0.00    +0.000 F 
ATOM     21  C   UNL     1       2.385   8.288  17.853  0.00  0.00    +0.000 A 
ATOM     22  C   UNL     1       2.714   6.934  17.886  0.00  0.00    +0.000 A 
ENDBRANCH   5  16
TORSDOF 2
ENDMDL
MODEL 7
REMARK VINA RESULT:      -7.9      3.234      4.782
REMARK  Name = 
REMARK  2 active torsions:
REMARK  status: ('A' for Active; 'I' for Inactive)
REMARK    1  A    between atoms: N_10  and  C_11
REMARK    2  A    between atoms: C_15  and  C_16
REMARK                            x       y       z     vdW  Elec       q    Type
REMARK                         _______ _______ _______ _____ _____    ______ ____
ROOT
ATOM      1  C   UNL     1       4.513   4.912  18.251  0.00  0.00    +0.000 C 
ATOM      2  C   UNL     1       5.908   4.771  17.630  0.00  0.00    +0.000 C 
ATOM      3  C   UNL     1       6.160   6.127  17.005  0.00  0.00    +0.000 C 
ATOM      4  C   UNL     1       4.804   6.535  16.441  0.00  0.00    +0.000 C 
ATOM      5  C   UNL     1       3.735   5.888  17.348  0.00  0.00    +0.000 C 
ENDROOT
BRANCH   1  15
ATOM      6  O   UNL     1       4.933   2.910  20.433  0.00  0.00    +0.000 OA
ATOM      7  C   UNL     1       4.030   2.859  19.608  0.00  0.00    +0.000 C 
ATOM      8  C   UNL     1       2.831   1.925  19.705  0.00  0.00    +0.000 C 
ATOM      9  C   UNL     1       1.923   2.214  20.897  0.00  0.00    +0.000 C 
ATOM     10  C   UNL     1       0.948   3.251  20.354  0.00  0.00    +0.000 C 
ATOM     11  C   UNL     1       0.742   2.783  18.916  0.00  0.00    +0.000 C 
ATOM     12  N   UNL     1       2.061   2.302  18.530  0.00  0.00    +0.000 N 
ATOM     13  C   UNL     1       2.782   3.235  17.773  0.00  0.00    +0.000 C 
ATOM     14  O   UNL     1       2.388   3.719  16.724  0.00  0.00    +0.000 OA
ATOM     15  N   UNL     1       3.874   3.629  18.495  0.00  0.00    +0.000 N 
ENDBRANCH   1  15
BRANCH   5  16
ATOM     16  C   UNL     1       2.965   6.919  18.164  0.00  0.00    +0.000 A 
ATOM     17  C   UNL     1       2.594   8.142  17.580  0.00  0.00    +0.000 A 
ATOM     18  C   UNL     1       1.867   9.084  18.311  0.00  0.00    +0.000 A 
ATOM     19  C   UNL     1       1.501   8.809  19.623  0.00  0.00    +0.000 A 
ATOM     20  F   UNL     1       0.800   9.713  20.319  0.00  0.00    +0.000 F 
ATOM     21  C   UNL     1       1.855   7.609  20.222  0.00  0.00    +0.000 A 
ATOM     22  C   UNL     1       2.589   6.670  19.498  0.00  0.00    +0.000 A 
ENDBRANCH   5  16
TORSDOF 2
ENDMDL
MODEL 8
REMARK VINA RESULT:      -7.9      3.247      4.803
REMARK  Name = 
REMARK  2 active torsions:
REMARK  status: ('A' for Active; 'I' for Inactive)
REMARK    1  A    between atoms: N_10  and  C_11
REMARK    2  A    between atoms: C_15  and  C_16
REMARK                            x       y       z     vdW  Elec       q    Type
REMARK                         _______ _______ _______ _____ _____    ______ ____
ROOT
ATOM      1  C   UNL     1       4.499   4.932  18.277  0.00  0.00    +0.000 C 
ATOM      2  C   UNL     1       5.908   4.796  17.690  0.00  0.00    +0.000 C 
ATOM      3  C   UNL     1       6.165   6.149  17.060  0.00  0.00    +0.000 C 
ATOM      4  C   UNL     1       4.820   6.541  16.460  0.00  0.00    +0.000 C 
ATOM      5  C   UNL     1       3.735   5.894  17.348  0.00  0.00    +0.000 C 
ENDROOT
BRANCH   1  15
ATOM      6  O   UNL     1       4.910   2.936  20.466  0.00  0.00    +0.000 OA
ATOM      7  C   UNL     1       4.013   2.879  19.634  0.00  0.00    +0.000 C 
ATOM      8  C   UNL     1       2.818   1.939  19.723  0.00  0.00    +0.000 C 
ATOM      9  C   UNL     1       1.898   2.226  20.906  0.00  0.00    +0.000 C 
ATOM     10  C   UNL     1       0.923   3.259  20.353  0.00  0.00    +0.000 C 
ATOM     11  C   UNL     1       0.732   2.787  18.915  0.00  0.00    +0.000 C 
ATOM     12  N   UNL     1       2.056   2.311  18.541  0.00  0.00    +0.000 N 
ATOM     13  C   UNL     1       2.779   3.247  17.788  0.00  0.00    +0.000 C 
ATOM     14  O   UNL     1       2.392   3.727  16.735  0.00  0.00    +0.000 OA
ATOM     15  N   UNL     1       3.864   3.646  18.518  0.00  0.00    +0.000 N 
ENDBRANCH   1  15
BRANCH   5  16
ATOM     16  C   UNL     1       2.938   6.927  18.136  0.00  0.00    +0.000 A 
ATOM     17  C   UNL     1       2.584   6.673  19.471  0.00  0.00    +0.000 A 
ATOM     18  C   UNL     1       1.875   7.624  20.209  0.00  0.00    +0.000 A 
ATOM     19  C   UNL     1       1.523   8.832  19.622  0.00  0.00    +0.000 A 
ATOM     20  F   UNL     1       0.847   9.743  20.335  0.00  0.00    +0.000 F 
ATOM     21  C   UNL     1       1.861   9.108  18.306  0.00  0.00    +0.000 A 
ATOM     22  C   UNL     1       2.561   8.157  17.564  0.00  0.00    +0.000 A 
ENDBRANCH   5  16
TORSDOF 2
ENDMDL
MODEL 9
REMARK VINA RESULT:      -7.8      3.124      6.142
REMARK  Name = 
REMARK  2 active torsions:
REMARK  status: ('A' for Active; 'I' for Inactive)
REMARK    1  A    between atoms: N_10  and  C_11
REMARK    2  A    between atoms: C_15  and  C_16
REMARK                            x       y       z     vdW  Elec       q    Type
REMARK                         _______ _______ _______ _____ _____    ______ ____
ROOT
ATOM      1  C   UNL     1       2.808   4.449  18.965  0.00  0.00    +0.000 C 
ATOM      2  C   UNL     1       2.255   3.185  19.634  0.00  0.00    +0.000 C 
ATOM      3  C   UNL     1       1.327   3.723  20.703  0.00  0.00    +0.000 C 
ATOM      4  C   UNL     1       2.050   4.955  21.238  0.00  0.00    +0.000 C 
ATOM      5  C   UNL     1       2.877   5.525  20.064  0.00  0.00    +0.000 C 
ENDROOT
BRANCH   1  15
ATOM      6  O   UNL     1       3.277   3.254  16.263  0.00  0.00    +0.000 OA
ATOM      7  C   UNL     1       4.140   3.795  16.943  0.00  0.00    +0.000 C 
ATOM      8  C   UNL     1       5.523   4.175  16.430  0.00  0.00    +0.000 C 
ATOM      9  C   UNL     1       5.501   5.248  15.345  0.00  0.00    +0.000 C 
ATOM     10  C   UNL     1       5.542   6.550  16.135  0.00  0.00    +0.000 C 
ATOM     11  C   UNL     1       6.464   6.197  17.298  0.00  0.00    +0.000 C 
ATOM     12  N   UNL     1       6.109   4.816  17.597  0.00  0.00    +0.000 N 
ATOM     13  C   UNL     1       5.236   4.702  18.688  0.00  0.00    +0.000 C 
ATOM     14  O   UNL     1       5.472   5.135  19.804  0.00  0.00    +0.000 OA
ATOM     15  N   UNL     1       4.044   4.206  18.238  0.00  0.00    +0.000 N 
ENDBRANCH   1  15
BRANCH   5  16
ATOM     16  C   UNL     1       2.342   6.866  19.577  0.00  0.00    +0.000 A 
ATOM     17  C   UNL     1       1.678   7.724  20.468  0.00  0.00    +0.000 A 
ATOM     18  C   UNL     1       1.207   8.967  20.037  0.00  0.00    +0.000 A 
ATOM     19  C   UNL     1       1.401   9.360  18.719  0.00  0.00    +0.000 A 
ATOM     20  F   UNL     1       0.951  10.554  18.311  0.00  0.00    +0.000 F 
ATOM     21  C   UNL     1       2.054   8.531  17.819  0.00  0.00    +0.000 A 
ATOM     22  C   UNL     1       2.518   7.287  18.244  0.00  0.00    +0.000 A 
ENDBRANCH   5  16
TORSDOF 2
ENDMDL
