MODEL 1
REMARK VINA RESULT:      -6.6      0.000      0.000
REMARK  Name = 
REMARK  4 active torsions:
REMARK  status: ('A' for Active; 'I' for Inactive)
REMARK    1  A    between atoms: C_1  and  C_2
REMARK    2  A    between atoms: C_2  and  C_3
REMARK    3  A    between atoms: C_5  and  C_6
REMARK    4  A    between atoms: N_10  and  C_11
REMARK                            x       y       z     vdW  Elec       q    Type
REMARK                         _______ _______ _______ _____ _____    ______ ____
ROOT
ATOM      1  C   UNL     1       3.235   6.885  18.005  0.00  0.00    +0.000 A 
ATOM      2  N   UNL     1       4.073   7.228  17.040  0.00  0.00    +0.000 NA
ATOM      3  C   UNL     1       4.653   6.076  16.598  0.00  0.00    +0.000 A 
ATOM      4  C   UNL     1       5.671   6.105  15.524  0.00  0.00    +0.000 C 
ATOM      5  C   UNL     1       4.154   4.999  17.294  0.00  0.00    +0.000 A 
ATOM      6  C   UNL     1       4.480   3.611  17.175  0.00  0.00    +0.000 A 
ATOM      7  O   UNL     1       5.309   3.200  16.364  0.00  0.00    +0.000 OA
ATOM      8  N   UNL     1       3.795   2.760  18.043  0.00  0.00    +0.000 N 
ATOM      9  C   UNL     1       4.095   1.338  17.975  0.00  0.00    +0.000 C 
ATOM     10  C   UNL     1       2.818   3.248  18.970  0.00  0.00    +0.000 A 
ATOM     11  C   UNL     1       2.136   2.361  19.821  0.00  0.00    +0.000 A 
ATOM     12  C   UNL     1       1.175   2.820  20.721  0.00  0.00    +0.000 A 
ATOM     13  C   UNL     1       0.877   4.174  20.782  0.00  0.00    +0.000 A 
ATOM     14  C   UNL     1       1.541   5.079  19.949  0.00  0.00    +0.000 A 
ATOM     15  C   UNL     1       2.515   4.629  19.048  0.00  0.00    +0.000 A 
ATOM     16  N   UNL     1       3.231   5.500  18.184  0.00  0.00    +0.000 N 
ENDROOT
BRANCH   1  18
ATOM     17  C   UNL     1       1.757   8.910  17.863  0.00  0.00    +0.000 C 
ATOM     18  C   UNL     1       2.447   7.897  18.775  0.00  0.00    +0.000 C 
ENDBRANCH   1  18
TORSDOF 1
ENDMDL
MODEL 2
REMARK VINA RESULT:      -6.2      1.602      4.171
REMARK  Name = 
REMARK  4 active torsions:
REMARK  status: ('A' for Active; 'I' for Inactive)
REMARK    1  A    between atoms: C_1  and  C_2
REMARK    2  A    between atoms: C_2  and  C_3
REMARK    3  A    between atoms: C_5  and  C_6
REMARK    4  A    between atoms: N_10  and  C_11
REMARK                            x       y       z     vdW  Elec       q    Type
REMARK                         _______ _______ _______ _____ _____    ______ ____
ROOT
ATOM      1  C   UNL     1       2.194   6.097  19.925  0.00  0.00    +0.000 A 
ATOM      2  N   UNL     1       1.562   5.394  20.850  0.00  0.00    +0.000 NA
ATOM      3  C   UNL     1       1.806   4.081  20.578  0.00  0.00    +0.000 A 
ATOM      4  C   UNL     1       1.219   3.012  21.417  0.00  0.00    +0.000 C 
ATOM      5  C   UNL     1       2.616   3.971  19.471  0.00  0.00    +0.000 A 
ATOM      6  C   UNL     1       3.114   2.796  18.823  0.00  0.00    +0.000 A 
ATOM      7  O   UNL     1       2.851   1.664  19.227  0.00  0.00    +0.000 OA
ATOM      8  N   UNL     1       3.914   3.026  17.703  0.00  0.00    +0.000 N 
ATOM      9  C   UNL     1       4.440   1.867  16.997  0.00  0.00    +0.000 C 
ATOM     10  C   UNL     1       4.229   4.349  17.254  0.00  0.00    +0.000 A 
ATOM     11  C   UNL     1       5.050   4.544  16.130  0.00  0.00    +0.000 A 
ATOM     12  C   UNL     1       5.375   5.826  15.687  0.00  0.00    +0.000 A 
ATOM     13  C   UNL     1       4.885   6.935  16.364  0.00  0.00    +0.000 A 
ATOM     14  C   UNL     1       4.064   6.770  17.483  0.00  0.00    +0.000 A 
ATOM     15  C   UNL     1       3.726   5.487  17.931  0.00  0.00    +0.000 A 
ATOM     16  N   UNL     1       2.888   5.255  19.055  0.00  0.00    +0.000 N 
ENDROOT
BRANCH   1  18
ATOM     17  C   UNL     1       1.276   8.173  21.001  0.00  0.00    +0.000 C 
ATOM     18  C   UNL     1       2.115   7.590  19.865  0.00  0.00    +0.000 C 
ENDBRANCH   1  18
TORSDOF 1
ENDMDL
MODEL 3
REMARK VINA RESULT:      -6.2      1.390      4.030
REMARK  Name = 
REMARK  4 active torsions:
REMARK  status: ('A' for Active; 'I' for Inactive)
REMARK    1  A    between atoms: C_1  and  C_2
REMARK    2  A    between atoms: C_2  and  C_3
REMARK    3  A    between atoms: C_5  and  C_6
REMARK    4  A    between atoms: N_10  and  C_11
REMARK                            x       y       z     vdW  Elec       q    Type
REMARK                         _______ _______ _______ _____ _____    ______ ____
ROOT
ATOM      1  C   UNL     1       2.939   6.883  18.434  0.00  0.00    +0.000 A 
ATOM      2  N   UNL     1       2.157   6.776  19.495  0.00  0.00    +0.000 NA
ATOM      3  C   UNL     1       2.109   5.452  19.813  0.00  0.00    +0.000 A 
ATOM      4  C   UNL     1       1.292   4.976  20.953  0.00  0.00    +0.000 C 
ATOM      5  C   UNL     1       2.886   4.728  18.939  0.00  0.00    +0.000 A 
ATOM      6  C   UNL     1       3.120   3.317  18.886  0.00  0.00    +0.000 A 
ATOM      7  O   UNL     1       2.610   2.538  19.690  0.00  0.00    +0.000 OA
ATOM      8  N   UNL     1       3.963   2.890  17.859  0.00  0.00    +0.000 N 
ATOM      9  C   UNL     1       4.227   1.463  17.749  0.00  0.00    +0.000 C 
ATOM     10  C   UNL     1       4.566   3.809  16.940  0.00  0.00    +0.000 A 
ATOM     11  C   UNL     1       5.421   3.345  15.926  0.00  0.00    +0.000 A 
ATOM     12  C   UNL     1       6.024   4.228  15.031  0.00  0.00    +0.000 A 
ATOM     13  C   UNL     1       5.784   5.591  15.138  0.00  0.00    +0.000 A 
ATOM     14  C   UNL     1       4.936   6.079  16.136  0.00  0.00    +0.000 A 
ATOM     15  C   UNL     1       4.318   5.200  17.034  0.00  0.00    +0.000 A 
ATOM     16  N   UNL     1       3.439   5.634  18.062  0.00  0.00    +0.000 N 
ENDROOT
BRANCH   1  18
ATOM     17  C   UNL     1       1.952   9.087  17.743  0.00  0.00    +0.000 C 
ATOM     18  C   UNL     1       3.191   8.194  17.757  0.00  0.00    +0.000 C 
ENDBRANCH   1  18
TORSDOF 1
ENDMDL
MODEL 4
REMARK VINA RESULT:      -6.1      1.086      4.290
REMARK  Name = 
REMARK  4 active torsions:
REMARK  status: ('A' for Active; 'I' for Inactive)
REMARK    1  A    between atoms: C_1  and  C_2
REMARK    2  A    between atoms: C_2  and  C_3
REMARK    3  A    between atoms: C_5  and  C_6
REMARK    4  A    between atoms: N_10  and  C_11
REMARK                            x       y       z     vdW  Elec       q    Type
REMARK                         _______ _______ _______ _____ _____    ______ ____
ROOT
ATOM      1  C   UNL     1       2.228   3.399  19.648  0.00  0.00    +0.000 A 
ATOM      2  N   UNL     1       2.663   2.171  19.418  0.00  0.00    +0.000 NA
ATOM      3  C   UNL     1       3.571   2.262  18.405  0.00  0.00    +0.000 A 
ATOM      4  C   UNL     1       4.241   1.052  17.878  0.00  0.00    +0.000 C 
ATOM      5  C   UNL     1       3.708   3.573  18.010  0.00  0.00    +0.000 A 
ATOM      6  C   UNL     1       4.534   4.131  16.983  0.00  0.00    +0.000 A 
ATOM      7  O   UNL     1       5.275   3.435  16.289  0.00  0.00    +0.000 OA
ATOM      8  N   UNL     1       4.436   5.513  16.824  0.00  0.00    +0.000 N 
ATOM      9  C   UNL     1       5.245   6.134  15.785  0.00  0.00    +0.000 C 
ATOM     10  C   UNL     1       3.584   6.314  17.651  0.00  0.00    +0.000 A 
ATOM     11  C   UNL     1       3.521   7.707  17.472  0.00  0.00    +0.000 A 
ATOM     12  C   UNL     1       2.705   8.502  18.276  0.00  0.00    +0.000 A 
ATOM     13  C   UNL     1       1.940   7.916  19.275  0.00  0.00    +0.000 A 
ATOM     14  C   UNL     1       1.982   6.533  19.473  0.00  0.00    +0.000 A 
ATOM     15  C   UNL     1       2.791   5.725  18.665  0.00  0.00    +0.000 A 
ATOM     16  N   UNL     1       2.868   4.314  18.811  0.00  0.00    +0.000 N 
ENDROOT
BRANCH   1  18
ATOM     17  C   UNL     1       1.286   2.794  21.897  0.00  0.00    +0.000 C 
ATOM     18  C   UNL     1       1.171   3.693  20.666  0.00  0.00    +0.000 C 
ENDBRANCH   1  18
TORSDOF 1
ENDMDL
MODEL 5
REMARK VINA RESULT:      -6.1      1.311      1.311
REMARK  Name = 
REMARK  4 active torsions:
REMARK  status: ('A' for Active; 'I' for Inactive)
REMARK    1  A    between atoms: C_1  and  C_2
REMARK    2  A    between atoms: C_2  and  C_3
REMARK    3  A    between atoms: C_5  and  C_6
REMARK    4  A    between atoms: N_10  and  C_11
REMARK                            x       y       z     vdW  Elec       q    Type
REMARK                         _______ _______ _______ _____ _____    ______ ____
ROOT
ATOM      1  C   UNL     1       3.180   6.944  18.094  0.00  0.00    +0.000 A 
ATOM      2  N   UNL     1       4.247   7.374  17.440  0.00  0.00    +0.000 NA
ATOM      3  C   UNL     1       5.215   6.430  17.610  0.00  0.00    +0.000 A 
ATOM      4  C   UNL     1       6.561   6.611  17.020  0.00  0.00    +0.000 C 
ATOM      5  C   UNL     1       4.733   5.391  18.372  0.00  0.00    +0.000 A 
ATOM      6  C   UNL     1       5.397   4.199  18.807  0.00  0.00    +0.000 A 
ATOM      7  O   UNL     1       6.567   3.958  18.516  0.00  0.00    +0.000 OA
ATOM      8  N   UNL     1       4.624   3.337  19.586  0.00  0.00    +0.000 N 
ATOM      9  C   UNL     1       5.251   2.114  20.067  0.00  0.00    +0.000 C 
ATOM     10  C   UNL     1       3.256   3.620  19.903  0.00  0.00    +0.000 A 
ATOM     11  C   UNL     1       2.503   2.721  20.678  0.00  0.00    +0.000 A 
ATOM     12  C   UNL     1       1.168   2.977  20.986  0.00  0.00    +0.000 A 
ATOM     13  C   UNL     1       0.562   4.136  20.520  0.00  0.00    +0.000 A 
ATOM     14  C   UNL     1       1.288   5.048  19.749  0.00  0.00    +0.000 A 
ATOM     15  C   UNL     1       2.633   4.805  19.442  0.00  0.00    +0.000 A 
ATOM     16  N   UNL     1       3.425   5.698  18.672  0.00  0.00    +0.000 N 
ENDROOT
BRANCH   1  18
ATOM     17  C   UNL     1       2.142   9.214  17.816  0.00  0.00    +0.000 C 
ATOM     18  C   UNL     1       1.921   7.748  18.181  0.00  0.00    +0.000 C 
ENDBRANCH   1  18
TORSDOF 1
ENDMDL
MODEL 6
REMARK VINA RESULT:      -5.9      9.281     11.312
REMARK  Name = 
REMARK  4 active torsions:
REMARK  status: ('A' for Active; 'I' for Inactive)
REMARK    1  A    between atoms: C_1  and  C_2
REMARK    2  A    between atoms: C_2  and  C_3
REMARK    3  A    between atoms: C_5  and  C_6
REMARK    4  A    between atoms: N_10  and  C_11
REMARK                            x       y       z     vdW  Elec       q    Type
REMARK                         _______ _______ _______ _____ _____    ______ ____
ROOT
ATOM      1  C   UNL     1       9.814  11.256  18.893  0.00  0.00    +0.000 A 
ATOM      2  N   UNL     1      10.419  11.485  17.740  0.00  0.00    +0.000 NA
ATOM      3  C   UNL     1      10.819  12.788  17.761  0.00  0.00    +0.000 A 
ATOM      4  C   UNL     1      11.517  13.385  16.599  0.00  0.00    +0.000 C 
ATOM      5  C   UNL     1      10.465  13.371  18.955  0.00  0.00    +0.000 A 
ATOM      6  C   UNL     1      10.671  14.714  19.407  0.00  0.00    +0.000 A 
ATOM      7  O   UNL     1      11.240  15.557  18.716  0.00  0.00    +0.000 OA
ATOM      8  N   UNL     1      10.180  14.996  20.682  0.00  0.00    +0.000 N 
ATOM      9  C   UNL     1      10.351  16.350  21.189  0.00  0.00    +0.000 C 
ATOM     10  C   UNL     1       9.537  14.000  21.486  0.00  0.00    +0.000 A 
ATOM     11  C   UNL     1       9.067  14.316  22.773  0.00  0.00    +0.000 A 
ATOM     12  C   UNL     1       8.449  13.355  23.571  0.00  0.00    +0.000 A 
ATOM     13  C   UNL     1       8.293  12.059  23.097  0.00  0.00    +0.000 A 
ATOM     14  C   UNL     1       8.750  11.719  21.820  0.00  0.00    +0.000 A 
ATOM     15  C   UNL     1       9.364  12.679  21.007  0.00  0.00    +0.000 A 
ATOM     16  N   UNL     1       9.838  12.396  19.698  0.00  0.00    +0.000 N 
ENDROOT
BRANCH   1  18
ATOM     17  C   UNL     1       8.355   9.389  18.058  0.00  0.00    +0.000 C 
ATOM     18  C   UNL     1       9.187   9.936  19.217  0.00  0.00    +0.000 C 
ENDBRANCH   1  18
TORSDOF 1
ENDMDL
MODEL 7
REMARK VINA RESULT:      -5.7      7.647     10.016
REMARK  Name = 
REMARK  4 active torsions:
REMARK  status: ('A' for Active; 'I' for Inactive)
REMARK    1  A    between atoms: C_1  and  C_2
REMARK    2  A    between atoms: C_2  and  C_3
REMARK    3  A    between atoms: C_5  and  C_6
REMARK    4  A    between atoms: N_10  and  C_11
REMARK                            x       y       z     vdW  Elec       q    Type
REMARK                         _______ _______ _______ _____ _____    ______ ____
ROOT
ATOM      1  C   UNL     1      -3.399  10.711  16.819  0.00  0.00    +0.000 A 
ATOM      2  N   UNL     1      -4.619  11.178  16.612  0.00  0.00    +0.000 NA
ATOM      3  C   UNL     1      -4.947  11.917  17.709  0.00  0.00    +0.000 A 
ATOM      4  C   UNL     1      -6.271  12.570  17.815  0.00  0.00    +0.000 C 
ATOM      5  C   UNL     1      -3.904  11.917  18.607  0.00  0.00    +0.000 A 
ATOM      6  C   UNL     1      -3.809  12.546  19.889  0.00  0.00    +0.000 A 
ATOM      7  O   UNL     1      -4.728  13.214  20.360  0.00  0.00    +0.000 OA
ATOM      8  N   UNL     1      -2.604  12.346  20.564  0.00  0.00    +0.000 N 
ATOM      9  C   UNL     1      -2.456  12.953  21.878  0.00  0.00    +0.000 C 
ATOM     10  C   UNL     1      -1.534  11.582  19.996  0.00  0.00    +0.000 A 
ATOM     11  C   UNL     1      -0.328  11.413  20.698  0.00  0.00    +0.000 A 
ATOM     12  C   UNL     1       0.727  10.681  20.154  0.00  0.00    +0.000 A 
ATOM     13  C   UNL     1       0.595  10.110  18.896  0.00  0.00    +0.000 A 
ATOM     14  C   UNL     1      -0.595  10.261  18.177  0.00  0.00    +0.000 A 
ATOM     15  C   UNL     1      -1.663  10.986  18.718  0.00  0.00    +0.000 A 
ATOM     16  N   UNL     1      -2.899  11.165  18.041  0.00  0.00    +0.000 N 
ENDROOT
BRANCH   1  18
ATOM     17  C   UNL     1      -3.106  10.106  14.399  0.00  0.00    +0.000 C 
ATOM     18  C   UNL     1      -2.716   9.804  15.845  0.00  0.00    +0.000 C 
ENDBRANCH   1  18
TORSDOF 1
ENDMDL
MODEL 8
REMARK VINA RESULT:      -5.7      2.102      3.057
REMARK  Name = 
REMARK  4 active torsions:
REMARK  status: ('A' for Active; 'I' for Inactive)
REMARK    1  A    between atoms: C_1  and  C_2
REMARK    2  A    between atoms: C_2  and  C_3
REMARK    3  A    between atoms: C_5  and  C_6
REMARK    4  A    between atoms: N_10  and  C_11
REMARK                            x       y       z     vdW  Elec       q    Type
REMARK                         _______ _______ _______ _____ _____    ______ ____
ROOT
ATOM      1  C   UNL     1       1.465   7.657  20.305  0.00  0.00    +0.000 A 
ATOM      2  N   UNL     1       1.487   8.759  19.574  0.00  0.00    +0.000 NA
ATOM      3  C   UNL     1       2.301   8.507  18.511  0.00  0.00    +0.000 A 
ATOM      4  C   UNL     1       2.566   9.552  17.496  0.00  0.00    +0.000 C 
ATOM      5  C   UNL     1       2.782   7.221  18.580  0.00  0.00    +0.000 A 
ATOM      6  C   UNL     1       3.672   6.534  17.692  0.00  0.00    +0.000 A 
ATOM      7  O   UNL     1       4.134   7.070  16.686  0.00  0.00    +0.000 OA
ATOM      8  N   UNL     1       3.977   5.221  18.051  0.00  0.00    +0.000 N 
ATOM      9  C   UNL     1       4.887   4.478  17.191  0.00  0.00    +0.000 C 
ATOM     10  C   UNL     1       3.417   4.602  19.215  0.00  0.00    +0.000 A 
ATOM     11  C   UNL     1       3.736   3.272  19.539  0.00  0.00    +0.000 A 
ATOM     12  C   UNL     1       3.191   2.653  20.663  0.00  0.00    +0.000 A 
ATOM     13  C   UNL     1       2.314   3.353  21.480  0.00  0.00    +0.000 A 
ATOM     14  C   UNL     1       1.981   4.678  21.183  0.00  0.00    +0.000 A 
ATOM     15  C   UNL     1       2.531   5.312  20.062  0.00  0.00    +0.000 A 
ATOM     16  N   UNL     1       2.240   6.658  19.713  0.00  0.00    +0.000 N 
ENDROOT
BRANCH   1  18
ATOM     17  C   UNL     1      -0.217   8.764  21.807  0.00  0.00    +0.000 C 
ATOM     18  C   UNL     1       0.712   7.570  21.595  0.00  0.00    +0.000 C 
ENDBRANCH   1  18
TORSDOF 1
ENDMDL
MODEL 9
REMARK VINA RESULT:      -5.6      7.610     10.289
REMARK  Name = 
REMARK  4 active torsions:
REMARK  status: ('A' for Active; 'I' for Inactive)
REMARK    1  A    between atoms: C_1  and  C_2
REMARK    2  A    between atoms: C_2  and  C_3
REMARK    3  A    between atoms: C_5  and  C_6
REMARK    4  A    between atoms: N_10  and  C_11
REMARK                            x       y       z     vdW  Elec       q    Type
REMARK                         _______ _______ _______ _____ _____    ______ ____
ROOT
ATOM      1  C   UNL     1      -2.520  10.279  17.308  0.00  0.00    +0.000 A 
ATOM      2  N   UNL     1      -1.228  10.118  17.537  0.00  0.00    +0.000 NA
ATOM      3  C   UNL     1      -0.928  10.874  18.631  0.00  0.00    +0.000 A 
ATOM      4  C   UNL     1       0.458  10.939  19.149  0.00  0.00    +0.000 C 
ATOM      5  C   UNL     1      -2.059  11.504  19.094  0.00  0.00    +0.000 A 
ATOM      6  C   UNL     1      -2.213  12.397  20.203  0.00  0.00    +0.000 A 
ATOM      7  O   UNL     1      -1.267  12.718  20.921  0.00  0.00    +0.000 OA
ATOM      8  N   UNL     1      -3.506  12.878  20.407  0.00  0.00    +0.000 N 
ATOM      9  C   UNL     1      -3.719  13.800  21.513  0.00  0.00    +0.000 C 
ATOM     10  C   UNL     1      -4.603  12.482  19.575  0.00  0.00    +0.000 A 
ATOM     11  C   UNL     1      -5.897  12.976  19.818  0.00  0.00    +0.000 A 
ATOM     12  C   UNL     1      -6.977  12.592  19.024  0.00  0.00    +0.000 A 
ATOM     13  C   UNL     1      -6.781  11.704  17.975  0.00  0.00    +0.000 A 
ATOM     14  C   UNL     1      -5.504  11.200  17.709  0.00  0.00    +0.000 A 
ATOM     15  C   UNL     1      -4.412  11.587  18.495  0.00  0.00    +0.000 A 
ATOM     16  N   UNL     1      -3.090  11.117  18.268  0.00  0.00    +0.000 N 
ENDROOT
BRANCH   1  18
ATOM     17  C   UNL     1      -2.947  10.382  14.835  0.00  0.00    +0.000 C 
ATOM     18  C   UNL     1      -3.210   9.640  16.144  0.00  0.00    +0.000 C 
ENDBRANCH   1  18
TORSDOF 1
ENDMDL
