MODEL 1
REMARK VINA RESULT:      -7.8      0.000      0.000
REMARK  Name = 
REMARK  5 active torsions:
REMARK  status: ('A' for Active; 'I' for Inactive)
REMARK    1  A    between atoms: C_2  and  O_3
REMARK    2  A    between atoms: C_2  and  C_4
REMARK    3  A    between atoms: N_6  and  C_7
REMARK    4  A    between atoms: C_13  and  N_14
REMARK    5  A    between atoms: C_22  and  O_23
REMARK                            x       y       z     vdW  Elec       q    Type
REMARK                         _______ _______ _______ _____ _____    ______ ____
ROOT
ATOM      1  C   UNL     1       4.351   5.035  18.130  0.00  0.00    +0.000 A 
ATOM      2  C   UNL     1       3.756   4.527  19.214  0.00  0.00    +0.000 A 
ATOM      3  N   UNL     1       2.910   5.205  20.073  0.00  0.00    +0.000 N 
ATOM      4  C   UNL     1       2.465   6.523  19.719  0.00  0.00    +0.000 A 
ATOM      5  C   UNL     1       1.519   7.251  20.480  0.00  0.00    +0.000 A 
ATOM      6  F   UNL     1       1.116   6.740  21.656  0.00  0.00    +0.000 F 
ATOM      7  C   UNL     1       1.013   8.518  20.102  0.00  0.00    +0.000 A 
ATOM      8  C   UNL     1       1.518   9.031  18.896  0.00  0.00    +0.000 A 
ATOM      9  F   UNL     1       1.049  10.192  18.400  0.00  0.00    +0.000 F 
ATOM     10  C   UNL     1       2.484   8.370  18.138  0.00  0.00    +0.000 A 
ATOM     11  C   UNL     1       2.979   7.133  18.552  0.00  0.00    +0.000 A 
ATOM     12  C   UNL     1       4.058   6.440  17.794  0.00  0.00    +0.000 A 
ATOM     13  O   UNL     1       4.736   6.985  16.925  0.00  0.00    +0.000 OA
ENDROOT
BRANCH   7  14
ATOM     14  N   UNL     1       0.074   9.215  20.846  0.00  0.00    +0.000 N 
ATOM     15  C   UNL     1      -0.502   8.718  22.105  0.00  0.00    +0.000 C 
ATOM     16  C   UNL     1      -0.149   9.667  23.271  0.00  0.00    +0.000 C 
ATOM     17  N   UNL     1      -0.564  11.062  23.018  0.00  0.00    +0.000 NA
ATOM     18  C   UNL     1       0.032  11.527  21.751  0.00  0.00    +0.000 C 
ATOM     19  C   UNL     1      -0.276  10.615  20.538  0.00  0.00    +0.000 C 
ATOM     20  H   UNL     1      -0.229  11.652  23.780  0.00  0.00    +0.000 HD
ENDBRANCH   7  14
BRANCH   3  21
ATOM     21  C   UNL     1       2.277   4.443  21.175  0.00  0.00    +0.000 C 
ATOM     22  C   UNL     1       1.186   3.413  20.992  0.00  0.00    +0.000 C 
ATOM     23  C   UNL     1       2.566   2.972  21.356  0.00  0.00    +0.000 C 
ENDBRANCH   3  21
BRANCH   1  25
ATOM     24  O   UNL     1       5.025   3.682  16.293  0.00  0.00    +0.000 OA
ATOM     25  C   UNL     1       5.295   4.189  17.374  0.00  0.00    +0.000 C 
BRANCH  25  26
ATOM     26  O   UNL     1       6.478   3.982  17.991  0.00  0.00    +0.000 OA
ATOM     27  H   UNL     1       7.261   4.094  17.394  0.00  0.00    +0.000 HD
ENDBRANCH  25  26
ENDBRANCH   1  25
BRANCH  10  28
ATOM     28  O   UNL     1       2.894   8.957  16.970  0.00  0.00    +0.000 OA
ATOM     29  H   UNL     1       3.862   8.853  16.896  0.00  0.00    +0.000 HD
ENDBRANCH  10  28
TORSDOF 5
ENDMDL
MODEL 2
REMARK VINA RESULT:      -7.5      5.662      8.070
REMARK  Name = 
REMARK  5 active torsions:
REMARK  status: ('A' for Active; 'I' for Inactive)
REMARK    1  A    between atoms: C_2  and  O_3
REMARK    2  A    between atoms: C_2  and  C_4
REMARK    3  A    between atoms: N_6  and  C_7
REMARK    4  A    between atoms: C_13  and  N_14
REMARK    5  A    between atoms: C_22  and  O_23
REMARK                            x       y       z     vdW  Elec       q    Type
REMARK                         _______ _______ _______ _____ _____    ______ ____
ROOT
ATOM      1  C   UNL     1      -3.121  10.768  16.365  0.00  0.00    +0.000 A 
ATOM      2  C   UNL     1      -1.918  10.669  16.942  0.00  0.00    +0.000 A 
ATOM      3  N   UNL     1      -1.555  11.198  18.167  0.00  0.00    +0.000 N 
ATOM      4  C   UNL     1      -2.568  11.768  19.009  0.00  0.00    +0.000 A 
ATOM      5  C   UNL     1      -2.310  12.238  20.320  0.00  0.00    +0.000 A 
ATOM      6  F   UNL     1      -1.036  12.272  20.747  0.00  0.00    +0.000 F 
ATOM      7  C   UNL     1      -3.312  12.730  21.190  0.00  0.00    +0.000 A 
ATOM      8  C   UNL     1      -4.615  12.731  20.666  0.00  0.00    +0.000 A 
ATOM      9  F   UNL     1      -5.658  13.104  21.432  0.00  0.00    +0.000 F 
ATOM     10  C   UNL     1      -4.909  12.320  19.365  0.00  0.00    +0.000 A 
ATOM     11  C   UNL     1      -3.892  11.862  18.526  0.00  0.00    +0.000 A 
ATOM     12  C   UNL     1      -4.171  11.482  17.113  0.00  0.00    +0.000 A 
ATOM     13  O   UNL     1      -5.217  11.757  16.529  0.00  0.00    +0.000 OA
ENDROOT
BRANCH   7  14
ATOM     14  N   UNL     1      -3.052  13.172  22.477  0.00  0.00    +0.000 N 
ATOM     15  C   UNL     1      -2.933  14.591  22.845  0.00  0.00    +0.000 C 
ATOM     16  C   UNL     1      -4.028  14.978  23.863  0.00  0.00    +0.000 C 
ATOM     17  N   UNL     1      -4.018  14.121  25.067  0.00  0.00    +0.000 NA
ATOM     18  C   UNL     1      -4.140  12.708  24.662  0.00  0.00    +0.000 C 
ATOM     19  C   UNL     1      -3.075  12.253  23.632  0.00  0.00    +0.000 C 
ATOM     20  H   UNL     1      -4.811  14.368  25.658  0.00  0.00    +0.000 HD
ENDBRANCH   7  14
BRANCH   3  21
ATOM     21  C   UNL     1      -0.195  10.905  18.678  0.00  0.00    +0.000 C 
ATOM     22  C   UNL     1       0.174   9.683  19.487  0.00  0.00    +0.000 C 
ATOM     23  C   UNL     1       0.631   9.798  18.069  0.00  0.00    +0.000 C 
ENDBRANCH   3  21
BRANCH   1  25
ATOM     24  O   UNL     1      -2.397  10.090  14.203  0.00  0.00    +0.000 OA
ATOM     25  C   UNL     1      -3.308  10.215  15.010  0.00  0.00    +0.000 C 
BRANCH  25  26
ATOM     26  O   UNL     1      -4.585   9.892  14.710  0.00  0.00    +0.000 OA
ATOM     27  H   UNL     1      -5.212  10.010  15.468  0.00  0.00    +0.000 HD
ENDBRANCH  25  26
ENDBRANCH   1  25
BRANCH  10  28
ATOM     28  O   UNL     1      -6.218  12.350  18.964  0.00  0.00    +0.000 OA
ATOM     29  H   UNL     1      -6.641  13.140  19.352  0.00  0.00    +0.000 HD
ENDBRANCH  10  28
TORSDOF 5
ENDMDL
MODEL 3
REMARK VINA RESULT:      -7.5      6.346     10.283
REMARK  Name = 
REMARK  5 active torsions:
REMARK  status: ('A' for Active; 'I' for Inactive)
REMARK    1  A    between atoms: C_2  and  O_3
REMARK    2  A    between atoms: C_2  and  C_4
REMARK    3  A    between atoms: N_6  and  C_7
REMARK    4  A    between atoms: C_13  and  N_14
REMARK    5  A    between atoms: C_22  and  O_23
REMARK                            x       y       z     vdW  Elec       q    Type
REMARK                         _______ _______ _______ _____ _____    ______ ____
ROOT
ATOM      1  C   UNL     1      -5.920  12.968  22.822  0.00  0.00    +0.000 A 
ATOM      2  C   UNL     1      -6.273  12.750  21.551  0.00  0.00    +0.000 A 
ATOM      3  N   UNL     1      -5.413  12.616  20.477  0.00  0.00    +0.000 N 
ATOM      4  C   UNL     1      -4.001  12.527  20.720  0.00  0.00    +0.000 A 
ATOM      5  C   UNL     1      -3.053  12.285  19.696  0.00  0.00    +0.000 A 
ATOM      6  F   UNL     1      -3.480  12.266  18.422  0.00  0.00    +0.000 F 
ATOM      7  C   UNL     1      -1.667  12.117  19.931  0.00  0.00    +0.000 A 
ATOM      8  C   UNL     1      -1.271  12.210  21.275  0.00  0.00    +0.000 A 
ATOM      9  F   UNL     1       0.011  11.989  21.624  0.00  0.00    +0.000 F 
ATOM     10  C   UNL     1      -2.162  12.493  22.310  0.00  0.00    +0.000 A 
ATOM     11  C   UNL     1      -3.519  12.676  22.040  0.00  0.00    +0.000 A 
ATOM     12  C   UNL     1      -4.478  13.044  23.118  0.00  0.00    +0.000 A 
ATOM     13  O   UNL     1      -4.132  13.435  24.231  0.00  0.00    +0.000 OA
ENDROOT
BRANCH   7  14
ATOM     14  N   UNL     1      -0.750  11.863  18.924  0.00  0.00    +0.000 N 
ATOM     15  C   UNL     1       0.151  12.882  18.365  0.00  0.00    +0.000 C 
ATOM     16  C   UNL     1       1.626  12.494  18.616  0.00  0.00    +0.000 C 
ATOM     17  N   UNL     1       1.960  11.153  18.094  0.00  0.00    +0.000 NA
ATOM     18  C   UNL     1       1.038  10.158  18.675  0.00  0.00    +0.000 C 
ATOM     19  C   UNL     1      -0.461  10.490  18.467  0.00  0.00    +0.000 C 
ATOM     20  H   UNL     1       2.915  10.919  18.363  0.00  0.00    +0.000 HD
ENDBRANCH   7  14
BRANCH   3  21
ATOM     21  C   UNL     1      -5.995  12.289  19.153  0.00  0.00    +0.000 C 
ATOM     22  C   UNL     1      -6.686  10.988  18.816  0.00  0.00    +0.000 C 
ATOM     23  C   UNL     1      -7.492  12.238  18.964  0.00  0.00    +0.000 C 
ENDBRANCH   3  21
BRANCH   1  25
ATOM     24  O   UNL     1      -7.897  12.385  24.008  0.00  0.00    +0.000 OA
ATOM     25  C   UNL     1      -6.978  13.172  23.831  0.00  0.00    +0.000 C 
BRANCH  25  26
ATOM     26  O   UNL     1      -6.875  14.327  24.523  0.00  0.00    +0.000 OA
ATOM     27  H   UNL     1      -6.409  15.046  24.025  0.00  0.00    +0.000 HD
ENDBRANCH  25  26
ENDBRANCH   1  25
BRANCH  10  28
ATOM     28  O   UNL     1      -1.666  12.546  23.586  0.00  0.00    +0.000 OA
ATOM     29  H   UNL     1      -0.702  12.400  23.547  0.00  0.00    +0.000 HD
ENDBRANCH  10  28
TORSDOF 5
ENDMDL
MODEL 4
REMARK VINA RESULT:      -7.4      1.005      1.194
REMARK  Name = 
REMARK  5 active torsions:
REMARK  status: ('A' for Active; 'I' for Inactive)
REMARK    1  A    between atoms: C_2  and  O_3
REMARK    2  A    between atoms: C_2  and  C_4
REMARK    3  A    between atoms: N_6  and  C_7
REMARK    4  A    between atoms: C_13  and  N_14
REMARK    5  A    between atoms: C_22  and  O_23
REMARK                            x       y       z     vdW  Elec       q    Type
REMARK                         _______ _______ _______ _____ _____    ______ ____
ROOT
ATOM      1  C   UNL     1       4.094   4.555  18.025  0.00  0.00    +0.000 A 
ATOM      2  C   UNL     1       3.444   4.213  19.142  0.00  0.00    +0.000 A 
ATOM      3  N   UNL     1       2.724   5.065  19.960  0.00  0.00    +0.000 N 
ATOM      4  C   UNL     1       2.482   6.411  19.525  0.00  0.00    +0.000 A 
ATOM      5  C   UNL     1       1.669   7.322  20.243  0.00  0.00    +0.000 A 
ATOM      6  F   UNL     1       1.209   6.953  21.451  0.00  0.00    +0.000 F 
ATOM      7  C   UNL     1       1.358   8.626  19.788  0.00  0.00    +0.000 A 
ATOM      8  C   UNL     1       1.920   8.980  18.550  0.00  0.00    +0.000 A 
ATOM      9  F   UNL     1       1.628  10.166  17.983  0.00  0.00    +0.000 F 
ATOM     10  C   UNL     1       2.762   8.132  17.831  0.00  0.00    +0.000 A 
ATOM     11  C   UNL     1       3.067   6.861  18.320  0.00  0.00    +0.000 A 
ATOM     12  C   UNL     1       4.016   5.965  17.603  0.00  0.00    +0.000 A 
ATOM     13  O   UNL     1       4.757   6.345  16.699  0.00  0.00    +0.000 OA
ENDROOT
BRANCH   7  14
ATOM     14  N   UNL     1       0.548   9.504  20.490  0.00  0.00    +0.000 N 
ATOM     15  C   UNL     1       1.047  10.430  21.519  0.00  0.00    +0.000 C 
ATOM     16  C   UNL     1       0.789  11.894  21.096  0.00  0.00    +0.000 C 
ATOM     17  N   UNL     1      -0.633  12.159  20.795  0.00  0.00    +0.000 NA
ATOM     18  C   UNL     1      -1.099  11.214  19.762  0.00  0.00    +0.000 C 
ATOM     19  C   UNL     1      -0.862   9.725  20.116  0.00  0.00    +0.000 C 
ATOM     20  H   UNL     1      -0.727  13.111  20.442  0.00  0.00    +0.000 HD
ENDBRANCH   7  14
BRANCH   3  21
ATOM     21  C   UNL     1       1.997   4.478  21.111  0.00  0.00    +0.000 C 
ATOM     22  C   UNL     1       1.020   3.329  21.015  0.00  0.00    +0.000 C 
ATOM     23  C   UNL     1       2.363   3.110  21.633  0.00  0.00    +0.000 C 
ENDBRANCH   3  21
BRANCH   1  25
ATOM     24  O   UNL     1       4.450   2.423  17.033  0.00  0.00    +0.000 OA
ATOM     25  C   UNL     1       4.887   3.529  17.320  0.00  0.00    +0.000 C 
BRANCH  25  26
ATOM     26  O   UNL     1       6.159   3.893  17.049  0.00  0.00    +0.000 OA
ATOM     27  H   UNL     1       6.821   3.521  17.685  0.00  0.00    +0.000 HD
ENDBRANCH  25  26
ENDBRANCH   1  25
BRANCH  10  28
ATOM     28  O   UNL     1       3.241   8.577  16.627  0.00  0.00    +0.000 OA
ATOM     29  H   UNL     1       2.485   8.703  16.022  0.00  0.00    +0.000 HD
ENDBRANCH  10  28
TORSDOF 5
ENDMDL
MODEL 5
REMARK VINA RESULT:      -7.3      4.976      7.504
REMARK  Name = 
REMARK  5 active torsions:
REMARK  status: ('A' for Active; 'I' for Inactive)
REMARK    1  A    between atoms: C_2  and  O_3
REMARK    2  A    between atoms: C_2  and  C_4
REMARK    3  A    between atoms: N_6  and  C_7
REMARK    4  A    between atoms: C_13  and  N_14
REMARK    5  A    between atoms: C_22  and  O_23
REMARK                            x       y       z     vdW  Elec       q    Type
REMARK                         _______ _______ _______ _____ _____    ______ ____
ROOT
ATOM      1  C   UNL     1       0.151  10.214  18.357  0.00  0.00    +0.000 A 
ATOM      2  C   UNL     1      -0.935  10.060  17.592  0.00  0.00    +0.000 A 
ATOM      3  N   UNL     1      -2.210  10.506  17.887  0.00  0.00    +0.000 N 
ATOM      4  C   UNL     1      -2.405  11.364  19.021  0.00  0.00    +0.000 A 
ATOM      5  C   UNL     1      -3.652  11.954  19.340  0.00  0.00    +0.000 A 
ATOM      6  F   UNL     1      -4.731  11.593  18.625  0.00  0.00    +0.000 F 
ATOM      7  C   UNL     1      -3.841  12.862  20.409  0.00  0.00    +0.000 A 
ATOM      8  C   UNL     1      -2.691  13.153  21.162  0.00  0.00    +0.000 A 
ATOM      9  F   UNL     1      -2.737  14.063  22.153  0.00  0.00    +0.000 F 
ATOM     10  C   UNL     1      -1.453  12.560  20.912  0.00  0.00    +0.000 A 
ATOM     11  C   UNL     1      -1.307  11.651  19.864  0.00  0.00    +0.000 A 
ATOM     12  C   UNL     1      -0.013  10.956  19.620  0.00  0.00    +0.000 A 
ATOM     13  O   UNL     1       0.914  10.943  20.427  0.00  0.00    +0.000 OA
ENDROOT
BRANCH   7  14
ATOM     14  N   UNL     1      -5.063  13.448  20.702  0.00  0.00    +0.000 N 
ATOM     15  C   UNL     1      -5.565  14.662  20.042  0.00  0.00    +0.000 C 
ATOM     16  C   UNL     1      -6.874  14.359  19.279  0.00  0.00    +0.000 C 
ATOM     17  N   UNL     1      -7.914  13.762  20.142  0.00  0.00    +0.000 NA
ATOM     18  C   UNL     1      -7.376  12.548  20.786  0.00  0.00    +0.000 C 
ATOM     19  C   UNL     1      -6.056  12.778  21.564  0.00  0.00    +0.000 C 
ATOM     20  H   UNL     1      -8.717  13.507  19.568  0.00  0.00    +0.000 HD
ENDBRANCH   7  14
BRANCH   3  21
ATOM     21  C   UNL     1      -3.269  10.315  16.867  0.00  0.00    +0.000 C 
ATOM     22  C   UNL     1      -3.397  11.126  15.598  0.00  0.00    +0.000 C 
ATOM     23  C   UNL     1      -2.942   9.704  15.526  0.00  0.00    +0.000 C 
ENDBRANCH   3  21
BRANCH   1  25
ATOM     24  O   UNL     1       1.620   8.389  17.949  0.00  0.00    +0.000 OA
ATOM     25  C   UNL     1       1.420   9.596  17.926  0.00  0.00    +0.000 C 
BRANCH  25  26
ATOM     26  O   UNL     1       2.368  10.476  17.538  0.00  0.00    +0.000 OA
ATOM     27  H   UNL     1       2.318  11.345  18.010  0.00  0.00    +0.000 HD
ENDBRANCH  25  26
ENDBRANCH   1  25
BRANCH  10  28
ATOM     28  O   UNL     1      -0.396  12.929  21.701  0.00  0.00    +0.000 OA
ATOM     29  H   UNL     1      -0.644  12.786  22.634  0.00  0.00    +0.000 HD
ENDBRANCH  10  28
TORSDOF 5
ENDMDL
MODEL 6
REMARK VINA RESULT:      -7.3      2.721      4.026
REMARK  Name = 
REMARK  5 active torsions:
REMARK  status: ('A' for Active; 'I' for Inactive)
REMARK    1  A    between atoms: C_2  and  O_3
REMARK    2  A    between atoms: C_2  and  C_4
REMARK    3  A    between atoms: N_6  and  C_7
REMARK    4  A    between atoms: C_13  and  N_14
REMARK    5  A    between atoms: C_22  and  O_23
REMARK                            x       y       z     vdW  Elec       q    Type
REMARK                         _______ _______ _______ _____ _____    ______ ____
ROOT
ATOM      1  C   UNL     1       3.976   3.767  19.251  0.00  0.00    +0.000 A 
ATOM      2  C   UNL     1       4.424   4.312  18.115  0.00  0.00    +0.000 A 
ATOM      3  N   UNL     1       3.995   5.502  17.556  0.00  0.00    +0.000 N 
ATOM      4  C   UNL     1       3.114   6.348  18.309  0.00  0.00    +0.000 A 
ATOM      5  C   UNL     1       2.705   7.630  17.865  0.00  0.00    +0.000 A 
ATOM      6  F   UNL     1       3.054   8.018  16.626  0.00  0.00    +0.000 F 
ATOM      7  C   UNL     1       1.900   8.507  18.631  0.00  0.00    +0.000 A 
ATOM      8  C   UNL     1       1.513   8.022  19.891  0.00  0.00    +0.000 A 
ATOM      9  F   UNL     1       0.812   8.802  20.735  0.00  0.00    +0.000 F 
ATOM     10  C   UNL     1       1.854   6.749  20.349  0.00  0.00    +0.000 A 
ATOM     11  C   UNL     1       2.630   5.901  19.559  0.00  0.00    +0.000 A 
ATOM     12  C   UNL     1       2.950   4.514  19.999  0.00  0.00    +0.000 A 
ATOM     13  O   UNL     1       2.384   3.950  20.933  0.00  0.00    +0.000 OA
ENDROOT
BRANCH   7  14
ATOM     14  N   UNL     1       1.520   9.766  18.194  0.00  0.00    +0.000 N 
ATOM     15  C   UNL     1       0.132  10.136  17.879  0.00  0.00    +0.000 C 
ATOM     16  C   UNL     1      -0.351  11.266  18.816  0.00  0.00    +0.000 C 
ATOM     17  N   UNL     1       0.530  12.452  18.781  0.00  0.00    +0.000 NA
ATOM     18  C   UNL     1       1.911  12.045  19.102  0.00  0.00    +0.000 C 
ATOM     19  C   UNL     1       2.457  10.906  18.205  0.00  0.00    +0.000 C 
ATOM     20  H   UNL     1       0.210  13.124  19.478  0.00  0.00    +0.000 HD
ENDBRANCH   7  14
BRANCH   3  21
ATOM     21  C   UNL     1       4.678   5.985  16.333  0.00  0.00    +0.000 C 
ATOM     22  C   UNL     1       6.161   6.263  16.229  0.00  0.00    +0.000 C 
ATOM     23  C   UNL     1       5.582   5.067  15.545  0.00  0.00    +0.000 C 
ENDBRANCH   3  21
BRANCH   1  25
ATOM     24  O   UNL     1       5.167   2.263  20.657  0.00  0.00    +0.000 OA
ATOM     25  C   UNL     1       4.487   2.443  19.655  0.00  0.00    +0.000 C 
BRANCH  25  26
ATOM     26  O   UNL     1       4.178   1.440  18.805  0.00  0.00    +0.000 OA
ATOM     27  H   UNL     1       3.368   0.934  19.068  0.00  0.00    +0.000 HD
ENDBRANCH  25  26
ENDBRANCH   1  25
BRANCH  10  28
ATOM     28  O   UNL     1       1.434   6.387  21.601  0.00  0.00    +0.000 OA
ATOM     29  H   UNL     1       1.266   7.198  22.117  0.00  0.00    +0.000 HD
ENDBRANCH  10  28
TORSDOF 5
ENDMDL
MODEL 7
REMARK VINA RESULT:      -7.2      6.771      8.665
REMARK  Name = 
REMARK  5 active torsions:
REMARK  status: ('A' for Active; 'I' for Inactive)
REMARK    1  A    between atoms: C_2  and  O_3
REMARK    2  A    between atoms: C_2  and  C_4
REMARK    3  A    between atoms: N_6  and  C_7
REMARK    4  A    between atoms: C_13  and  N_14
REMARK    5  A    between atoms: C_22  and  O_23
REMARK                            x       y       z     vdW  Elec       q    Type
REMARK                         _______ _______ _______ _____ _____    ______ ____
ROOT
ATOM      1  C   UNL     1      -3.564  10.809  16.268  0.00  0.00    +0.000 A 
ATOM      2  C   UNL     1      -4.680  11.416  16.685  0.00  0.00    +0.000 A 
ATOM      3  N   UNL     1      -4.915  11.906  17.957  0.00  0.00    +0.000 N 
ATOM      4  C   UNL     1      -3.836  11.943  18.902  0.00  0.00    +0.000 A 
ATOM      5  C   UNL     1      -3.954  12.521  20.189  0.00  0.00    +0.000 A 
ATOM      6  F   UNL     1      -5.166  12.939  20.593  0.00  0.00    +0.000 F 
ATOM      7  C   UNL     1      -2.877  12.634  21.102  0.00  0.00    +0.000 A 
ATOM      8  C   UNL     1      -1.650  12.122  20.649  0.00  0.00    +0.000 A 
ATOM      9  F   UNL     1      -0.541  12.247  21.403  0.00  0.00    +0.000 F 
ATOM     10  C   UNL     1      -1.499  11.504  19.408  0.00  0.00    +0.000 A 
ATOM     11  C   UNL     1      -2.587  11.388  18.542  0.00  0.00    +0.000 A 
ATOM     12  C   UNL     1      -2.465  10.673  17.242  0.00  0.00    +0.000 A 
ATOM     13  O   UNL     1      -1.514   9.953  16.948  0.00  0.00    +0.000 OA
ENDROOT
BRANCH   7  14
ATOM     14  N   UNL     1      -2.999  13.218  22.353  0.00  0.00    +0.000 N 
ATOM     15  C   UNL     1      -3.101  14.669  22.570  0.00  0.00    +0.000 C 
ATOM     16  C   UNL     1      -4.453  15.021  23.231  0.00  0.00    +0.000 C 
ATOM     17  N   UNL     1      -4.682  14.284  24.491  0.00  0.00    +0.000 NA
ATOM     18  C   UNL     1      -4.573  12.835  24.236  0.00  0.00    +0.000 C 
ATOM     19  C   UNL     1      -3.243  12.411  23.564  0.00  0.00    +0.000 C 
ATOM     20  H   UNL     1      -5.620  14.492  24.833  0.00  0.00    +0.000 HD
ENDBRANCH   7  14
BRANCH   3  21
ATOM     21  C   UNL     1      -6.187  12.628  18.202  0.00  0.00    +0.000 C 
ATOM     22  C   UNL     1      -6.469  14.045  17.759  0.00  0.00    +0.000 C 
ATOM     23  C   UNL     1      -7.143  12.905  17.067  0.00  0.00    +0.000 C 
ENDBRANCH   3  21
BRANCH   1  25
ATOM     24  O   UNL     1      -2.484  10.174  14.247  0.00  0.00    +0.000 OA
ATOM     25  C   UNL     1      -3.517  10.270  14.895  0.00  0.00    +0.000 C 
BRANCH  25  26
ATOM     26  O   UNL     1      -4.720   9.924  14.389  0.00  0.00    +0.000 OA
ATOM     27  H   UNL     1      -4.810   8.953  14.212  0.00  0.00    +0.000 HD
ENDBRANCH  25  26
ENDBRANCH   1  25
BRANCH  10  28
ATOM     28  O   UNL     1      -0.252  11.054  19.065  0.00  0.00    +0.000 OA
ATOM     29  H   UNL     1      -0.206  10.986  18.092  0.00  0.00    +0.000 HD
ENDBRANCH  10  28
TORSDOF 5
ENDMDL
MODEL 8
REMARK VINA RESULT:      -7.2      2.190      6.368
REMARK  Name = 
REMARK  5 active torsions:
REMARK  status: ('A' for Active; 'I' for Inactive)
REMARK    1  A    between atoms: C_2  and  O_3
REMARK    2  A    between atoms: C_2  and  C_4
REMARK    3  A    between atoms: N_6  and  C_7
REMARK    4  A    between atoms: C_13  and  N_14
REMARK    5  A    between atoms: C_22  and  O_23
REMARK                            x       y       z     vdW  Elec       q    Type
REMARK                         _______ _______ _______ _____ _____    ______ ____
ROOT
ATOM      1  C   UNL     1       1.334  10.993  19.271  0.00  0.00    +0.000 A 
ATOM      2  C   UNL     1       0.805  10.488  20.390  0.00  0.00    +0.000 A 
ATOM      3  N   UNL     1       0.715   9.147  20.716  0.00  0.00    +0.000 N 
ATOM      4  C   UNL     1       1.386   8.182  19.893  0.00  0.00    +0.000 A 
ATOM      5  C   UNL     1       1.438   6.801  20.205  0.00  0.00    +0.000 A 
ATOM      6  F   UNL     1       0.719   6.355  21.249  0.00  0.00    +0.000 F 
ATOM      7  C   UNL     1       2.161   5.850  19.445  0.00  0.00    +0.000 A 
ATOM      8  C   UNL     1       2.840   6.364  18.328  0.00  0.00    +0.000 A 
ATOM      9  F   UNL     1       3.622   5.565  17.579  0.00  0.00    +0.000 F 
ATOM     10  C   UNL     1       2.779   7.708  17.958  0.00  0.00    +0.000 A 
ATOM     11  C   UNL     1       2.038   8.614  18.717  0.00  0.00    +0.000 A 
ATOM     12  C   UNL     1       1.905  10.039  18.303  0.00  0.00    +0.000 A 
ATOM     13  O   UNL     1       2.216  10.455  17.189  0.00  0.00    +0.000 OA
ENDROOT
BRANCH   7  14
ATOM     14  N   UNL     1       2.219   4.504  19.769  0.00  0.00    +0.000 N 
ATOM     15  C   UNL     1       1.054   3.607  19.743  0.00  0.00    +0.000 C 
ATOM     16  C   UNL     1       1.265   2.478  18.710  0.00  0.00    +0.000 C 
ATOM     17  N   UNL     1       2.510   1.716  18.942  0.00  0.00    +0.000 NA
ATOM     18  C   UNL     1       3.656   2.646  18.961  0.00  0.00    +0.000 C 
ATOM     19  C   UNL     1       3.506   3.811  19.971  0.00  0.00    +0.000 C 
ATOM     20  H   UNL     1       2.637   1.047  18.184  0.00  0.00    +0.000 HD
ENDBRANCH   7  14
BRANCH   3  21
ATOM     21  C   UNL     1       0.173   8.788  22.048  0.00  0.00    +0.000 C 
ATOM     22  C   UNL     1       0.707   9.310  23.363  0.00  0.00    +0.000 C 
ATOM     23  C   UNL     1      -0.612   9.795  22.854  0.00  0.00    +0.000 C 
ENDBRANCH   3  21
BRANCH   1  25
ATOM     24  O   UNL     1       1.810  13.267  19.779  0.00  0.00    +0.000 OA
ATOM     25  C   UNL     1       1.268  12.450  19.046  0.00  0.00    +0.000 C 
BRANCH  25  26
ATOM     26  O   UNL     1       0.522  12.819  17.983  0.00  0.00    +0.000 OA
ATOM     27  H   UNL     1      -0.288  13.335  18.229  0.00  0.00    +0.000 HD
ENDBRANCH  25  26
ENDBRANCH   1  25
BRANCH  10  28
ATOM     28  O   UNL     1       3.494   8.101  16.857  0.00  0.00    +0.000 OA
ATOM     29  H   UNL     1       4.395   7.733  16.929  0.00  0.00    +0.000 HD
ENDBRANCH  10  28
TORSDOF 5
ENDMDL
MODEL 9
REMARK VINA RESULT:      -7.2      3.174      6.719
REMARK  Name = 
REMARK  5 active torsions:
REMARK  status: ('A' for Active; 'I' for Inactive)
REMARK    1  A    between atoms: C_2  and  O_3
REMARK    2  A    between atoms: C_2  and  C_4
REMARK    3  A    between atoms: N_6  and  C_7
REMARK    4  A    between atoms: C_13  and  N_14
REMARK    5  A    between atoms: C_22  and  O_23
REMARK                            x       y       z     vdW  Elec       q    Type
REMARK                         _______ _______ _______ _____ _____    ______ ____
ROOT
ATOM      1  C   UNL     1       1.453   7.237  20.679  0.00  0.00    +0.000 A 
ATOM      2  C   UNL     1       1.678   5.947  20.949  0.00  0.00    +0.000 A 
ATOM      3  N   UNL     1       2.345   5.048  20.138  0.00  0.00    +0.000 N 
ATOM      4  C   UNL     1       3.022   5.531  18.969  0.00  0.00    +0.000 A 
ATOM      5  C   UNL     1       3.817   4.705  18.137  0.00  0.00    +0.000 A 
ATOM      6  F   UNL     1       3.834   3.383  18.379  0.00  0.00    +0.000 F 
ATOM      7  C   UNL     1       4.553   5.184  17.027  0.00  0.00    +0.000 A 
ATOM      8  C   UNL     1       4.447   6.563  16.785  0.00  0.00    +0.000 A 
ATOM      9  F   UNL     1       5.166   7.140  15.803  0.00  0.00    +0.000 F 
ATOM     10  C   UNL     1       3.641   7.406  17.549  0.00  0.00    +0.000 A 
ATOM     11  C   UNL     1       2.910   6.897  18.623  0.00  0.00    +0.000 A 
ATOM     12  C   UNL     1       1.991   7.765  19.412  0.00  0.00    +0.000 A 
ATOM     13  O   UNL     1       1.635   8.884  19.050  0.00  0.00    +0.000 OA
ENDROOT
BRANCH   7  14
ATOM     14  N   UNL     1       5.342   4.370  16.229  0.00  0.00    +0.000 N 
ATOM     15  C   UNL     1       4.812   3.532  15.143  0.00  0.00    +0.000 C 
ATOM     16  C   UNL     1       5.408   3.968  13.785  0.00  0.00    +0.000 C 
ATOM     17  N   UNL     1       6.886   3.961  13.782  0.00  0.00    +0.000 NA
ATOM     18  C   UNL     1       7.381   4.810  14.882  0.00  0.00    +0.000 C 
ATOM     19  C   UNL     1       6.815   4.434  16.274  0.00  0.00    +0.000 C 
ATOM     20  H   UNL     1       7.218   4.337  12.894  0.00  0.00    +0.000 HD
ENDBRANCH   7  14
BRANCH   3  21
ATOM     21  C   UNL     1       2.570   3.676  20.654  0.00  0.00    +0.000 C 
ATOM     22  C   UNL     1       1.841   3.071  21.831  0.00  0.00    +0.000 C 
ATOM     23  C   UNL     1       1.534   2.598  20.447  0.00  0.00    +0.000 C 
ENDBRANCH   3  21
BRANCH   1  25
ATOM     24  O   UNL     1      -0.573   7.946  21.703  0.00  0.00    +0.000 OA
ATOM     25  C   UNL     1       0.645   8.033  21.623  0.00  0.00    +0.000 C 
BRANCH  25  26
ATOM     26  O   UNL     1       1.356   8.903  22.372  0.00  0.00    +0.000 OA
ATOM     27  H   UNL     1       0.792   9.499  22.928  0.00  0.00    +0.000 HD
ENDBRANCH  25  26
ENDBRANCH   1  25
BRANCH  10  28
ATOM     28  O   UNL     1       3.625   8.739  17.232  0.00  0.00    +0.000 OA
ATOM     29  H   UNL     1       2.748   9.100  17.463  0.00  0.00    +0.000 HD
ENDBRANCH  10  28
TORSDOF 5
ENDMDL
