MODEL 1
REMARK VINA RESULT:      -7.2      0.000      0.000
REMARK  Name = 
REMARK  6 active torsions:
REMARK  status: ('A' for Active; 'I' for Inactive)
REMARK    1  A    between atoms: N_1  and  C_2
REMARK    2  A    between atoms: N_10  and  C1*_11
REMARK    3  A    between atoms: C4*_13  and  C5*_14
REMARK    4  A    between atoms: C5*_14  and  O5*_15
REMARK    5  A    between atoms: C3*_16  and  O3*_17
REMARK    6  A    between atoms: C2*_18  and  O2*_19
REMARK                            x       y       z     vdW  Elec       q    Type
REMARK                         _______ _______ _______ _____ _____    ______ ____
ROOT
ATOM      1  C   UNL     1       1.375   3.212  19.562  0.00  0.00    +0.000 A 
ATOM      2  N   UNL     1       1.393   2.032  18.907  0.00  0.00    +0.000 NA
ATOM      3  C   UNL     1       2.388   1.775  18.032  0.00  0.00    +0.000 A 
ATOM      4  C   UNL     1       3.438   2.633  17.743  0.00  0.00    +0.000 A 
ATOM      5  C   UNL     1       3.432   3.847  18.436  0.00  0.00    +0.000 A 
ATOM      6  C   UNL     1       2.411   4.149  19.346  0.00  0.00    +0.000 A 
ATOM      7  C   UNL     1       2.693   5.445  19.864  0.00  0.00    +0.000 A 
ATOM      8  C   UNL     1       3.850   5.895  19.274  0.00  0.00    +0.000 A 
ATOM      9  N   UNL     1       4.299   4.925  18.410  0.00  0.00    +0.000 N 
ENDROOT
BRANCH   9  10
ATOM     10  C1* UNL     1       5.495   5.020  17.577  0.00  0.00    +0.000 C 
ATOM     11  O4* UNL     1       6.649   4.569  18.328  0.00  0.00    +0.000 OA
ATOM     12  C4* UNL     1       7.764   5.449  18.044  0.00  0.00    +0.000 C 
ATOM     13  C3* UNL     1       7.308   6.401  16.943  0.00  0.00    +0.000 C 
ATOM     14  C2* UNL     1       5.796   6.442  17.106  0.00  0.00    +0.000 C 
BRANCH  13  15
ATOM     15  O3* UNL     1       7.597   5.889  15.629  0.00  0.00    +0.000 OA
ATOM     16  H3* UNL     1       8.550   5.685  15.567  0.00  0.00    +0.000 HD
ENDBRANCH  13  15
BRANCH  14  17
ATOM     17  O2* UNL     1       5.160   6.773  15.871  0.00  0.00    +0.000 OA
ATOM     18  H2* UNL     1       5.195   7.751  15.799  0.00  0.00    +0.000 HD
ENDBRANCH  14  17
BRANCH  12  19
ATOM     19  C5* UNL     1       8.166   6.177  19.328  0.00  0.00    +0.000 C 
BRANCH  19  20
ATOM     20  O5* UNL     1       7.858   5.373  20.465  0.00  0.00    +0.000 OA
ATOM     21  H5* UNL     1       7.963   5.944  21.249  0.00  0.00    +0.000 HD
ENDBRANCH  19  20
ENDBRANCH  12  19
ENDBRANCH   9  10
BRANCH   1  22
ATOM     22  N   UNL     1       0.324   3.423  20.444  0.00  0.00    +0.000 N 
ATOM     23  H   UNL     1      -0.362   4.032  20.011  0.00  0.00    +0.000 HD
ATOM     24  H   UNL     1      -0.032   2.581  20.872  0.00  0.00    +0.000 HD
ENDBRANCH   1  22
TORSDOF 6
ENDMDL
MODEL 2
REMARK VINA RESULT:      -7.1      2.995      6.066
REMARK  Name = 
REMARK  6 active torsions:
REMARK  status: ('A' for Active; 'I' for Inactive)
REMARK    1  A    between atoms: N_1  and  C_2
REMARK    2  A    between atoms: N_10  and  C1*_11
REMARK    3  A    between atoms: C4*_13  and  C5*_14
REMARK    4  A    between atoms: C5*_14  and  O5*_15
REMARK    5  A    between atoms: C3*_16  and  O3*_17
REMARK    6  A    between atoms: C2*_18  and  O2*_19
REMARK                            x       y       z     vdW  Elec       q    Type
REMARK                         _______ _______ _______ _____ _____    ______ ____
ROOT
ATOM      1  C   UNL     1       6.997   5.519  16.378  0.00  0.00    +0.000 A 
ATOM      2  N   UNL     1       7.754   6.149  17.301  0.00  0.00    +0.000 NA
ATOM      3  C   UNL     1       7.409   6.073  18.604  0.00  0.00    +0.000 A 
ATOM      4  C   UNL     1       6.320   5.374  19.102  0.00  0.00    +0.000 A 
ATOM      5  C   UNL     1       5.547   4.705  18.148  0.00  0.00    +0.000 A 
ATOM      6  C   UNL     1       5.873   4.768  16.788  0.00  0.00    +0.000 A 
ATOM      7  C   UNL     1       4.895   3.997  16.096  0.00  0.00    +0.000 A 
ATOM      8  C   UNL     1       4.016   3.494  17.025  0.00  0.00    +0.000 A 
ATOM      9  N   UNL     1       4.414   3.921  18.269  0.00  0.00    +0.000 N 
ENDROOT
BRANCH   9  10
ATOM     10  C1* UNL     1       3.736   3.614  19.526  0.00  0.00    +0.000 C 
ATOM     11  O4* UNL     1       3.140   2.295  19.449  0.00  0.00    +0.000 OA
ATOM     12  C4* UNL     1       1.832   2.336  20.070  0.00  0.00    +0.000 C 
ATOM     13  C3* UNL     1       1.681   3.720  20.694  0.00  0.00    +0.000 C 
ATOM     14  C2* UNL     1       2.612   4.592  19.867  0.00  0.00    +0.000 C 
BRANCH  13  15
ATOM     15  O3* UNL     1       2.142   3.752  22.058  0.00  0.00    +0.000 OA
ATOM     16  H3* UNL     1       1.371   3.765  22.657  0.00  0.00    +0.000 HD
ENDBRANCH  13  15
BRANCH  14  17
ATOM     17  O2* UNL     1       3.056   5.720  20.620  0.00  0.00    +0.000 OA
ATOM     18  H2* UNL     1       4.031   5.636  20.691  0.00  0.00    +0.000 HD
ENDBRANCH  14  17
BRANCH  12  19
ATOM     19  C5* UNL     1       0.767   2.045  19.011  0.00  0.00    +0.000 C 
BRANCH  19  20
ATOM     20  O5* UNL     1       1.386   1.673  17.782  0.00  0.00    +0.000 OA
ATOM     21  H5* UNL     1       2.318   1.957  17.840  0.00  0.00    +0.000 HD
ENDBRANCH  19  20
ENDBRANCH  12  19
ENDBRANCH   9  10
BRANCH   1  22
ATOM     22  N   UNL     1       7.397   5.638  15.054  0.00  0.00    +0.000 N 
ATOM     23  H   UNL     1       7.050   4.846  14.524  0.00  0.00    +0.000 HD
ATOM     24  H   UNL     1       7.233   6.550  14.653  0.00  0.00    +0.000 HD
ENDBRANCH   1  22
TORSDOF 6
ENDMDL
MODEL 3
REMARK VINA RESULT:      -6.9      1.273      3.015
REMARK  Name = 
REMARK  6 active torsions:
REMARK  status: ('A' for Active; 'I' for Inactive)
REMARK    1  A    between atoms: N_1  and  C_2
REMARK    2  A    between atoms: N_10  and  C1*_11
REMARK    3  A    between atoms: C4*_13  and  C5*_14
REMARK    4  A    between atoms: C5*_14  and  O5*_15
REMARK    5  A    between atoms: C3*_16  and  O3*_17
REMARK    6  A    between atoms: C2*_18  and  O2*_19
REMARK                            x       y       z     vdW  Elec       q    Type
REMARK                         _______ _______ _______ _____ _____    ______ ____
ROOT
ATOM      1  C   UNL     1       1.116   3.372  19.503  0.00  0.00    +0.000 A 
ATOM      2  N   UNL     1       0.942   4.161  20.585  0.00  0.00    +0.000 NA
ATOM      3  C   UNL     1       1.824   5.151  20.831  0.00  0.00    +0.000 A 
ATOM      4  C   UNL     1       2.924   5.455  20.044  0.00  0.00    +0.000 A 
ATOM      5  C   UNL     1       3.094   4.651  18.912  0.00  0.00    +0.000 A 
ATOM      6  C   UNL     1       2.201   3.611  18.630  0.00  0.00    +0.000 A 
ATOM      7  C   UNL     1       2.656   2.993  17.430  0.00  0.00    +0.000 A 
ATOM      8  C   UNL     1       3.789   3.652  17.018  0.00  0.00    +0.000 A 
ATOM      9  N   UNL     1       4.053   4.659  17.914  0.00  0.00    +0.000 N 
ENDROOT
BRANCH   9  10
ATOM     10  C1* UNL     1       5.181   5.585  17.841  0.00  0.00    +0.000 C 
ATOM     11  O4* UNL     1       5.416   5.958  16.460  0.00  0.00    +0.000 OA
ATOM     12  C4* UNL     1       6.844   5.986  16.222  0.00  0.00    +0.000 C 
ATOM     13  C3* UNL     1       7.524   5.764  17.569  0.00  0.00    +0.000 C 
ATOM     14  C2* UNL     1       6.486   4.997  18.373  0.00  0.00    +0.000 C 
BRANCH  13  15
ATOM     15  O3* UNL     1       7.785   7.003  18.254  0.00  0.00    +0.000 OA
ATOM     16  H3* UNL     1       7.901   7.715  17.596  0.00  0.00    +0.000 HD
ENDBRANCH  13  15
BRANCH  14  17
ATOM     17  O2* UNL     1       6.670   5.207  19.773  0.00  0.00    +0.000 OA
ATOM     18  H2* UNL     1       6.289   6.089  19.970  0.00  0.00    +0.000 HD
ENDBRANCH  14  17
BRANCH  12  19
ATOM     19  C5* UNL     1       7.200   4.910  15.194  0.00  0.00    +0.000 C 
BRANCH  19  20
ATOM     20  O5* UNL     1       7.896   5.493  14.094  0.00  0.00    +0.000 OA
ATOM     21  H5* UNL     1       7.610   5.012  13.294  0.00  0.00    +0.000 HD
ENDBRANCH  19  20
ENDBRANCH  12  19
ENDBRANCH   9  10
BRANCH   1  22
ATOM     22  N   UNL     1       0.180   2.366  19.305  0.00  0.00    +0.000 N 
ATOM     23  H   UNL     1      -0.753   2.746  19.419  0.00  0.00    +0.000 HD
ATOM     24  H   UNL     1       0.339   1.811  18.477  0.00  0.00    +0.000 HD
ENDBRANCH   1  22
TORSDOF 6
ENDMDL
MODEL 4
REMARK VINA RESULT:      -6.9      1.632      3.364
REMARK  Name = 
REMARK  6 active torsions:
REMARK  status: ('A' for Active; 'I' for Inactive)
REMARK    1  A    between atoms: N_1  and  C_2
REMARK    2  A    between atoms: N_10  and  C1*_11
REMARK    3  A    between atoms: C4*_13  and  C5*_14
REMARK    4  A    between atoms: C5*_14  and  O5*_15
REMARK    5  A    between atoms: C3*_16  and  O3*_17
REMARK    6  A    between atoms: C2*_18  and  O2*_19
REMARK                            x       y       z     vdW  Elec       q    Type
REMARK                         _______ _______ _______ _____ _____    ______ ____
ROOT
ATOM      1  C   UNL     1       1.634   3.928  20.456  0.00  0.00    +0.000 A 
ATOM      2  N   UNL     1       1.331   5.193  20.816  0.00  0.00    +0.000 NA
ATOM      3  C   UNL     1       2.038   6.217  20.294  0.00  0.00    +0.000 A 
ATOM      4  C   UNL     1       3.073   6.089  19.380  0.00  0.00    +0.000 A 
ATOM      5  C   UNL     1       3.374   4.780  18.992  0.00  0.00    +0.000 A 
ATOM      6  C   UNL     1       2.664   3.694  19.519  0.00  0.00    +0.000 A 
ATOM      7  C   UNL     1       3.216   2.519  18.932  0.00  0.00    +0.000 A 
ATOM      8  C   UNL     1       4.225   2.904  18.082  0.00  0.00    +0.000 A 
ATOM      9  N   UNL     1       4.318   4.275  18.116  0.00  0.00    +0.000 N 
ENDROOT
BRANCH   9  10
ATOM     10  C1* UNL     1       5.278   5.077  17.362  0.00  0.00    +0.000 C 
ATOM     11  O4* UNL     1       4.714   5.429  16.074  0.00  0.00    +0.000 OA
ATOM     12  C4* UNL     1       5.746   5.308  15.065  0.00  0.00    +0.000 C 
ATOM     13  C3* UNL     1       7.051   5.012  15.797  0.00  0.00    +0.000 C 
ATOM     14  C2* UNL     1       6.596   4.355  17.091  0.00  0.00    +0.000 C 
BRANCH  13  15
ATOM     15  O3* UNL     1       7.764   6.214  16.140  0.00  0.00    +0.000 OA
ATOM     16  H3* UNL     1       8.342   6.037  16.906  0.00  0.00    +0.000 HD
ENDBRANCH  13  15
BRANCH  14  17
ATOM     17  O2* UNL     1       7.564   4.540  18.123  0.00  0.00    +0.000 OA
ATOM     18  H2* UNL     1       7.098   4.993  18.858  0.00  0.00    +0.000 HD
ENDBRANCH  14  17
BRANCH  12  19
ATOM     19  C5* UNL     1       5.355   4.203  14.080  0.00  0.00    +0.000 C 
BRANCH  19  20
ATOM     20  O5* UNL     1       6.492   3.400  13.769  0.00  0.00    +0.000 OA
ATOM     21  H5* UNL     1       7.280   3.933  13.986  0.00  0.00    +0.000 HD
ENDBRANCH  19  20
ENDBRANCH  12  19
ENDBRANCH   9  10
BRANCH   1  22
ATOM     22  N   UNL     1       0.877   2.916  21.031  0.00  0.00    +0.000 N 
ATOM     23  H   UNL     1       0.901   3.009  22.041  0.00  0.00    +0.000 HD
ATOM     24  H   UNL     1      -0.035   2.794  20.615  0.00  0.00    +0.000 HD
ENDBRANCH   1  22
TORSDOF 6
ENDMDL
MODEL 5
REMARK VINA RESULT:      -6.8      0.802      2.040
REMARK  Name = 
REMARK  6 active torsions:
REMARK  status: ('A' for Active; 'I' for Inactive)
REMARK    1  A    between atoms: N_1  and  C_2
REMARK    2  A    between atoms: N_10  and  C1*_11
REMARK    3  A    between atoms: C4*_13  and  C5*_14
REMARK    4  A    between atoms: C5*_14  and  O5*_15
REMARK    5  A    between atoms: C3*_16  and  O3*_17
REMARK    6  A    between atoms: C2*_18  and  O2*_19
REMARK                            x       y       z     vdW  Elec       q    Type
REMARK                         _______ _______ _______ _____ _____    ______ ____
ROOT
ATOM      1  C   UNL     1       1.441   3.915  19.800  0.00  0.00    +0.000 A 
ATOM      2  N   UNL     1       1.517   5.124  20.397  0.00  0.00    +0.000 NA
ATOM      3  C   UNL     1       2.566   5.930  20.131  0.00  0.00    +0.000 A 
ATOM      4  C   UNL     1       3.604   5.628  19.263  0.00  0.00    +0.000 A 
ATOM      5  C   UNL     1       3.517   4.385  18.629  0.00  0.00    +0.000 A 
ATOM      6  C   UNL     1       2.445   3.522  18.887  0.00  0.00    +0.000 A 
ATOM      7  C   UNL     1       2.660   2.355  18.099  0.00  0.00    +0.000 A 
ATOM      8  C   UNL     1       3.828   2.526  17.397  0.00  0.00    +0.000 A 
ATOM      9  N   UNL     1       4.346   3.758  17.716  0.00  0.00    +0.000 N 
ENDROOT
BRANCH   9  10
ATOM     10  C1* UNL     1       5.590   4.316  17.191  0.00  0.00    +0.000 C 
ATOM     11  O4* UNL     1       6.660   4.106  18.147  0.00  0.00    +0.000 OA
ATOM     12  C4* UNL     1       7.477   5.300  18.202  0.00  0.00    +0.000 C 
ATOM     13  C3* UNL     1       6.969   6.237  17.110  0.00  0.00    +0.000 C 
ATOM     14  C2* UNL     1       5.519   5.818  16.924  0.00  0.00    +0.000 C 
BRANCH  13  15
ATOM     15  O3* UNL     1       7.652   6.032  15.860  0.00  0.00    +0.000 OA
ATOM     16  H3* UNL     1       8.048   5.139  15.853  0.00  0.00    +0.000 HD
ENDBRANCH  13  15
BRANCH  14  17
ATOM     17  O2* UNL     1       5.062   6.136  15.609  0.00  0.00    +0.000 OA
ATOM     18  H2* UNL     1       4.592   6.994  15.682  0.00  0.00    +0.000 HD
ENDBRANCH  14  17
BRANCH  12  19
ATOM     19  C5* UNL     1       7.376   5.912  19.601  0.00  0.00    +0.000 C 
BRANCH  19  20
ATOM     20  O5* UNL     1       8.260   5.239  20.495  0.00  0.00    +0.000 OA
ATOM     21  H5* UNL     1       7.744   4.528  20.919  0.00  0.00    +0.000 HD
ENDBRANCH  19  20
ENDBRANCH  12  19
ENDBRANCH   9  10
BRANCH   1  22
ATOM     22  N   UNL     1       0.343   3.128  20.117  0.00  0.00    +0.000 N 
ATOM     23  H   UNL     1      -0.280   3.082  19.319  0.00  0.00    +0.000 HD
ATOM     24  H   UNL     1       0.577   2.248  20.553  0.00  0.00    +0.000 HD
ENDBRANCH   1  22
TORSDOF 6
ENDMDL
MODEL 6
REMARK VINA RESULT:      -6.8      3.197      5.778
REMARK  Name = 
REMARK  6 active torsions:
REMARK  status: ('A' for Active; 'I' for Inactive)
REMARK    1  A    between atoms: N_1  and  C_2
REMARK    2  A    between atoms: N_10  and  C1*_11
REMARK    3  A    between atoms: C4*_13  and  C5*_14
REMARK    4  A    between atoms: C5*_14  and  O5*_15
REMARK    5  A    between atoms: C3*_16  and  O3*_17
REMARK    6  A    between atoms: C2*_18  and  O2*_19
REMARK                            x       y       z     vdW  Elec       q    Type
REMARK                         _______ _______ _______ _____ _____    ______ ____
ROOT
ATOM      1  C   UNL     1       6.771   6.000  16.471  0.00  0.00    +0.000 A 
ATOM      2  N   UNL     1       6.633   5.523  15.216  0.00  0.00    +0.000 NA
ATOM      3  C   UNL     1       5.611   4.689  14.933  0.00  0.00    +0.000 A 
ATOM      4  C   UNL     1       4.647   4.271  15.838  0.00  0.00    +0.000 A 
ATOM      5  C   UNL     1       4.777   4.781  17.134  0.00  0.00    +0.000 A 
ATOM      6  C   UNL     1       5.830   5.644  17.463  0.00  0.00    +0.000 A 
ATOM      7  C   UNL     1       5.678   5.968  18.842  0.00  0.00    +0.000 A 
ATOM      8  C   UNL     1       4.567   5.312  19.312  0.00  0.00    +0.000 A 
ATOM      9  N   UNL     1       4.019   4.595  18.276  0.00  0.00    +0.000 N 
ENDROOT
BRANCH   9  10
ATOM     10  C1* UNL     1       2.831   3.749  18.366  0.00  0.00    +0.000 C 
ATOM     11  O4* UNL     1       1.876   4.345  19.280  0.00  0.00    +0.000 OA
ATOM     12  C4* UNL     1       1.291   3.297  20.091  0.00  0.00    +0.000 C 
ATOM     13  C3* UNL     1       1.804   1.970  19.541  0.00  0.00    +0.000 C 
ATOM     14  C2* UNL     1       3.124   2.341  18.881  0.00  0.00    +0.000 C 
BRANCH  13  15
ATOM     15  O3* UNL     1       0.938   1.434  18.524  0.00  0.00    +0.000 OA
ATOM     16  H3* UNL     1       0.218   2.070  18.347  0.00  0.00    +0.000 HD
ENDBRANCH  13  15
BRANCH  14  17
ATOM     17  O2* UNL     1       3.451   1.417  17.843  0.00  0.00    +0.000 OA
ATOM     18  H2* UNL     1       4.331   1.050  18.070  0.00  0.00    +0.000 HD
ENDBRANCH  14  17
BRANCH  12  19
ATOM     19  C5* UNL     1       1.680   3.522  21.554  0.00  0.00    +0.000 C 
BRANCH  19  20
ATOM     20  O5* UNL     1       1.498   2.319  22.299  0.00  0.00    +0.000 OA
ATOM     21  H5* UNL     1       0.870   2.526  23.017  0.00  0.00    +0.000 HD
ENDBRANCH  19  20
ENDBRANCH  12  19
ENDBRANCH   9  10
BRANCH   1  22
ATOM     22  N   UNL     1       7.845   6.849  16.704  0.00  0.00    +0.000 N 
ATOM     23  H   UNL     1       8.311   7.050  15.827  0.00  0.00    +0.000 HD
ATOM     24  H   UNL     1       7.625   7.643  17.287  0.00  0.00    +0.000 HD
ENDBRANCH   1  22
TORSDOF 6
ENDMDL
MODEL 7
REMARK VINA RESULT:      -6.7      1.308      2.503
REMARK  Name = 
REMARK  6 active torsions:
REMARK  status: ('A' for Active; 'I' for Inactive)
REMARK    1  A    between atoms: N_1  and  C_2
REMARK    2  A    between atoms: N_10  and  C1*_11
REMARK    3  A    between atoms: C4*_13  and  C5*_14
REMARK    4  A    between atoms: C5*_14  and  O5*_15
REMARK    5  A    between atoms: C3*_16  and  O3*_17
REMARK    6  A    between atoms: C2*_18  and  O2*_19
REMARK                            x       y       z     vdW  Elec       q    Type
REMARK                         _______ _______ _______ _____ _____    ______ ____
ROOT
ATOM      1  C   UNL     1       1.688   3.035  19.776  0.00  0.00    +0.000 A 
ATOM      2  N   UNL     1       2.120   1.901  19.183  0.00  0.00    +0.000 NA
ATOM      3  C   UNL     1       3.165   1.957  18.331  0.00  0.00    +0.000 A 
ATOM      4  C   UNL     1       3.870   3.105  18.005  0.00  0.00    +0.000 A 
ATOM      5  C   UNL     1       3.436   4.276  18.634  0.00  0.00    +0.000 A 
ATOM      6  C   UNL     1       2.351   4.256  19.519  0.00  0.00    +0.000 A 
ATOM      7  C   UNL     1       2.165   5.594  19.972  0.00  0.00    +0.000 A 
ATOM      8  C   UNL     1       3.115   6.381  19.368  0.00  0.00    +0.000 A 
ATOM      9  N   UNL     1       3.887   5.582  18.559  0.00  0.00    +0.000 N 
ENDROOT
BRANCH   9  10
ATOM     10  C1* UNL     1       5.001   6.039  17.732  0.00  0.00    +0.000 C 
ATOM     11  O4* UNL     1       4.692   5.816  16.333  0.00  0.00    +0.000 OA
ATOM     12  C4* UNL     1       5.880   5.329  15.664  0.00  0.00    +0.000 C 
ATOM     13  C3* UNL     1       7.020   5.399  16.676  0.00  0.00    +0.000 C 
ATOM     14  C2* UNL     1       6.313   5.311  18.020  0.00  0.00    +0.000 C 
BRANCH  13  15
ATOM     15  O3* UNL     1       7.713   6.659  16.624  0.00  0.00    +0.000 OA
ATOM     16  H3* UNL     1       7.526   7.094  15.770  0.00  0.00    +0.000 HD
ENDBRANCH  13  15
BRANCH  14  17
ATOM     17  O2* UNL     1       7.089   5.932  19.045  0.00  0.00    +0.000 OA
ATOM     18  H2* UNL     1       7.976   6.093  18.658  0.00  0.00    +0.000 HD
ENDBRANCH  14  17
BRANCH  12  19
ATOM     19  C5* UNL     1       5.623   3.907  15.161  0.00  0.00    +0.000 C 
BRANCH  19  20
ATOM     20  O5* UNL     1       6.470   3.619  14.050  0.00  0.00    +0.000 OA
ATOM     21  H5* UNL     1       7.027   2.861  14.311  0.00  0.00    +0.000 HD
ENDBRANCH  19  20
ENDBRANCH  12  19
ENDBRANCH   9  10
BRANCH   1  22
ATOM     22  N   UNL     1       0.606   2.917  20.637  0.00  0.00    +0.000 N 
ATOM     23  H   UNL     1       0.647   2.021  21.109  0.00  0.00    +0.000 HD
ATOM     24  H   UNL     1       0.454   3.725  21.223  0.00  0.00    +0.000 HD
ENDBRANCH   1  22
TORSDOF 6
ENDMDL
MODEL 8
REMARK VINA RESULT:      -6.6      2.887      5.415
REMARK  Name = 
REMARK  6 active torsions:
REMARK  status: ('A' for Active; 'I' for Inactive)
REMARK    1  A    between atoms: N_1  and  C_2
REMARK    2  A    between atoms: N_10  and  C1*_11
REMARK    3  A    between atoms: C4*_13  and  C5*_14
REMARK    4  A    between atoms: C5*_14  and  O5*_15
REMARK    5  A    between atoms: C3*_16  and  O3*_17
REMARK    6  A    between atoms: C2*_18  and  O2*_19
REMARK                            x       y       z     vdW  Elec       q    Type
REMARK                         _______ _______ _______ _____ _____    ______ ____
ROOT
ATOM      1  C   UNL     1       6.883   5.009  15.222  0.00  0.00    +0.000 A 
ATOM      2  N   UNL     1       5.947   4.318  14.538  0.00  0.00    +0.000 NA
ATOM      3  C   UNL     1       4.911   3.766  15.205  0.00  0.00    +0.000 A 
ATOM      4  C   UNL     1       4.704   3.858  16.573  0.00  0.00    +0.000 A 
ATOM      5  C   UNL     1       5.663   4.590  17.280  0.00  0.00    +0.000 A 
ATOM      6  C   UNL     1       6.753   5.170  16.619  0.00  0.00    +0.000 A 
ATOM      7  C   UNL     1       7.532   5.828  17.614  0.00  0.00    +0.000 A 
ATOM      8  C   UNL     1       6.917   5.640  18.828  0.00  0.00    +0.000 A 
ATOM      9  N   UNL     1       5.783   4.892  18.625  0.00  0.00    +0.000 N 
ENDROOT
BRANCH   9  10
ATOM     10  C1* UNL     1       4.854   4.462  19.667  0.00  0.00    +0.000 C 
ATOM     11  O4* UNL     1       4.871   3.016  19.769  0.00  0.00    +0.000 OA
ATOM     12  C4* UNL     1       3.514   2.545  19.952  0.00  0.00    +0.000 C 
ATOM     13  C3* UNL     1       2.634   3.780  20.122  0.00  0.00    +0.000 C 
ATOM     14  C2* UNL     1       3.407   4.874  19.400  0.00  0.00    +0.000 C 
BRANCH  13  15
ATOM     15  O3* UNL     1       2.506   4.168  21.502  0.00  0.00    +0.000 OA
ATOM     16  H3* UNL     1       1.619   3.915  21.825  0.00  0.00    +0.000 HD
ENDBRANCH  13  15
BRANCH  14  17
ATOM     17  O2* UNL     1       3.080   6.159  19.927  0.00  0.00    +0.000 OA
ATOM     18  H2* UNL     1       2.916   6.739  19.152  0.00  0.00    +0.000 HD
ENDBRANCH  14  17
BRANCH  12  19
ATOM     19  C5* UNL     1       3.113   1.694  18.745  0.00  0.00    +0.000 C 
BRANCH  19  20
ATOM     20  O5* UNL     1       4.173   0.806  18.398  0.00  0.00    +0.000 OA
ATOM     21  H5* UNL     1       5.003   1.313  18.482  0.00  0.00    +0.000 HD
ENDBRANCH  19  20
ENDBRANCH  12  19
ENDBRANCH   9  10
BRANCH   1  22
ATOM     22  N   UNL     1       7.928   5.547  14.483  0.00  0.00    +0.000 N 
ATOM     23  H   UNL     1       8.143   4.932  13.706  0.00  0.00    +0.000 HD
ATOM     24  H   UNL     1       7.817   6.525  14.261  0.00  0.00    +0.000 HD
ENDBRANCH   1  22
TORSDOF 6
ENDMDL
MODEL 9
REMARK VINA RESULT:      -6.5      1.041      1.290
REMARK  Name = 
REMARK  6 active torsions:
REMARK  status: ('A' for Active; 'I' for Inactive)
REMARK    1  A    between atoms: N_1  and  C_2
REMARK    2  A    between atoms: N_10  and  C1*_11
REMARK    3  A    between atoms: C4*_13  and  C5*_14
REMARK    4  A    between atoms: C5*_14  and  O5*_15
REMARK    5  A    between atoms: C3*_16  and  O3*_17
REMARK    6  A    between atoms: C2*_18  and  O2*_19
REMARK                            x       y       z     vdW  Elec       q    Type
REMARK                         _______ _______ _______ _____ _____    ______ ____
ROOT
ATOM      1  C   UNL     1       1.356   3.242  19.574  0.00  0.00    +0.000 A 
ATOM      2  N   UNL     1       1.194   2.121  18.840  0.00  0.00    +0.000 NA
ATOM      3  C   UNL     1       2.157   1.754  17.968  0.00  0.00    +0.000 A 
ATOM      4  C   UNL     1       3.344   2.438  17.756  0.00  0.00    +0.000 A 
ATOM      5  C   UNL     1       3.522   3.589  18.530  0.00  0.00    +0.000 A 
ATOM      6  C   UNL     1       2.540   4.001  19.440  0.00  0.00    +0.000 A 
ATOM      7  C   UNL     1       3.022   5.195  20.050  0.00  0.00    +0.000 A 
ATOM      8  C   UNL     1       4.255   5.478  19.513  0.00  0.00    +0.000 A 
ATOM      9  N   UNL     1       4.559   4.503  18.594  0.00  0.00    +0.000 N 
ENDROOT
BRANCH   9  10
ATOM     10  C1* UNL     1       5.778   4.447  17.790  0.00  0.00    +0.000 C 
ATOM     11  O4* UNL     1       6.901   4.917  18.576  0.00  0.00    +0.000 OA
ATOM     12  C4* UNL     1       7.743   5.744  17.737  0.00  0.00    +0.000 C 
ATOM     13  C3* UNL     1       7.185   5.653  16.320  0.00  0.00    +0.000 C 
ATOM     14  C2* UNL     1       5.718   5.312  16.533  0.00  0.00    +0.000 C 
BRANCH  13  15
ATOM     15  O3* UNL     1       7.784   4.579  15.571  0.00  0.00    +0.000 OA
ATOM     16  H3* UNL     1       8.634   4.335  15.984  0.00  0.00    +0.000 HD
ENDBRANCH  13  15
BRANCH  14  17
ATOM     17  O2* UNL     1       5.186   4.625  15.400  0.00  0.00    +0.000 OA
ATOM     18  H2* UNL     1       4.522   3.993  15.750  0.00  0.00    +0.000 HD
ENDBRANCH  14  17
BRANCH  12  19
ATOM     19  C5* UNL     1       7.742   7.174  18.282  0.00  0.00    +0.000 C 
BRANCH  19  20
ATOM     20  O5* UNL     1       7.782   8.109  17.206  0.00  0.00    +0.000 OA
ATOM     21  H5* UNL     1       6.914   8.554  17.188  0.00  0.00    +0.000 HD
ENDBRANCH  19  20
ENDBRANCH  12  19
ENDBRANCH   9  10
BRANCH   1  22
ATOM     22  N   UNL     1       0.330   3.572  20.448  0.00  0.00    +0.000 N 
ATOM     23  H   UNL     1      -0.136   4.411  20.121  0.00  0.00    +0.000 HD
ATOM     24  H   UNL     1      -0.267   2.797  20.697  0.00  0.00    +0.000 HD
ENDBRANCH   1  22
TORSDOF 6
ENDMDL
