MODEL 1
REMARK VINA RESULT:      -7.2      0.000      0.000
REMARK  Name = 
REMARK  13 active torsions:
REMARK  status: ('A' for Active; 'I' for Inactive)
REMARK    1  A    between atoms: C_1  and  O_2
REMARK    2  A    between atoms: O_2  and  C_3
REMARK    3  A    between atoms: C_5  and  C_6
REMARK    4  A    between atoms: C_9  and  C_10
REMARK    5  A    between atoms: C_11  and  C_12
REMARK    6  A    between atoms: N_14  and  C_15
REMARK    7  A    between atoms: C_15  and  C_16
REMARK    8  A    between atoms: C_16  and  C_17
REMARK    9  A    between atoms: C_17  and  N_18
REMARK   10  A    between atoms: C_24  and  O_25
REMARK   11  A    between atoms: O_25  and  C_26
REMARK   12  A    between atoms: C_27  and  O_28
REMARK   13  A    between atoms: O_28  and  C_29
REMARK                            x       y       z     vdW  Elec       q    Type
REMARK                         _______ _______ _______ _____ _____    ______ ____
ROOT
ATOM      1  C   UNL     1       5.132   4.599  15.643  0.00  0.00    +0.000 A 
ATOM      2  N   UNL     1       4.770   4.107  14.449  0.00  0.00    +0.000 NA
ATOM      3  O   UNL     1       5.821   4.348  13.593  0.00  0.00    +0.000 OA
ATOM      4  C   UNL     1       6.825   4.976  14.257  0.00  0.00    +0.000 A 
ATOM      5  C   UNL     1       8.044   5.249  13.473  0.00  0.00    +0.000 C 
ATOM      6  C   UNL     1       6.454   5.157  15.573  0.00  0.00    +0.000 A 
ENDROOT
BRANCH   1   9
ATOM      7  C   UNL     1       3.577   3.198  18.772  0.00  0.00    +0.000 A 
ATOM      8  C   UNL     1       4.156   3.264  17.493  0.00  0.00    +0.000 A 
ATOM      9  C   UNL     1       4.264   4.479  16.817  0.00  0.00    +0.000 A 
ATOM     10  C   UNL     1       3.617   5.588  17.355  0.00  0.00    +0.000 A 
ATOM     11  C   UNL     1       2.989   5.545  18.607  0.00  0.00    +0.000 A 
ATOM     12  C   UNL     1       2.975   4.344  19.345  0.00  0.00    +0.000 A 
BRANCH   7  14
ATOM     13  C   UNL     1       4.671   1.818  20.366  0.00  0.00    +0.000 C 
ATOM     14  O   UNL     1       3.581   2.012  19.463  0.00  0.00    +0.000 OA
ENDBRANCH   7  14
BRANCH  11  15
ATOM     15  O   UNL     1       2.495   6.780  18.943  0.00  0.00    +0.000 OA
ATOM     16  C   UNL     1       2.368   7.780  17.946  0.00  0.00    +0.000 C 
ENDBRANCH  11  15
BRANCH  12  17
ATOM     17  O   UNL     1       2.350   4.397  20.562  0.00  0.00    +0.000 OA
ATOM     18  C   UNL     1       1.050   3.857  20.729  0.00  0.00    +0.000 C 
ENDBRANCH  12  17
ENDBRANCH   1   9
BRANCH   6  19
ATOM     19  C   UNL     1       7.245   5.703  16.656  0.00  0.00    +0.000 C 
ATOM     20  O   UNL     1       7.835   4.989  17.458  0.00  0.00    +0.000 OA
ATOM     21  N   UNL     1       7.233   7.084  16.769  0.00  0.00    +0.000 N 
ATOM     22  H   UNL     1       6.777   7.637  16.061  0.00  0.00    +0.000 HD
BRANCH  21  23
ATOM     23  C   UNL     1       7.854   7.749  17.898  0.00  0.00    +0.000 C 
BRANCH  23  24
ATOM     24  C   UNL     1       8.167   9.210  17.600  0.00  0.00    +0.000 C 
BRANCH  24  25
ATOM     25  C   UNL     1       8.834   9.921  18.780  0.00  0.00    +0.000 C 
BRANCH  25  26
ATOM     26  N   UNL     1       9.457  11.169  18.377  0.00  0.00    +0.000 N 
ATOM     27  C   UNL     1       8.812  12.321  18.032  0.00  0.00    +0.000 A 
ATOM     28  C   UNL     1       9.820  13.209  17.731  0.00  0.00    +0.000 A 
ATOM     29  N   UNL     1      11.049  12.627  17.887  0.00  0.00    +0.000 NA
ATOM     30  C   UNL     1      10.803  11.395  18.270  0.00  0.00    +0.000 A 
ENDBRANCH  25  26
ENDBRANCH  24  25
ENDBRANCH  23  24
ENDBRANCH  21  23
ENDBRANCH   6  19
TORSDOF 9
ENDMDL
MODEL 2
REMARK VINA RESULT:      -6.9      0.595      2.442
REMARK  Name = 
REMARK  13 active torsions:
REMARK  status: ('A' for Active; 'I' for Inactive)
REMARK    1  A    between atoms: C_1  and  O_2
REMARK    2  A    between atoms: O_2  and  C_3
REMARK    3  A    between atoms: C_5  and  C_6
REMARK    4  A    between atoms: C_9  and  C_10
REMARK    5  A    between atoms: C_11  and  C_12
REMARK    6  A    between atoms: N_14  and  C_15
REMARK    7  A    between atoms: C_15  and  C_16
REMARK    8  A    between atoms: C_16  and  C_17
REMARK    9  A    between atoms: C_17  and  N_18
REMARK   10  A    between atoms: C_24  and  O_25
REMARK   11  A    between atoms: O_25  and  C_26
REMARK   12  A    between atoms: C_27  and  O_28
REMARK   13  A    between atoms: O_28  and  C_29
REMARK                            x       y       z     vdW  Elec       q    Type
REMARK                         _______ _______ _______ _____ _____    ______ ____
ROOT
ATOM      1  C   UNL     1       5.180   4.826  16.082  0.00  0.00    +0.000 A 
ATOM      2  N   UNL     1       4.686   4.313  14.945  0.00  0.00    +0.000 NA
ATOM      3  O   UNL     1       5.660   4.478  13.986  0.00  0.00    +0.000 OA
ATOM      4  C   UNL     1       6.748   5.080  14.530  0.00  0.00    +0.000 A 
ATOM      5  C   UNL     1       7.897   5.273  13.626  0.00  0.00    +0.000 C 
ATOM      6  C   UNL     1       6.512   5.321  15.868  0.00  0.00    +0.000 A 
ENDROOT
BRANCH   1   9
ATOM      7  C   UNL     1       2.798   5.827  18.818  0.00  0.00    +0.000 A 
ATOM      8  C   UNL     1       3.757   5.919  17.795  0.00  0.00    +0.000 A 
ATOM      9  C   UNL     1       4.424   4.783  17.335  0.00  0.00    +0.000 A 
ATOM     10  C   UNL     1       4.256   3.594  18.039  0.00  0.00    +0.000 A 
ATOM     11  C   UNL     1       3.342   3.480  19.095  0.00  0.00    +0.000 A 
ATOM     12  C   UNL     1       2.583   4.600  19.491  0.00  0.00    +0.000 A 
BRANCH   7  14
ATOM     13  C   UNL     1       2.269   8.099  18.369  0.00  0.00    +0.000 C 
ATOM     14  O   UNL     1       2.076   6.938  19.179  0.00  0.00    +0.000 OA
ENDBRANCH   7  14
BRANCH  11  15
ATOM     15  O   UNL     1       3.310   2.193  19.570  0.00  0.00    +0.000 OA
ATOM     16  C   UNL     1       3.647   1.119  18.709  0.00  0.00    +0.000 C 
ENDBRANCH  11  15
BRANCH  12  17
ATOM     17  O   UNL     1       1.707   4.395  20.523  0.00  0.00    +0.000 OA
ATOM     18  C   UNL     1       0.562   3.577  20.345  0.00  0.00    +0.000 C 
ENDBRANCH  12  17
ENDBRANCH   1   9
BRANCH   6  19
ATOM     19  C   UNL     1       7.425   5.864  16.852  0.00  0.00    +0.000 C 
ATOM     20  O   UNL     1       8.093   5.149  17.589  0.00  0.00    +0.000 OA
ATOM     21  N   UNL     1       7.441   7.246  16.954  0.00  0.00    +0.000 N 
ATOM     22  H   UNL     1       6.914   7.800  16.297  0.00  0.00    +0.000 HD
BRANCH  21  23
ATOM     23  C   UNL     1       8.191   7.911  18.002  0.00  0.00    +0.000 C 
BRANCH  23  24
ATOM     24  C   UNL     1       8.157   9.428  17.854  0.00  0.00    +0.000 C 
BRANCH  24  25
ATOM     25  C   UNL     1       9.104  10.134  18.828  0.00  0.00    +0.000 C 
BRANCH  25  26
ATOM     26  N   UNL     1       9.573  11.403  18.300  0.00  0.00    +0.000 N 
ATOM     27  C   UNL     1       8.875  12.576  18.274  0.00  0.00    +0.000 A 
ATOM     28  C   UNL     1       9.731  13.478  17.684  0.00  0.00    +0.000 A 
ATOM     29  N   UNL     1      10.921  12.885  17.357  0.00  0.00    +0.000 NA
ATOM     30  C   UNL     1      10.797  11.632  17.732  0.00  0.00    +0.000 A 
ENDBRANCH  25  26
ENDBRANCH  24  25
ENDBRANCH  23  24
ENDBRANCH  21  23
ENDBRANCH   6  19
TORSDOF 9
ENDMDL
MODEL 3
REMARK VINA RESULT:      -6.9      5.244      8.050
REMARK  Name = 
REMARK  13 active torsions:
REMARK  status: ('A' for Active; 'I' for Inactive)
REMARK    1  A    between atoms: C_1  and  O_2
REMARK    2  A    between atoms: O_2  and  C_3
REMARK    3  A    between atoms: C_5  and  C_6
REMARK    4  A    between atoms: C_9  and  C_10
REMARK    5  A    between atoms: C_11  and  C_12
REMARK    6  A    between atoms: N_14  and  C_15
REMARK    7  A    between atoms: C_15  and  C_16
REMARK    8  A    between atoms: C_16  and  C_17
REMARK    9  A    between atoms: C_17  and  N_18
REMARK   10  A    between atoms: C_24  and  O_25
REMARK   11  A    between atoms: O_25  and  C_26
REMARK   12  A    between atoms: C_27  and  O_28
REMARK   13  A    between atoms: O_28  and  C_29
REMARK                            x       y       z     vdW  Elec       q    Type
REMARK                         _______ _______ _______ _____ _____    ______ ____
ROOT
ATOM      1  C   UNL     1       2.291   7.844  18.470  0.00  0.00    +0.000 A 
ATOM      2  N   UNL     1       2.542   8.480  17.316  0.00  0.00    +0.000 NA
ATOM      3  O   UNL     1       2.025   9.749  17.449  0.00  0.00    +0.000 OA
ATOM      4  C   UNL     1       1.466   9.895  18.677  0.00  0.00    +0.000 A 
ATOM      5  C   UNL     1       0.917  11.230  18.980  0.00  0.00    +0.000 C 
ATOM      6  C   UNL     1       1.610   8.719  19.384  0.00  0.00    +0.000 A 
ENDROOT
BRANCH   1   9
ATOM      7  C   UNL     1       2.480   4.091  18.253  0.00  0.00    +0.000 A 
ATOM      8  C   UNL     1       1.950   5.392  18.312  0.00  0.00    +0.000 A 
ATOM      9  C   UNL     1       2.742   6.471  18.704  0.00  0.00    +0.000 A 
ATOM     10  C   UNL     1       4.009   6.203  19.215  0.00  0.00    +0.000 A 
ATOM     11  C   UNL     1       4.551   4.911  19.215  0.00  0.00    +0.000 A 
ATOM     12  C   UNL     1       3.793   3.832  18.715  0.00  0.00    +0.000 A 
BRANCH   7  14
ATOM     13  C   UNL     1       0.882   2.394  18.710  0.00  0.00    +0.000 C 
ATOM     14  O   UNL     1       1.715   3.064  17.761  0.00  0.00    +0.000 OA
ENDBRANCH   7  14
BRANCH  11  15
ATOM     15  O   UNL     1       5.835   4.924  19.699  0.00  0.00    +0.000 OA
ATOM     16  C   UNL     1       6.855   5.578  18.963  0.00  0.00    +0.000 C 
ENDBRANCH  11  15
BRANCH  12  17
ATOM     17  O   UNL     1       4.406   2.607  18.743  0.00  0.00    +0.000 OA
ATOM     18  C   UNL     1       4.422   1.836  19.932  0.00  0.00    +0.000 C 
ENDBRANCH  12  17
ENDBRANCH   1   9
BRANCH   6  19
ATOM     19  C   UNL     1       1.242   8.454  20.759  0.00  0.00    +0.000 C 
ATOM     20  O   UNL     1       1.221   7.320  21.223  0.00  0.00    +0.000 OA
ATOM     21  N   UNL     1       0.847   9.558  21.497  0.00  0.00    +0.000 N 
ATOM     22  H   UNL     1       0.926  10.479  21.095  0.00  0.00    +0.000 HD
BRANCH  21  23
ATOM     23  C   UNL     1       0.305   9.412  22.834  0.00  0.00    +0.000 C 
BRANCH  23  24
ATOM     24  C   UNL     1      -0.874  10.346  23.079  0.00  0.00    +0.000 C 
BRANCH  24  25
ATOM     25  C   UNL     1      -0.711  11.694  22.372  0.00  0.00    +0.000 C 
BRANCH  25  26
ATOM     26  N   UNL     1      -1.962  12.158  21.799  0.00  0.00    +0.000 N 
ATOM     27  C   UNL     1      -3.093  12.490  22.487  0.00  0.00    +0.000 A 
ATOM     28  C   UNL     1      -3.996  12.863  21.517  0.00  0.00    +0.000 A 
ATOM     29  N   UNL     1      -3.441  12.768  20.268  0.00  0.00    +0.000 NA
ATOM     30  C   UNL     1      -2.217  12.333  20.465  0.00  0.00    +0.000 A 
ENDBRANCH  25  26
ENDBRANCH  24  25
ENDBRANCH  23  24
ENDBRANCH  21  23
ENDBRANCH   6  19
TORSDOF 9
ENDMDL
MODEL 4
REMARK VINA RESULT:      -6.8      5.536      8.119
REMARK  Name = 
REMARK  13 active torsions:
REMARK  status: ('A' for Active; 'I' for Inactive)
REMARK    1  A    between atoms: C_1  and  O_2
REMARK    2  A    between atoms: O_2  and  C_3
REMARK    3  A    between atoms: C_5  and  C_6
REMARK    4  A    between atoms: C_9  and  C_10
REMARK    5  A    between atoms: C_11  and  C_12
REMARK    6  A    between atoms: N_14  and  C_15
REMARK    7  A    between atoms: C_15  and  C_16
REMARK    8  A    between atoms: C_16  and  C_17
REMARK    9  A    between atoms: C_17  and  N_18
REMARK   10  A    between atoms: C_24  and  O_25
REMARK   11  A    between atoms: O_25  and  C_26
REMARK   12  A    between atoms: C_27  and  O_28
REMARK   13  A    between atoms: O_28  and  C_29
REMARK                            x       y       z     vdW  Elec       q    Type
REMARK                         _______ _______ _______ _____ _____    ______ ____
ROOT
ATOM      1  C   UNL     1       2.255   7.880  18.429  0.00  0.00    +0.000 A 
ATOM      2  N   UNL     1       2.475   8.524  17.274  0.00  0.00    +0.000 NA
ATOM      3  O   UNL     1       1.948   9.787  17.423  0.00  0.00    +0.000 OA
ATOM      4  C   UNL     1       1.415   9.922  18.665  0.00  0.00    +0.000 A 
ATOM      5  C   UNL     1       0.860  11.250  18.986  0.00  0.00    +0.000 C 
ATOM      6  C   UNL     1       1.586   8.744  19.363  0.00  0.00    +0.000 A 
ENDROOT
BRANCH   1   9
ATOM      7  C   UNL     1       2.457   4.128  18.216  0.00  0.00    +0.000 A 
ATOM      8  C   UNL     1       1.922   5.425  18.295  0.00  0.00    +0.000 A 
ATOM      9  C   UNL     1       2.725   6.511  18.647  0.00  0.00    +0.000 A 
ATOM     10  C   UNL     1       4.016   6.252  19.100  0.00  0.00    +0.000 A 
ATOM     11  C   UNL     1       4.564   4.963  19.079  0.00  0.00    +0.000 A 
ATOM     12  C   UNL     1       3.791   3.877  18.618  0.00  0.00    +0.000 A 
BRANCH   7  14
ATOM     13  C   UNL     1       0.843   2.465  18.740  0.00  0.00    +0.000 C 
ATOM     14  O   UNL     1       1.677   3.094  17.763  0.00  0.00    +0.000 OA
ENDBRANCH   7  14
BRANCH  11  15
ATOM     15  O   UNL     1       5.869   4.986  19.503  0.00  0.00    +0.000 OA
ATOM     16  C   UNL     1       6.908   5.209  18.565  0.00  0.00    +0.000 C 
ENDBRANCH  11  15
BRANCH  12  17
ATOM     17  O   UNL     1       4.412   2.657  18.622  0.00  0.00    +0.000 OA
ATOM     18  C   UNL     1       4.452   1.872  19.802  0.00  0.00    +0.000 C 
ENDBRANCH  12  17
ENDBRANCH   1   9
BRANCH   6  19
ATOM     19  C   UNL     1       1.251   8.469  20.744  0.00  0.00    +0.000 C 
ATOM     20  O   UNL     1       1.107   7.328  21.167  0.00  0.00    +0.000 OA
ATOM     21  N   UNL     1       1.034   9.581  21.541  0.00  0.00    +0.000 N 
ATOM     22  H   UNL     1       1.212  10.502  21.169  0.00  0.00    +0.000 HD
BRANCH  21  23
ATOM     23  C   UNL     1       0.541   9.448  22.897  0.00  0.00    +0.000 C 
BRANCH  23  24
ATOM     24  C   UNL     1      -0.784  10.174  23.098  0.00  0.00    +0.000 C 
BRANCH  24  25
ATOM     25  C   UNL     1      -0.836  11.515  22.363  0.00  0.00    +0.000 C 
BRANCH  25  26
ATOM     26  N   UNL     1      -1.708  12.464  23.032  0.00  0.00    +0.000 N 
ATOM     27  C   UNL     1      -3.020  12.270  23.353  0.00  0.00    +0.000 A 
ATOM     28  C   UNL     1      -3.407  13.440  23.966  0.00  0.00    +0.000 A 
ATOM     29  N   UNL     1      -2.367  14.330  24.025  0.00  0.00    +0.000 NA
ATOM     30  C   UNL     1      -1.357  13.720  23.449  0.00  0.00    +0.000 A 
ENDBRANCH  25  26
ENDBRANCH  24  25
ENDBRANCH  23  24
ENDBRANCH  21  23
ENDBRANCH   6  19
TORSDOF 9
ENDMDL
MODEL 5
REMARK VINA RESULT:      -6.8      3.364      6.573
REMARK  Name = 
REMARK  13 active torsions:
REMARK  status: ('A' for Active; 'I' for Inactive)
REMARK    1  A    between atoms: C_1  and  O_2
REMARK    2  A    between atoms: O_2  and  C_3
REMARK    3  A    between atoms: C_5  and  C_6
REMARK    4  A    between atoms: C_9  and  C_10
REMARK    5  A    between atoms: C_11  and  C_12
REMARK    6  A    between atoms: N_14  and  C_15
REMARK    7  A    between atoms: C_15  and  C_16
REMARK    8  A    between atoms: C_16  and  C_17
REMARK    9  A    between atoms: C_17  and  N_18
REMARK   10  A    between atoms: C_24  and  O_25
REMARK   11  A    between atoms: O_25  and  C_26
REMARK   12  A    between atoms: C_27  and  O_28
REMARK   13  A    between atoms: O_28  and  C_29
REMARK                            x       y       z     vdW  Elec       q    Type
REMARK                         _______ _______ _______ _____ _____    ______ ____
ROOT
ATOM      1  C   UNL     1       3.718   3.445  18.161  0.00  0.00    +0.000 A 
ATOM      2  N   UNL     1       3.491   2.222  17.661  0.00  0.00    +0.000 NA
ATOM      3  O   UNL     1       2.265   1.823  18.145  0.00  0.00    +0.000 OA
ATOM      4  C   UNL     1       1.740   2.797  18.931  0.00  0.00    +0.000 A 
ATOM      5  C   UNL     1       0.397   2.527  19.478  0.00  0.00    +0.000 C 
ATOM      6  C   UNL     1       2.612   3.865  18.975  0.00  0.00    +0.000 A 
ENDROOT
BRANCH   1   9
ATOM      7  C   UNL     1       6.175   5.478  16.161  0.00  0.00    +0.000 A 
ATOM      8  C   UNL     1       5.204   4.515  16.487  0.00  0.00    +0.000 A 
ATOM      9  C   UNL     1       4.923   4.203  17.817  0.00  0.00    +0.000 A 
ATOM     10  C   UNL     1       5.755   4.726  18.803  0.00  0.00    +0.000 A 
ATOM     11  C   UNL     1       6.764   5.653  18.507  0.00  0.00    +0.000 A 
ATOM     12  C   UNL     1       6.978   6.056  17.173  0.00  0.00    +0.000 A 
BRANCH   7  14
ATOM     13  C   UNL     1       6.854   4.831  13.978  0.00  0.00    +0.000 C 
ATOM     14  O   UNL     1       6.357   5.848  14.852  0.00  0.00    +0.000 OA
ENDBRANCH   7  14
BRANCH  11  15
ATOM     15  O   UNL     1       7.389   6.070  19.655  0.00  0.00    +0.000 OA
ATOM     16  C   UNL     1       8.486   5.331  20.165  0.00  0.00    +0.000 C 
ENDBRANCH  11  15
BRANCH  12  17
ATOM     17  O   UNL     1       7.976   6.973  16.978  0.00  0.00    +0.000 OA
ATOM     18  C   UNL     1       7.872   8.278  17.521  0.00  0.00    +0.000 C 
ENDBRANCH  12  17
ENDBRANCH   1   9
BRANCH   6  19
ATOM     19  C   UNL     1       2.420   5.147  19.620  0.00  0.00    +0.000 C 
ATOM     20  O   UNL     1       2.235   5.252  20.826  0.00  0.00    +0.000 OA
ATOM     21  N   UNL     1       2.388   6.244  18.773  0.00  0.00    +0.000 N 
ATOM     22  H   UNL     1       2.594   6.122  17.794  0.00  0.00    +0.000 HD
BRANCH  21  23
ATOM     23  C   UNL     1       2.048   7.563  19.268  0.00  0.00    +0.000 C 
BRANCH  23  24
ATOM     24  C   UNL     1       2.247   8.640  18.208  0.00  0.00    +0.000 C 
BRANCH  24  25
ATOM     25  C   UNL     1       1.059   9.602  18.118  0.00  0.00    +0.000 C 
BRANCH  25  26
ATOM     26  N   UNL     1       1.213  10.735  19.013  0.00  0.00    +0.000 N 
ATOM     27  C   UNL     1       1.682  11.972  18.678  0.00  0.00    +0.000 A 
ATOM     28  C   UNL     1       1.642  12.690  19.852  0.00  0.00    +0.000 A 
ATOM     29  N   UNL     1       1.161  11.924  20.880  0.00  0.00    +0.000 NA
ATOM     30  C   UNL     1       0.917  10.747  20.349  0.00  0.00    +0.000 A 
ENDBRANCH  25  26
ENDBRANCH  24  25
ENDBRANCH  23  24
ENDBRANCH  21  23
ENDBRANCH   6  19
TORSDOF 9
ENDMDL
MODEL 6
REMARK VINA RESULT:      -6.8      3.503      6.700
REMARK  Name = 
REMARK  13 active torsions:
REMARK  status: ('A' for Active; 'I' for Inactive)
REMARK    1  A    between atoms: C_1  and  O_2
REMARK    2  A    between atoms: O_2  and  C_3
REMARK    3  A    between atoms: C_5  and  C_6
REMARK    4  A    between atoms: C_9  and  C_10
REMARK    5  A    between atoms: C_11  and  C_12
REMARK    6  A    between atoms: N_14  and  C_15
REMARK    7  A    between atoms: C_15  and  C_16
REMARK    8  A    between atoms: C_16  and  C_17
REMARK    9  A    between atoms: C_17  and  N_18
REMARK   10  A    between atoms: C_24  and  O_25
REMARK   11  A    between atoms: O_25  and  C_26
REMARK   12  A    between atoms: C_27  and  O_28
REMARK   13  A    between atoms: O_28  and  C_29
REMARK                            x       y       z     vdW  Elec       q    Type
REMARK                         _______ _______ _______ _____ _____    ______ ____
ROOT
ATOM      1  C   UNL     1       3.741   3.588  17.281  0.00  0.00    +0.000 A 
ATOM      2  N   UNL     1       3.248   2.361  17.055  0.00  0.00    +0.000 NA
ATOM      3  O   UNL     1       2.283   2.145  18.013  0.00  0.00    +0.000 OA
ATOM      4  C   UNL     1       2.178   3.234  18.817  0.00  0.00    +0.000 A 
ATOM      5  C   UNL     1       1.139   3.164  19.861  0.00  0.00    +0.000 C 
ATOM      6  C   UNL     1       3.073   4.196  18.398  0.00  0.00    +0.000 A 
ENDROOT
BRANCH   1   9
ATOM      7  C   UNL     1       6.732   5.598  16.194  0.00  0.00    +0.000 A 
ATOM      8  C   UNL     1       5.562   5.224  16.878  0.00  0.00    +0.000 A 
ATOM      9  C   UNL     1       4.768   4.174  16.417  0.00  0.00    +0.000 A 
ATOM     10  C   UNL     1       5.056   3.634  15.166  0.00  0.00    +0.000 A 
ATOM     11  C   UNL     1       6.188   4.018  14.436  0.00  0.00    +0.000 A 
ATOM     12  C   UNL     1       7.057   5.002  14.951  0.00  0.00    +0.000 A 
BRANCH   7  14
ATOM     13  C   UNL     1       7.556   6.666  18.150  0.00  0.00    +0.000 C 
ATOM     14  O   UNL     1       7.555   6.560  16.724  0.00  0.00    +0.000 OA
ENDBRANCH   7  14
BRANCH  11  15
ATOM     15  O   UNL     1       6.288   3.289  13.278  0.00  0.00    +0.000 OA
ATOM     16  C   UNL     1       5.240   3.339  12.325  0.00  0.00    +0.000 C 
ENDBRANCH  11  15
BRANCH  12  17
ATOM     17  O   UNL     1       8.143   5.307  14.176  0.00  0.00    +0.000 OA
ATOM     18  C   UNL     1       7.974   5.787  12.853  0.00  0.00    +0.000 C 
ENDBRANCH  12  17
ENDBRANCH   1   9
BRANCH   6  19
ATOM     19  C   UNL     1       3.242   5.540  18.908  0.00  0.00    +0.000 C 
ATOM     20  O   UNL     1       3.974   5.792  19.858  0.00  0.00    +0.000 OA
ATOM     21  N   UNL     1       2.467   6.514  18.299  0.00  0.00    +0.000 N 
ATOM     22  H   UNL     1       1.915   6.275  17.490  0.00  0.00    +0.000 HD
BRANCH  21  23
ATOM     23  C   UNL     1       2.422   7.868  18.814  0.00  0.00    +0.000 C 
BRANCH  23  24
ATOM     24  C   UNL     1       2.096   8.884  17.726  0.00  0.00    +0.000 C 
BRANCH  24  25
ATOM     25  C   UNL     1       0.797   9.645  18.003  0.00  0.00    +0.000 C 
BRANCH  25  26
ATOM     26  N   UNL     1       1.037  10.871  18.743  0.00  0.00    +0.000 N 
ATOM     27  C   UNL     1       0.313  11.331  19.804  0.00  0.00    +0.000 A 
ATOM     28  C   UNL     1       0.921  12.515  20.155  0.00  0.00    +0.000 A 
ATOM     29  N   UNL     1       1.990  12.779  19.340  0.00  0.00    +0.000 NA
ATOM     30  C   UNL     1       2.034  11.776  18.493  0.00  0.00    +0.000 A 
ENDBRANCH  25  26
ENDBRANCH  24  25
ENDBRANCH  23  24
ENDBRANCH  21  23
ENDBRANCH   6  19
TORSDOF 9
ENDMDL
MODEL 7
REMARK VINA RESULT:      -6.7      6.172      9.806
REMARK  Name = 
REMARK  13 active torsions:
REMARK  status: ('A' for Active; 'I' for Inactive)
REMARK    1  A    between atoms: C_1  and  O_2
REMARK    2  A    between atoms: O_2  and  C_3
REMARK    3  A    between atoms: C_5  and  C_6
REMARK    4  A    between atoms: C_9  and  C_10
REMARK    5  A    between atoms: C_11  and  C_12
REMARK    6  A    between atoms: N_14  and  C_15
REMARK    7  A    between atoms: C_15  and  C_16
REMARK    8  A    between atoms: C_16  and  C_17
REMARK    9  A    between atoms: C_17  and  N_18
REMARK   10  A    between atoms: C_24  and  O_25
REMARK   11  A    between atoms: O_25  and  C_26
REMARK   12  A    between atoms: C_27  and  O_28
REMARK   13  A    between atoms: O_28  and  C_29
REMARK                            x       y       z     vdW  Elec       q    Type
REMARK                         _______ _______ _______ _____ _____    ______ ____
ROOT
ATOM      1  C   UNL     1       1.296   8.726  20.973  0.00  0.00    +0.000 A 
ATOM      2  N   UNL     1       1.419   8.927  22.293  0.00  0.00    +0.000 NA
ATOM      3  O   UNL     1       0.813  10.134  22.562  0.00  0.00    +0.000 OA
ATOM      4  C   UNL     1       0.314  10.667  21.417  0.00  0.00    +0.000 A 
ATOM      5  C   UNL     1      -0.414  11.941  21.564  0.00  0.00    +0.000 C 
ATOM      6  C   UNL     1       0.580   9.813  20.367  0.00  0.00    +0.000 A 
ENDROOT
BRANCH   1   9
ATOM      7  C   UNL     1       1.625   5.093  20.044  0.00  0.00    +0.000 A 
ATOM      8  C   UNL     1       1.407   6.253  20.808  0.00  0.00    +0.000 A 
ATOM      9  C   UNL     1       1.794   7.506  20.333  0.00  0.00    +0.000 A 
ATOM     10  C   UNL     1       2.568   7.559  19.177  0.00  0.00    +0.000 A 
ATOM     11  C   UNL     1       2.843   6.415  18.417  0.00  0.00    +0.000 A 
ATOM     12  C   UNL     1       2.358   5.159  18.835  0.00  0.00    +0.000 A 
BRANCH   7  14
ATOM     13  C   UNL     1       1.837   3.290  21.577  0.00  0.00    +0.000 C 
ATOM     14  O   UNL     1       1.138   3.886  20.482  0.00  0.00    +0.000 OA
ENDBRANCH   7  14
BRANCH  11  15
ATOM     15  O   UNL     1       3.556   6.743  17.291  0.00  0.00    +0.000 OA
ATOM     16  C   UNL     1       4.971   6.656  17.306  0.00  0.00    +0.000 C 
ENDBRANCH  11  15
BRANCH  12  17
ATOM     17  O   UNL     1       2.666   4.099  18.026  0.00  0.00    +0.000 OA
ATOM     18  C   UNL     1       3.765   3.256  18.327  0.00  0.00    +0.000 C 
ENDBRANCH  12  17
ENDBRANCH   1   9
BRANCH   6  19
ATOM     19  C   UNL     1       0.158   9.939  18.987  0.00  0.00    +0.000 C 
ATOM     20  O   UNL     1       0.959  10.043  18.066  0.00  0.00    +0.000 OA
ATOM     21  N   UNL     1      -1.211  10.005  18.783  0.00  0.00    +0.000 N 
ATOM     22  H   UNL     1      -1.837   9.865  19.560  0.00  0.00    +0.000 HD
BRANCH  21  23
ATOM     23  C   UNL     1      -1.760  10.287  17.471  0.00  0.00    +0.000 C 
BRANCH  23  24
ATOM     24  C   UNL     1      -3.269  10.074  17.426  0.00  0.00    +0.000 C 
BRANCH  24  25
ATOM     25  C   UNL     1      -4.004  11.226  16.736  0.00  0.00    +0.000 C 
BRANCH  25  26
ATOM     26  N   UNL     1      -5.278  11.511  17.371  0.00  0.00    +0.000 N 
ATOM     27  C   UNL     1      -5.912  10.734  18.298  0.00  0.00    +0.000 A 
ATOM     28  C   UNL     1      -7.070  11.417  18.592  0.00  0.00    +0.000 A 
ATOM     29  N   UNL     1      -7.151  12.580  17.874  0.00  0.00    +0.000 NA
ATOM     30  C   UNL     1      -6.062  12.610  17.140  0.00  0.00    +0.000 A 
ENDBRANCH  25  26
ENDBRANCH  24  25
ENDBRANCH  23  24
ENDBRANCH  21  23
ENDBRANCH   6  19
TORSDOF 9
ENDMDL
MODEL 8
REMARK VINA RESULT:      -6.7      3.593      6.883
REMARK  Name = 
REMARK  13 active torsions:
REMARK  status: ('A' for Active; 'I' for Inactive)
REMARK    1  A    between atoms: C_1  and  O_2
REMARK    2  A    between atoms: O_2  and  C_3
REMARK    3  A    between atoms: C_5  and  C_6
REMARK    4  A    between atoms: C_9  and  C_10
REMARK    5  A    between atoms: C_11  and  C_12
REMARK    6  A    between atoms: N_14  and  C_15
REMARK    7  A    between atoms: C_15  and  C_16
REMARK    8  A    between atoms: C_16  and  C_17
REMARK    9  A    between atoms: C_17  and  N_18
REMARK   10  A    between atoms: C_24  and  O_25
REMARK   11  A    between atoms: O_25  and  C_26
REMARK   12  A    between atoms: C_27  and  O_28
REMARK   13  A    between atoms: O_28  and  C_29
REMARK                            x       y       z     vdW  Elec       q    Type
REMARK                         _______ _______ _______ _____ _____    ______ ____
ROOT
ATOM      1  C   UNL     1       3.950   3.559  17.400  0.00  0.00    +0.000 A 
ATOM      2  N   UNL     1       3.396   2.342  17.302  0.00  0.00    +0.000 NA
ATOM      3  O   UNL     1       2.310   2.338  18.148  0.00  0.00    +0.000 OA
ATOM      4  C   UNL     1       2.193   3.546  18.756  0.00  0.00    +0.000 A 
ATOM      5  C   UNL     1       1.035   3.704  19.656  0.00  0.00    +0.000 C 
ATOM      6  C   UNL     1       3.203   4.376  18.315  0.00  0.00    +0.000 A 
ENDROOT
BRANCH   1   9
ATOM      7  C   UNL     1       6.243   3.931  14.438  0.00  0.00    +0.000 A 
ATOM      8  C   UNL     1       5.317   3.375  15.337  0.00  0.00    +0.000 A 
ATOM      9  C   UNL     1       5.115   3.939  16.597  0.00  0.00    +0.000 A 
ATOM     10  C   UNL     1       5.984   4.944  17.013  0.00  0.00    +0.000 A 
ATOM     11  C   UNL     1       6.950   5.489  16.157  0.00  0.00    +0.000 A 
ATOM     12  C   UNL     1       7.083   4.996  14.842  0.00  0.00    +0.000 A 
BRANCH   7  14
ATOM     13  C   UNL     1       5.133   3.382  12.410  0.00  0.00    +0.000 C 
ATOM     14  O   UNL     1       6.346   3.427  13.165  0.00  0.00    +0.000 OA
ENDBRANCH   7  14
BRANCH  11  15
ATOM     15  O   UNL     1       7.624   6.511  16.777  0.00  0.00    +0.000 OA
ATOM     16  C   UNL     1       7.646   6.580  18.192  0.00  0.00    +0.000 C 
ENDBRANCH  11  15
BRANCH  12  17
ATOM     17  O   UNL     1       8.044   5.595  14.073  0.00  0.00    +0.000 OA
ATOM     18  C   UNL     1       7.956   5.569  12.659  0.00  0.00    +0.000 C 
ENDBRANCH  12  17
ENDBRANCH   1   9
BRANCH   6  19
ATOM     19  C   UNL     1       3.412   5.773  18.632  0.00  0.00    +0.000 C 
ATOM     20  O   UNL     1       3.904   6.136  19.693  0.00  0.00    +0.000 OA
ATOM     21  N   UNL     1       2.954   6.676  17.686  0.00  0.00    +0.000 N 
ATOM     22  H   UNL     1       2.600   6.337  16.805  0.00  0.00    +0.000 HD
BRANCH  21  23
ATOM     23  C   UNL     1       2.958   8.102  17.947  0.00  0.00    +0.000 C 
BRANCH  23  24
ATOM     24  C   UNL     1       1.564   8.708  17.836  0.00  0.00    +0.000 C 
BRANCH  24  25
ATOM     25  C   UNL     1       1.120   9.401  19.128  0.00  0.00    +0.000 C 
BRANCH  25  26
ATOM     26  N   UNL     1       0.449  10.661  18.861  0.00  0.00    +0.000 N 
ATOM     27  C   UNL     1      -0.880  10.831  18.601  0.00  0.00    +0.000 A 
ATOM     28  C   UNL     1      -1.029  12.187  18.417  0.00  0.00    +0.000 A 
ATOM     29  N   UNL     1       0.168  12.836  18.561  0.00  0.00    +0.000 NA
ATOM     30  C   UNL     1       1.044  11.893  18.821  0.00  0.00    +0.000 A 
ENDBRANCH  25  26
ENDBRANCH  24  25
ENDBRANCH  23  24
ENDBRANCH  21  23
ENDBRANCH   6  19
TORSDOF 9
ENDMDL
MODEL 9
REMARK VINA RESULT:      -6.6      3.529      7.149
REMARK  Name = 
REMARK  13 active torsions:
REMARK  status: ('A' for Active; 'I' for Inactive)
REMARK    1  A    between atoms: C_1  and  O_2
REMARK    2  A    between atoms: O_2  and  C_3
REMARK    3  A    between atoms: C_5  and  C_6
REMARK    4  A    between atoms: C_9  and  C_10
REMARK    5  A    between atoms: C_11  and  C_12
REMARK    6  A    between atoms: N_14  and  C_15
REMARK    7  A    between atoms: C_15  and  C_16
REMARK    8  A    between atoms: C_16  and  C_17
REMARK    9  A    between atoms: C_17  and  N_18
REMARK   10  A    between atoms: C_24  and  O_25
REMARK   11  A    between atoms: O_25  and  C_26
REMARK   12  A    between atoms: C_27  and  O_28
REMARK   13  A    between atoms: O_28  and  C_29
REMARK                            x       y       z     vdW  Elec       q    Type
REMARK                         _______ _______ _______ _____ _____    ______ ____
ROOT
ATOM      1  C   UNL     1       3.687   3.915  17.111  0.00  0.00    +0.000 A 
ATOM      2  N   UNL     1       3.158   2.691  16.968  0.00  0.00    +0.000 NA
ATOM      3  O   UNL     1       2.168   2.580  17.918  0.00  0.00    +0.000 OA
ATOM      4  C   UNL     1       2.083   3.729  18.635  0.00  0.00    +0.000 A 
ATOM      5  C   UNL     1       1.022   3.773  19.658  0.00  0.00    +0.000 C 
ATOM      6  C   UNL     1       3.018   4.628  18.164  0.00  0.00    +0.000 A 
ENDROOT
BRANCH   1   9
ATOM      7  C   UNL     1       6.808   5.676  15.958  0.00  0.00    +0.000 A 
ATOM      8  C   UNL     1       5.617   5.406  16.655  0.00  0.00    +0.000 A 
ATOM      9  C   UNL     1       4.750   4.400  16.228  0.00  0.00    +0.000 A 
ATOM     10  C   UNL     1       4.996   3.803  14.995  0.00  0.00    +0.000 A 
ATOM     11  C   UNL     1       6.150   4.084  14.252  0.00  0.00    +0.000 A 
ATOM     12  C   UNL     1       7.086   5.020  14.735  0.00  0.00    +0.000 A 
BRANCH   7  14
ATOM     13  C   UNL     1       7.326   7.221  17.687  0.00  0.00    +0.000 C 
ATOM     14  O   UNL     1       7.698   6.594  16.458  0.00  0.00    +0.000 OA
ENDBRANCH   7  14
BRANCH  11  15
ATOM     15  O   UNL     1       6.194   3.313  13.117  0.00  0.00    +0.000 OA
ATOM     16  C   UNL     1       5.151   3.412  12.161  0.00  0.00    +0.000 C 
ENDBRANCH  11  15
BRANCH  12  17
ATOM     17  O   UNL     1       8.189   5.224  13.949  0.00  0.00    +0.000 OA
ATOM     18  C   UNL     1       8.054   5.744  12.638  0.00  0.00    +0.000 C 
ENDBRANCH  12  17
ENDBRANCH   1   9
BRANCH   6  19
ATOM     19  C   UNL     1       3.221   6.001  18.575  0.00  0.00    +0.000 C 
ATOM     20  O   UNL     1       3.817   6.294  19.604  0.00  0.00    +0.000 OA
ATOM     21  N   UNL     1       2.637   6.961  17.765  0.00  0.00    +0.000 N 
ATOM     22  H   UNL     1       2.198   6.683  16.901  0.00  0.00    +0.000 HD
BRANCH  21  23
ATOM     23  C   UNL     1       2.630   8.360  18.145  0.00  0.00    +0.000 C 
BRANCH  23  24
ATOM     24  C   UNL     1       1.253   8.992  17.976  0.00  0.00    +0.000 C 
BRANCH  24  25
ATOM     25  C   UNL     1       1.111  10.305  18.750  0.00  0.00    +0.000 C 
BRANCH  25  26
ATOM     26  N   UNL     1       0.618  10.086  20.099  0.00  0.00    +0.000 N 
ATOM     27  C   UNL     1      -0.250  10.886  20.783  0.00  0.00    +0.000 A 
ATOM     28  C   UNL     1      -0.409  10.267  22.002  0.00  0.00    +0.000 A 
ATOM     29  N   UNL     1       0.334   9.118  22.070  0.00  0.00    +0.000 NA
ATOM     30  C   UNL     1       0.949   9.036  20.913  0.00  0.00    +0.000 A 
ENDBRANCH  25  26
ENDBRANCH  24  25
ENDBRANCH  23  24
ENDBRANCH  21  23
ENDBRANCH   6  19
TORSDOF 9
ENDMDL
