MODEL 1
REMARK VINA RESULT:      -7.1      0.000      0.000
REMARK  Name = 
REMARK  4 active torsions:
REMARK  status: ('A' for Active; 'I' for Inactive)
REMARK    1  A    between atoms: C_2  and  C_3
REMARK    2  A    between atoms: C_3  and  N_4
REMARK    3  A    between atoms: N_10  and  C_11
REMARK    4  A    between atoms: C_14  and  C_15
REMARK                            x       y       z     vdW  Elec       q    Type
REMARK                         _______ _______ _______ _____ _____    ______ ____
ROOT
ATOM      1  C   UNL     1       2.292   7.934  18.731  0.00  0.00    +0.000 A 
ATOM      2  C   UNL     1       1.865   8.001  20.054  0.00  0.00    +0.000 A 
ATOM      3  C   UNL     1       0.864   8.906  20.425  0.00  0.00    +0.000 A 
ATOM      4  C   UNL     1       0.319   9.816  19.501  0.00  0.00    +0.000 A 
ATOM      5  C   UNL     1       0.744   9.713  18.171  0.00  0.00    +0.000 A 
ATOM      6  C   UNL     1       1.722   8.789  17.791  0.00  0.00    +0.000 A 
ENDROOT
BRANCH   4   7
ATOM      7  C   UNL     1      -0.704  10.848  19.977  0.00  0.00    +0.000 C 
ATOM      8  C   UNL     1      -0.194  11.658  21.190  0.00  0.00    +0.000 C 
ATOM      9  C   UNL     1       0.889  12.663  20.804  0.00  0.00    +0.000 C 
ATOM     10  C   UNL     1       0.403  13.633  19.734  0.00  0.00    +0.000 C 
ATOM     11  C   UNL     1      -0.209  12.926  18.529  0.00  0.00    +0.000 C 
ATOM     12  C   UNL     1      -1.225  11.846  18.920  0.00  0.00    +0.000 C 
ENDBRANCH   4   7
BRANCH   1  15
ATOM     13  O   UNL     1       1.984   5.179  17.916  0.00  0.00    +0.000 OA
ATOM     14  C   UNL     1       3.087   5.735  17.935  0.00  0.00    +0.000 C 
ATOM     15  N   UNL     1       3.312   7.028  18.391  0.00  0.00    +0.000 N 
ATOM     16  H   UNL     1       4.255   7.273  18.664  0.00  0.00    +0.000 HD
BRANCH  14  17
ATOM     17  C   UNL     1       4.349   4.999  17.483  0.00  0.00    +0.000 C 
BRANCH  17  18
ATOM     18  N   UNL     1       5.349   5.933  16.923  0.00  0.00    +0.000 NA
ATOM     19  C   UNL     1       5.763   5.579  15.536  0.00  0.00    +0.000 C 
ATOM     20  C   UNL     1       6.625   4.312  15.446  0.00  0.00    +0.000 C 
ATOM     21  O   UNL     1       7.796   4.424  16.267  0.00  0.00    +0.000 OA
ATOM     22  C   UNL     1       7.446   4.692  17.629  0.00  0.00    +0.000 C 
ATOM     23  C   UNL     1       6.576   5.956  17.754  0.00  0.00    +0.000 C 
ENDBRANCH  17  18
ENDBRANCH  14  17
ENDBRANCH   1  15
TORSDOF 4
ENDMDL
MODEL 2
REMARK VINA RESULT:      -7.0      0.238      1.050
REMARK  Name = 
REMARK  4 active torsions:
REMARK  status: ('A' for Active; 'I' for Inactive)
REMARK    1  A    between atoms: C_2  and  C_3
REMARK    2  A    between atoms: C_3  and  N_4
REMARK    3  A    between atoms: N_10  and  C_11
REMARK    4  A    between atoms: C_14  and  C_15
REMARK                            x       y       z     vdW  Elec       q    Type
REMARK                         _______ _______ _______ _____ _____    ______ ____
ROOT
ATOM      1  C   UNL     1       2.324   7.989  18.762  0.00  0.00    +0.000 A 
ATOM      2  C   UNL     1       1.793   8.818  17.778  0.00  0.00    +0.000 A 
ATOM      3  C   UNL     1       0.786   9.735  18.098  0.00  0.00    +0.000 A 
ATOM      4  C   UNL     1       0.233   9.795  19.391  0.00  0.00    +0.000 A 
ATOM      5  C   UNL     1       0.800   8.972  20.371  0.00  0.00    +0.000 A 
ATOM      6  C   UNL     1       1.828   8.075  20.061  0.00  0.00    +0.000 A 
ENDROOT
BRANCH   4   7
ATOM      7  C   UNL     1      -0.930  10.748  19.667  0.00  0.00    +0.000 C 
ATOM      8  C   UNL     1      -0.754  11.513  20.998  0.00  0.00    +0.000 C 
ATOM      9  C   UNL     1       0.325  12.589  20.911  0.00  0.00    +0.000 C 
ATOM     10  C   UNL     1       0.034  13.593  19.802  0.00  0.00    +0.000 C 
ATOM     11  C   UNL     1      -0.249  12.926  18.460  0.00  0.00    +0.000 C 
ATOM     12  C   UNL     1      -1.260  11.777  18.563  0.00  0.00    +0.000 C 
ENDBRANCH   4   7
BRANCH   1  15
ATOM     13  O   UNL     1       1.950   5.259  17.891  0.00  0.00    +0.000 OA
ATOM     14  C   UNL     1       3.066   5.788  17.924  0.00  0.00    +0.000 C 
ATOM     15  N   UNL     1       3.322   7.065  18.406  0.00  0.00    +0.000 N 
ATOM     16  H   UNL     1       4.270   7.282  18.686  0.00  0.00    +0.000 HD
BRANCH  14  17
ATOM     17  C   UNL     1       4.311   5.029  17.460  0.00  0.00    +0.000 C 
BRANCH  17  18
ATOM     18  N   UNL     1       5.312   5.943  16.869  0.00  0.00    +0.000 NA
ATOM     19  C   UNL     1       5.719   5.548  15.491  0.00  0.00    +0.000 C 
ATOM     20  C   UNL     1       6.576   4.275  15.434  0.00  0.00    +0.000 C 
ATOM     21  O   UNL     1       7.751   4.407  16.247  0.00  0.00    +0.000 OA
ATOM     22  C   UNL     1       7.408   4.715  17.602  0.00  0.00    +0.000 C 
ATOM     23  C   UNL     1       6.543   5.985  17.694  0.00  0.00    +0.000 C 
ENDBRANCH  17  18
ENDBRANCH  14  17
ENDBRANCH   1  15
TORSDOF 4
ENDMDL
MODEL 3
REMARK VINA RESULT:      -6.9      3.755      8.536
REMARK  Name = 
REMARK  4 active torsions:
REMARK  status: ('A' for Active; 'I' for Inactive)
REMARK    1  A    between atoms: C_2  and  C_3
REMARK    2  A    between atoms: C_3  and  N_4
REMARK    3  A    between atoms: N_10  and  C_11
REMARK    4  A    between atoms: C_14  and  C_15
REMARK                            x       y       z     vdW  Elec       q    Type
REMARK                         _______ _______ _______ _____ _____    ______ ____
ROOT
ATOM      1  C   UNL     1       1.339   9.328  19.168  0.00  0.00    +0.000 A 
ATOM      2  C   UNL     1       1.970   8.686  18.106  0.00  0.00    +0.000 A 
ATOM      3  C   UNL     1       2.457   7.383  18.260  0.00  0.00    +0.000 A 
ATOM      4  C   UNL     1       2.392   6.718  19.498  0.00  0.00    +0.000 A 
ATOM      5  C   UNL     1       1.731   7.372  20.545  0.00  0.00    +0.000 A 
ATOM      6  C   UNL     1       1.216   8.662  20.385  0.00  0.00    +0.000 A 
ENDROOT
BRANCH   4   7
ATOM      7  C   UNL     1       3.023   5.333  19.641  0.00  0.00    +0.000 C 
ATOM      8  C   UNL     1       2.341   4.493  20.743  0.00  0.00    +0.000 C 
ATOM      9  C   UNL     1       0.956   4.002  20.327  0.00  0.00    +0.000 C 
ATOM     10  C   UNL     1       1.010   3.181  19.045  0.00  0.00    +0.000 C 
ATOM     11  C   UNL     1       1.752   3.891  17.918  0.00  0.00    +0.000 C 
ATOM     12  C   UNL     1       3.101   4.471  18.361  0.00  0.00    +0.000 C 
ENDBRANCH   4   7
BRANCH   1  15
ATOM     13  O   UNL     1      -1.224  10.153  18.120  0.00  0.00    +0.000 OA
ATOM     14  C   UNL     1      -0.400  10.968  18.548  0.00  0.00    +0.000 C 
ATOM     15  N   UNL     1       0.877  10.643  18.988  0.00  0.00    +0.000 N 
ATOM     16  H   UNL     1       1.569  11.381  19.012  0.00  0.00    +0.000 HD
BRANCH  14  17
ATOM     17  C   UNL     1      -0.716  12.464  18.583  0.00  0.00    +0.000 C 
BRANCH  17  18
ATOM     18  N   UNL     1       0.153  13.178  19.543  0.00  0.00    +0.000 NA
ATOM     19  C   UNL     1      -0.553  13.556  20.799  0.00  0.00    +0.000 C 
ATOM     20  C   UNL     1      -1.588  14.677  20.620  0.00  0.00    +0.000 C 
ATOM     21  O   UNL     1      -0.987  15.849  20.053  0.00  0.00    +0.000 OA
ATOM     22  C   UNL     1      -0.356  15.551  18.803  0.00  0.00    +0.000 C 
ATOM     23  C   UNL     1       0.686  14.426  18.947  0.00  0.00    +0.000 C 
ENDBRANCH  17  18
ENDBRANCH  14  17
ENDBRANCH   1  15
TORSDOF 4
ENDMDL
MODEL 4
REMARK VINA RESULT:      -6.8      3.917      8.823
REMARK  Name = 
REMARK  4 active torsions:
REMARK  status: ('A' for Active; 'I' for Inactive)
REMARK    1  A    between atoms: C_2  and  C_3
REMARK    2  A    between atoms: C_3  and  N_4
REMARK    3  A    between atoms: N_10  and  C_11
REMARK    4  A    between atoms: C_14  and  C_15
REMARK                            x       y       z     vdW  Elec       q    Type
REMARK                         _______ _______ _______ _____ _____    ______ ____
ROOT
ATOM      1  C   UNL     1       1.039   9.541  19.455  0.00  0.00    +0.000 A 
ATOM      2  C   UNL     1       1.133   8.743  20.591  0.00  0.00    +0.000 A 
ATOM      3  C   UNL     1       1.836   7.534  20.545  0.00  0.00    +0.000 A 
ATOM      4  C   UNL     1       2.398   7.057  19.347  0.00  0.00    +0.000 A 
ATOM      5  C   UNL     1       2.315   7.889  18.223  0.00  0.00    +0.000 A 
ATOM      6  C   UNL     1       1.639   9.112  18.273  0.00  0.00    +0.000 A 
ENDROOT
BRANCH   4   7
ATOM      7  C   UNL     1       3.074   5.686  19.327  0.00  0.00    +0.000 C 
ATOM      8  C   UNL     1       2.592   4.782  20.483  0.00  0.00    +0.000 C 
ATOM      9  C   UNL     1       1.171   4.269  20.265  0.00  0.00    +0.000 C 
ATOM     10  C   UNL     1       1.041   3.503  18.954  0.00  0.00    +0.000 C 
ATOM     11  C   UNL     1       1.582   4.280  17.759  0.00  0.00    +0.000 C 
ATOM     12  C   UNL     1       2.970   4.881  18.012  0.00  0.00    +0.000 C 
ENDBRANCH   4   7
BRANCH   1  15
ATOM     13  O   UNL     1      -1.665  10.004  18.548  0.00  0.00    +0.000 OA
ATOM     14  C   UNL     1      -1.016  10.874  19.138  0.00  0.00    +0.000 C 
ATOM     15  N   UNL     1       0.312  10.742  19.526  0.00  0.00    +0.000 N 
ATOM     16  H   UNL     1       0.837  11.588  19.703  0.00  0.00    +0.000 HD
BRANCH  14  17
ATOM     17  C   UNL     1      -1.632  12.237  19.457  0.00  0.00    +0.000 C 
BRANCH  17  18
ATOM     18  N   UNL     1      -1.178  12.742  20.770  0.00  0.00    +0.000 NA
ATOM     19  C   UNL     1      -1.959  12.184  21.910  0.00  0.00    +0.000 C 
ATOM     20  C   UNL     1      -3.398  12.712  21.998  0.00  0.00    +0.000 C 
ATOM     21  O   UNL     1      -3.420  14.144  22.075  0.00  0.00    +0.000 OA
ATOM     22  C   UNL     1      -2.742  14.731  20.959  0.00  0.00    +0.000 C 
ATOM     23  C   UNL     1      -1.295  14.218  20.840  0.00  0.00    +0.000 C 
ENDBRANCH  17  18
ENDBRANCH  14  17
ENDBRANCH   1  15
TORSDOF 4
ENDMDL
MODEL 5
REMARK VINA RESULT:      -6.8      3.884      8.630
REMARK  Name = 
REMARK  4 active torsions:
REMARK  status: ('A' for Active; 'I' for Inactive)
REMARK    1  A    between atoms: C_2  and  C_3
REMARK    2  A    between atoms: C_3  and  N_4
REMARK    3  A    between atoms: N_10  and  C_11
REMARK    4  A    between atoms: C_14  and  C_15
REMARK                            x       y       z     vdW  Elec       q    Type
REMARK                         _______ _______ _______ _____ _____    ______ ____
ROOT
ATOM      1  C   UNL     1       1.128   9.532  19.355  0.00  0.00    +0.000 A 
ATOM      2  C   UNL     1       1.183   8.771  20.520  0.00  0.00    +0.000 A 
ATOM      3  C   UNL     1       1.852   7.543  20.527  0.00  0.00    +0.000 A 
ATOM      4  C   UNL     1       2.419   7.009  19.355  0.00  0.00    +0.000 A 
ATOM      5  C   UNL     1       2.375   7.802  18.202  0.00  0.00    +0.000 A 
ATOM      6  C   UNL     1       1.734   9.045  18.199  0.00  0.00    +0.000 A 
ENDROOT
BRANCH   4   7
ATOM      7  C   UNL     1       3.057   5.620  19.393  0.00  0.00    +0.000 C 
ATOM      8  C   UNL     1       2.502   4.756  20.547  0.00  0.00    +0.000 C 
ATOM      9  C   UNL     1       1.077   4.276  20.280  0.00  0.00    +0.000 C 
ATOM     10  C   UNL     1       0.982   3.484  18.982  0.00  0.00    +0.000 C 
ATOM     11  C   UNL     1       1.593   4.220  17.794  0.00  0.00    +0.000 C 
ATOM     12  C   UNL     1       2.986   4.788  18.094  0.00  0.00    +0.000 C 
ENDBRANCH   4   7
BRANCH   1  15
ATOM     13  O   UNL     1      -1.643   9.978  18.669  0.00  0.00    +0.000 OA
ATOM     14  C   UNL     1      -0.923  10.884  19.102  0.00  0.00    +0.000 C 
ATOM     15  N   UNL     1       0.433  10.753  19.373  0.00  0.00    +0.000 N 
ATOM     16  H   UNL     1       0.989  11.598  19.411  0.00  0.00    +0.000 HD
BRANCH  14  17
ATOM     17  C   UNL     1      -1.480  12.289  19.338  0.00  0.00    +0.000 C 
BRANCH  17  18
ATOM     18  N   UNL     1      -2.372  12.326  20.516  0.00  0.00    +0.000 NA
ATOM     19  C   UNL     1      -3.005  13.659  20.725  0.00  0.00    +0.000 C 
ATOM     20  C   UNL     1      -2.029  14.746  21.199  0.00  0.00    +0.000 C 
ATOM     21  O   UNL     1      -1.363  14.352  22.407  0.00  0.00    +0.000 OA
ATOM     22  C   UNL     1      -0.676  13.108  22.235  0.00  0.00    +0.000 C 
ATOM     23  C   UNL     1      -1.627  11.996  21.754  0.00  0.00    +0.000 C 
ENDBRANCH  17  18
ENDBRANCH  14  17
ENDBRANCH   1  15
TORSDOF 4
ENDMDL
MODEL 6
REMARK VINA RESULT:      -6.8      3.947      8.843
REMARK  Name = 
REMARK  4 active torsions:
REMARK  status: ('A' for Active; 'I' for Inactive)
REMARK    1  A    between atoms: C_2  and  C_3
REMARK    2  A    between atoms: C_3  and  N_4
REMARK    3  A    between atoms: N_10  and  C_11
REMARK    4  A    between atoms: C_14  and  C_15
REMARK                            x       y       z     vdW  Elec       q    Type
REMARK                         _______ _______ _______ _____ _____    ______ ____
ROOT
ATOM      1  C   UNL     1       1.041   9.515  19.726  0.00  0.00    +0.000 A 
ATOM      2  C   UNL     1       1.664   9.085  18.558  0.00  0.00    +0.000 A 
ATOM      3  C   UNL     1       2.247   7.814  18.499  0.00  0.00    +0.000 A 
ATOM      4  C   UNL     1       2.288   6.972  19.626  0.00  0.00    +0.000 A 
ATOM      5  C   UNL     1       1.633   7.415  20.782  0.00  0.00    +0.000 A 
ATOM      6  C   UNL     1       1.023   8.672  20.835  0.00  0.00    +0.000 A 
ENDROOT
BRANCH   4   7
ATOM      7  C   UNL     1       3.020   5.633  19.538  0.00  0.00    +0.000 C 
ATOM      8  C   UNL     1       2.508   4.619  20.584  0.00  0.00    +0.000 C 
ATOM      9  C   UNL     1       1.124   4.075  20.238  0.00  0.00    +0.000 C 
ATOM     10  C   UNL     1       1.105   3.416  18.864  0.00  0.00    +0.000 C 
ATOM     11  C   UNL     1       1.682   4.310  17.772  0.00  0.00    +0.000 C 
ATOM     12  C   UNL     1       3.027   4.937  18.159  0.00  0.00    +0.000 C 
ENDBRANCH   4   7
BRANCH   1  15
ATOM     13  O   UNL     1      -1.603  10.296  18.861  0.00  0.00    +0.000 OA
ATOM     14  C   UNL     1      -0.829  11.095  19.398  0.00  0.00    +0.000 C 
ATOM     15  N   UNL     1       0.480  10.803  19.762  0.00  0.00    +0.000 N 
ATOM     16  H   UNL     1       1.117  11.579  19.890  0.00  0.00    +0.000 HD
BRANCH  14  17
ATOM     17  C   UNL     1      -1.251  12.539  19.671  0.00  0.00    +0.000 C 
BRANCH  17  18
ATOM     18  N   UNL     1      -2.355  12.603  20.653  0.00  0.00    +0.000 NA
ATOM     19  C   UNL     1      -2.915  13.975  20.811  0.00  0.00    +0.000 C 
ATOM     20  C   UNL     1      -1.974  14.954  21.528  0.00  0.00    +0.000 C 
ATOM     21  O   UNL     1      -1.594  14.455  22.818  0.00  0.00    +0.000 OA
ATOM     22  C   UNL     1      -0.982  13.166  22.711  0.00  0.00    +0.000 C 
ATOM     23  C   UNL     1      -1.898  12.160  21.992  0.00  0.00    +0.000 C 
ENDBRANCH  17  18
ENDBRANCH  14  17
ENDBRANCH   1  15
TORSDOF 4
ENDMDL
MODEL 7
REMARK VINA RESULT:      -6.8      4.049      9.023
REMARK  Name = 
REMARK  4 active torsions:
REMARK  status: ('A' for Active; 'I' for Inactive)
REMARK    1  A    between atoms: C_2  and  C_3
REMARK    2  A    between atoms: C_3  and  N_4
REMARK    3  A    between atoms: N_10  and  C_11
REMARK    4  A    between atoms: C_14  and  C_15
REMARK                            x       y       z     vdW  Elec       q    Type
REMARK                         _______ _______ _______ _____ _____    ______ ____
ROOT
ATOM      1  C   UNL     1       0.793   9.478  19.891  0.00  0.00    +0.000 A 
ATOM      2  C   UNL     1       0.895   8.542  20.917  0.00  0.00    +0.000 A 
ATOM      3  C   UNL     1       1.669   7.390  20.742  0.00  0.00    +0.000 A 
ATOM      4  C   UNL     1       2.298   7.106  19.516  0.00  0.00    +0.000 A 
ATOM      5  C   UNL     1       2.203   8.074  18.508  0.00  0.00    +0.000 A 
ATOM      6  C   UNL     1       1.456   9.241  18.689  0.00  0.00    +0.000 A 
ENDROOT
BRANCH   4   7
ATOM      7  C   UNL     1       3.053   5.789  19.345  0.00  0.00    +0.000 C 
ATOM      8  C   UNL     1       2.668   4.752  20.423  0.00  0.00    +0.000 C 
ATOM      9  C   UNL     1       1.273   4.173  20.200  0.00  0.00    +0.000 C 
ATOM     10  C   UNL     1       1.143   3.526  18.827  0.00  0.00    +0.000 C 
ATOM     11  C   UNL     1       1.593   4.444  17.696  0.00  0.00    +0.000 C 
ATOM     12  C   UNL     1       2.951   5.105  17.964  0.00  0.00    +0.000 C 
ENDBRANCH   4   7
BRANCH   1  15
ATOM     13  O   UNL     1       1.548  11.938  21.206  0.00  0.00    +0.000 OA
ATOM     14  C   UNL     1       0.447  11.798  20.665  0.00  0.00    +0.000 C 
ATOM     15  N   UNL     1      -0.006  10.618  20.089  0.00  0.00    +0.000 N 
ATOM     16  H   UNL     1      -1.005  10.506  19.966  0.00  0.00    +0.000 HD
BRANCH  14  17
ATOM     17  C   UNL     1      -0.565  12.944  20.628  0.00  0.00    +0.000 C 
BRANCH  17  18
ATOM     18  N   UNL     1      -0.715  13.576  21.957  0.00  0.00    +0.000 NA
ATOM     19  C   UNL     1      -1.284  12.654  22.979  0.00  0.00    +0.000 C 
ATOM     20  C   UNL     1      -2.768  12.323  22.765  0.00  0.00    +0.000 C 
ATOM     21  O   UNL     1      -3.562  13.517  22.721  0.00  0.00    +0.000 OA
ATOM     22  C   UNL     1      -3.099  14.407  21.700  0.00  0.00    +0.000 C 
ATOM     23  C   UNL     1      -1.610  14.755  21.884  0.00  0.00    +0.000 C 
ENDBRANCH  17  18
ENDBRANCH  14  17
ENDBRANCH   1  15
TORSDOF 4
ENDMDL
MODEL 8
REMARK VINA RESULT:      -6.7      4.129      9.049
REMARK  Name = 
REMARK  4 active torsions:
REMARK  status: ('A' for Active; 'I' for Inactive)
REMARK    1  A    between atoms: C_2  and  C_3
REMARK    2  A    between atoms: C_3  and  N_4
REMARK    3  A    between atoms: N_10  and  C_11
REMARK    4  A    between atoms: C_14  and  C_15
REMARK                            x       y       z     vdW  Elec       q    Type
REMARK                         _______ _______ _______ _____ _____    ______ ____
ROOT
ATOM      1  C   UNL     1       0.761   9.477  19.999  0.00  0.00    +0.000 A 
ATOM      2  C   UNL     1       0.874   8.557  21.038  0.00  0.00    +0.000 A 
ATOM      3  C   UNL     1       1.656   7.408  20.878  0.00  0.00    +0.000 A 
ATOM      4  C   UNL     1       2.284   7.112  19.654  0.00  0.00    +0.000 A 
ATOM      5  C   UNL     1       2.179   8.063  18.632  0.00  0.00    +0.000 A 
ATOM      6  C   UNL     1       1.423   9.228  18.799  0.00  0.00    +0.000 A 
ENDROOT
BRANCH   4   7
ATOM      7  C   UNL     1       3.050   5.798  19.501  0.00  0.00    +0.000 C 
ATOM      8  C   UNL     1       2.588   4.732  20.519  0.00  0.00    +0.000 C 
ATOM      9  C   UNL     1       1.212   4.163  20.181  0.00  0.00    +0.000 C 
ATOM     10  C   UNL     1       1.181   3.555  18.784  0.00  0.00    +0.000 C 
ATOM     11  C   UNL     1       1.710   4.504  17.714  0.00  0.00    +0.000 C 
ATOM     12  C   UNL     1       3.046   5.153  18.097  0.00  0.00    +0.000 C 
ENDBRANCH   4   7
BRANCH   1  15
ATOM     13  O   UNL     1       1.522  11.988  21.209  0.00  0.00    +0.000 OA
ATOM     14  C   UNL     1       0.407  11.817  20.705  0.00  0.00    +0.000 C 
ATOM     15  N   UNL     1      -0.046  10.613  20.182  0.00  0.00    +0.000 N 
ATOM     16  H   UNL     1      -1.046  10.485  20.092  0.00  0.00    +0.000 HD
BRANCH  14  17
ATOM     17  C   UNL     1      -0.619  12.950  20.660  0.00  0.00    +0.000 C 
BRANCH  17  18
ATOM     18  N   UNL     1      -1.916  12.528  21.233  0.00  0.00    +0.000 NA
ATOM     19  C   UNL     1      -3.029  13.461  20.903  0.00  0.00    +0.000 C 
ATOM     20  C   UNL     1      -2.942  14.815  21.623  0.00  0.00    +0.000 C 
ATOM     21  O   UNL     1      -2.886  14.641  23.046  0.00  0.00    +0.000 OA
ATOM     22  C   UNL     1      -1.784  13.807  23.420  0.00  0.00    +0.000 C 
ATOM     23  C   UNL     1      -1.838  12.442  22.710  0.00  0.00    +0.000 C 
ENDBRANCH  17  18
ENDBRANCH  14  17
ENDBRANCH   1  15
TORSDOF 4
ENDMDL
MODEL 9
REMARK VINA RESULT:      -6.7      3.669      8.432
REMARK  Name = 
REMARK  4 active torsions:
REMARK  status: ('A' for Active; 'I' for Inactive)
REMARK    1  A    between atoms: C_2  and  C_3
REMARK    2  A    between atoms: C_3  and  N_4
REMARK    3  A    between atoms: N_10  and  C_11
REMARK    4  A    between atoms: C_14  and  C_15
REMARK                            x       y       z     vdW  Elec       q    Type
REMARK                         _______ _______ _______ _____ _____    ______ ____
ROOT
ATOM      1  C   UNL     1       1.476   9.144  19.296  0.00  0.00    +0.000 A 
ATOM      2  C   UNL     1       1.382   8.407  20.473  0.00  0.00    +0.000 A 
ATOM      3  C   UNL     1       1.944   7.128  20.549  0.00  0.00    +0.000 A 
ATOM      4  C   UNL     1       2.548   6.525  19.430  0.00  0.00    +0.000 A 
ATOM      5  C   UNL     1       2.655   7.294  18.265  0.00  0.00    +0.000 A 
ATOM      6  C   UNL     1       2.121   8.585  18.195  0.00  0.00    +0.000 A 
ENDROOT
BRANCH   4   7
ATOM      7  C   UNL     1       3.063   5.089  19.537  0.00  0.00    +0.000 C 
ATOM      8  C   UNL     1       2.317   4.282  20.622  0.00  0.00    +0.000 C 
ATOM      9  C   UNL     1       0.896   3.916  20.199  0.00  0.00    +0.000 C 
ATOM     10  C   UNL     1       0.880   3.125  18.898  0.00  0.00    +0.000 C 
ATOM     11  C   UNL     1       1.676   3.799  17.785  0.00  0.00    +0.000 C 
ATOM     12  C   UNL     1       3.069   4.256  18.237  0.00  0.00    +0.000 C 
ENDBRANCH   4   7
BRANCH   1  15
ATOM     13  O   UNL     1      -0.888   9.918  17.825  0.00  0.00    +0.000 OA
ATOM     14  C   UNL     1      -0.297  10.704  18.573  0.00  0.00    +0.000 C 
ATOM     15  N   UNL     1       0.886  10.419  19.243  0.00  0.00    +0.000 N 
ATOM     16  H   UNL     1       1.447  11.199  19.561  0.00  0.00    +0.000 HD
BRANCH  14  17
ATOM     17  C   UNL     1      -0.817  12.126  18.792  0.00  0.00    +0.000 C 
BRANCH  17  18
ATOM     18  N   UNL     1       0.026  12.868  19.754  0.00  0.00    +0.000 NA
ATOM     19  C   UNL     1      -0.745  13.399  20.914  0.00  0.00    +0.000 C 
ATOM     20  C   UNL     1      -1.684  14.560  20.560  0.00  0.00    +0.000 C 
ATOM     21  O   UNL     1      -0.965  15.639  19.945  0.00  0.00    +0.000 OA
ATOM     22  C   UNL     1      -0.264  15.192  18.779  0.00  0.00    +0.000 C 
ATOM     23  C   UNL     1       0.685  14.023  19.100  0.00  0.00    +0.000 C 
ENDBRANCH  17  18
ENDBRANCH  14  17
ENDBRANCH   1  15
TORSDOF 4
ENDMDL
