MODEL 1
REMARK VINA RESULT:      -7.1      0.000      0.000
REMARK  Name = 
REMARK  12 active torsions:
REMARK  status: ('A' for Active; 'I' for Inactive)
REMARK    1  A    between atoms: C_1  and  O_2
REMARK    2  A    between atoms: O_2  and  C_3
REMARK    3  A    between atoms: C_5  and  O_6
REMARK    4  A    between atoms: O_6  and  C_7
REMARK    5  A    between atoms: C_7  and  C_8
REMARK    6  A    between atoms: C_8  and  N_9
REMARK    7  A    between atoms: C_15  and  C_16
REMARK    8  A    between atoms: C_17  and  C_18
REMARK    9  A    between atoms: C_18  and  C_20
REMARK   10  A    between atoms: C_23  and  C_24
REMARK   11  A    between atoms: C_24  and  O_26
REMARK   12  A    between atoms: C_30  and  C_31
REMARK                            x       y       z     vdW  Elec       q    Type
REMARK                         _______ _______ _______ _____ _____    ______ ____
ROOT
ATOM      1  C   UNL     1       0.115  13.140  18.718  0.00  0.00    +0.000 A 
ATOM      2  C   UNL     1      -0.904  12.193  18.584  0.00  0.00    +0.000 A 
ATOM      3  C   UNL     1      -0.678  10.808  18.625  0.00  0.00    +0.000 A 
ATOM      4  C   UNL     1       0.622  10.347  18.888  0.00  0.00    +0.000 A 
ATOM      5  C   UNL     1       1.637  11.319  19.082  0.00  0.00    +0.000 A 
ATOM      6  C   UNL     1       1.428  12.709  18.961  0.00  0.00    +0.000 A 
ENDROOT
BRANCH   6   7
ATOM      7  C   UNL     1       2.566  13.654  19.112  0.00  0.00    +0.000 A 
ATOM      8  C   UNL     1       3.402  14.195  18.147  0.00  0.00    +0.000 A 
ATOM      9  C   UNL     1       4.406  15.058  18.681  0.00  0.00    +0.000 A 
ATOM     10  C   UNL     1       4.303  15.174  20.047  0.00  0.00    +0.000 A 
ATOM     11  S   UNL     1       3.030  14.231  20.674  0.00  0.00    +0.000 S 
ENDBRANCH   6   7
BRANCH   1  13
ATOM     12  C   UNL     1      -0.719  15.159  19.656  0.00  0.00    +0.000 C 
ATOM     13  O   UNL     1      -0.140  14.480  18.540  0.00  0.00    +0.000 OA
ENDBRANCH   1  13
BRANCH   4  14
ATOM     14  C   UNL     1       1.097   8.949  18.933  0.00  0.00    +0.000 C 
ATOM     15  C   UNL     1       1.882   8.385  19.867  0.00  0.00    +0.000 C 
BRANCH  15  16
ATOM     16  C   UNL     1       2.159   6.927  19.798  0.00  0.00    +0.000 C 
ATOM     17  O   UNL     1       1.504   6.098  20.411  0.00  0.00    +0.000 OA
BRANCH  16  18
ATOM     18  C   UNL     1       3.295   6.500  18.938  0.00  0.00    +0.000 A 
ATOM     19  C   UNL     1       3.536   7.094  17.696  0.00  0.00    +0.000 A 
ATOM     20  C   UNL     1       4.644   6.707  16.941  0.00  0.00    +0.000 A 
ATOM     21  C   UNL     1       5.538   5.733  17.415  0.00  0.00    +0.000 A 
ATOM     22  C   UNL     1       5.283   5.129  18.655  0.00  0.00    +0.000 A 
ATOM     23  C   UNL     1       4.172   5.520  19.417  0.00  0.00    +0.000 A 
BRANCH  21  24
ATOM     24  C   UNL     1       6.710   5.428  16.539  0.00  0.00    +0.000 C 
ATOM     25  O   UNL     1       7.539   6.278  16.257  0.00  0.00    +0.000 OA
BRANCH  24  26
ATOM     26  O   UNL     1       6.812   4.163  16.085  0.00  0.00    +0.000 OA
ATOM     27  H   UNL     1       7.267   3.519  16.647  0.00  0.00    +0.000 HD
ENDBRANCH  24  26
ENDBRANCH  21  24
ENDBRANCH  16  18
ENDBRANCH  15  16
ENDBRANCH   4  14
BRANCH   3  28
ATOM     28  O   UNL     1      -1.713   9.911  18.403  0.00  0.00    +0.000 OA
BRANCH  28  29
ATOM     29  C   UNL     1      -2.599  10.284  17.325  0.00  0.00    +0.000 C 
BRANCH  29  30
ATOM     30  C   UNL     1      -4.059  10.451  17.767  0.00  0.00    +0.000 C 
BRANCH  30  31
ATOM     31  N   UNL     1      -4.469  11.862  17.922  0.00  0.00    +0.000 NA
ATOM     32  C   UNL     1      -4.584  12.251  19.347  0.00  0.00    +0.000 C 
ATOM     33  C   UNL     1      -5.918  11.858  20.009  0.00  0.00    +0.000 C 
ATOM     34  O   UNL     1      -7.034  12.379  19.281  0.00  0.00    +0.000 OA
ATOM     35  C   UNL     1      -7.020  11.893  17.936  0.00  0.00    +0.000 C 
ATOM     36  C   UNL     1      -5.711  12.270  17.225  0.00  0.00    +0.000 C 
ENDBRANCH  30  31
ENDBRANCH  29  30
ENDBRANCH  28  29
ENDBRANCH   3  28
TORSDOF 11
ENDMDL
MODEL 2
REMARK VINA RESULT:      -7.0      3.286      9.008
REMARK  Name = 
REMARK  12 active torsions:
REMARK  status: ('A' for Active; 'I' for Inactive)
REMARK    1  A    between atoms: C_1  and  O_2
REMARK    2  A    between atoms: O_2  and  C_3
REMARK    3  A    between atoms: C_5  and  O_6
REMARK    4  A    between atoms: O_6  and  C_7
REMARK    5  A    between atoms: C_7  and  C_8
REMARK    6  A    between atoms: C_8  and  N_9
REMARK    7  A    between atoms: C_15  and  C_16
REMARK    8  A    between atoms: C_17  and  C_18
REMARK    9  A    between atoms: C_18  and  C_20
REMARK   10  A    between atoms: C_23  and  C_24
REMARK   11  A    between atoms: C_24  and  O_26
REMARK   12  A    between atoms: C_30  and  C_31
REMARK                            x       y       z     vdW  Elec       q    Type
REMARK                         _______ _______ _______ _____ _____    ______ ____
ROOT
ATOM      1  C   UNL     1       3.137   6.900  17.964  0.00  0.00    +0.000 A 
ATOM      2  C   UNL     1       2.747   8.236  17.838  0.00  0.00    +0.000 A 
ATOM      3  C   UNL     1       1.962   8.903  18.793  0.00  0.00    +0.000 A 
ATOM      4  C   UNL     1       1.610   8.219  19.968  0.00  0.00    +0.000 A 
ATOM      5  C   UNL     1       2.062   6.882  20.111  0.00  0.00    +0.000 A 
ATOM      6  C   UNL     1       2.783   6.185  19.119  0.00  0.00    +0.000 A 
ENDROOT
BRANCH   6   7
ATOM      7  C   UNL     1       3.157   4.761  19.325  0.00  0.00    +0.000 A 
ATOM      8  C   UNL     1       2.347   3.643  19.453  0.00  0.00    +0.000 A 
ATOM      9  C   UNL     1       3.076   2.433  19.662  0.00  0.00    +0.000 A 
ATOM     10  C   UNL     1       4.433   2.650  19.669  0.00  0.00    +0.000 A 
ATOM     11  S   UNL     1       4.817   4.297  19.455  0.00  0.00    +0.000 S 
ENDBRANCH   6   7
BRANCH   1  13
ATOM     12  C   UNL     1       5.121   6.715  16.668  0.00  0.00    +0.000 C 
ATOM     13  O   UNL     1       3.795   6.258  16.941  0.00  0.00    +0.000 OA
ENDBRANCH   1  13
BRANCH   4  14
ATOM     14  C   UNL     1       0.762   8.700  21.077  0.00  0.00    +0.000 C 
ATOM     15  C   UNL     1       0.841   9.883  21.711  0.00  0.00    +0.000 C 
BRANCH  15  16
ATOM     16  C   UNL     1      -0.181  10.230  22.731  0.00  0.00    +0.000 C 
ATOM     17  O   UNL     1      -0.197   9.737  23.849  0.00  0.00    +0.000 OA
BRANCH  16  18
ATOM     18  C   UNL     1      -1.215  11.222  22.334  0.00  0.00    +0.000 A 
ATOM     19  C   UNL     1      -1.323  11.680  21.017  0.00  0.00    +0.000 A 
ATOM     20  C   UNL     1      -2.342  12.568  20.669  0.00  0.00    +0.000 A 
ATOM     21  C   UNL     1      -3.278  13.004  21.620  0.00  0.00    +0.000 A 
ATOM     22  C   UNL     1      -3.157  12.554  22.943  0.00  0.00    +0.000 A 
ATOM     23  C   UNL     1      -2.136  11.658  23.294  0.00  0.00    +0.000 A 
BRANCH  21  24
ATOM     24  C   UNL     1      -4.348  13.923  21.124  0.00  0.00    +0.000 C 
ATOM     25  O   UNL     1      -5.530  13.706  21.338  0.00  0.00    +0.000 OA
BRANCH  24  26
ATOM     26  O   UNL     1      -3.942  15.009  20.437  0.00  0.00    +0.000 OA
ATOM     27  H   UNL     1      -4.016  14.984  19.472  0.00  0.00    +0.000 HD
ENDBRANCH  24  26
ENDBRANCH  21  24
ENDBRANCH  16  18
ENDBRANCH  15  16
ENDBRANCH   4  14
BRANCH   3  28
ATOM     28  O   UNL     1       1.533  10.205  18.578  0.00  0.00    +0.000 OA
BRANCH  28  29
ATOM     29  C   UNL     1       2.415  10.990  17.746  0.00  0.00    +0.000 C 
BRANCH  29  30
ATOM     30  C   UNL     1       2.552  12.446  18.208  0.00  0.00    +0.000 C 
BRANCH  30  31
ATOM     31  N   UNL     1       1.564  12.832  19.236  0.00  0.00    +0.000 NA
ATOM     32  C   UNL     1       0.659  13.904  18.758  0.00  0.00    +0.000 C 
ATOM     33  C   UNL     1       1.239  15.327  18.873  0.00  0.00    +0.000 C 
ATOM     34  O   UNL     1       1.652  15.614  20.212  0.00  0.00    +0.000 OA
ATOM     35  C   UNL     1       2.640  14.671  20.640  0.00  0.00    +0.000 C 
ATOM     36  C   UNL     1       2.106  13.233  20.555  0.00  0.00    +0.000 C 
ENDBRANCH  30  31
ENDBRANCH  29  30
ENDBRANCH  28  29
ENDBRANCH   3  28
TORSDOF 11
ENDMDL
MODEL 3
REMARK VINA RESULT:      -6.9      3.507      8.442
REMARK  Name = 
REMARK  12 active torsions:
REMARK  status: ('A' for Active; 'I' for Inactive)
REMARK    1  A    between atoms: C_1  and  O_2
REMARK    2  A    between atoms: O_2  and  C_3
REMARK    3  A    between atoms: C_5  and  O_6
REMARK    4  A    between atoms: O_6  and  C_7
REMARK    5  A    between atoms: C_7  and  C_8
REMARK    6  A    between atoms: C_8  and  N_9
REMARK    7  A    between atoms: C_15  and  C_16
REMARK    8  A    between atoms: C_17  and  C_18
REMARK    9  A    between atoms: C_18  and  C_20
REMARK   10  A    between atoms: C_23  and  C_24
REMARK   11  A    between atoms: C_24  and  O_26
REMARK   12  A    between atoms: C_30  and  C_31
REMARK                            x       y       z     vdW  Elec       q    Type
REMARK                         _______ _______ _______ _____ _____    ______ ____
ROOT
ATOM      1  C   UNL     1       2.946   6.917  18.086  0.00  0.00    +0.000 A 
ATOM      2  C   UNL     1       2.446   8.205  17.883  0.00  0.00    +0.000 A 
ATOM      3  C   UNL     1       1.673   8.890  18.836  0.00  0.00    +0.000 A 
ATOM      4  C   UNL     1       1.452   8.283  20.082  0.00  0.00    +0.000 A 
ATOM      5  C   UNL     1       2.016   6.999  20.298  0.00  0.00    +0.000 A 
ATOM      6  C   UNL     1       2.725   6.277  19.315  0.00  0.00    +0.000 A 
ENDROOT
BRANCH   6   7
ATOM      7  C   UNL     1       3.221   4.905  19.605  0.00  0.00    +0.000 A 
ATOM      8  C   UNL     1       4.480   4.360  19.407  0.00  0.00    +0.000 A 
ATOM      9  C   UNL     1       4.573   2.988  19.794  0.00  0.00    +0.000 A 
ATOM     10  C   UNL     1       3.383   2.519  20.298  0.00  0.00    +0.000 A 
ATOM     11  S   UNL     1       2.167   3.713  20.277  0.00  0.00    +0.000 S 
ENDBRANCH   6   7
BRANCH   1  13
ATOM     12  C   UNL     1       4.863   6.755  16.690  0.00  0.00    +0.000 C 
ATOM     13  O   UNL     1       3.586   6.241  17.073  0.00  0.00    +0.000 OA
ENDBRANCH   1  13
BRANCH   4  14
ATOM     14  C   UNL     1       0.641   8.791  21.208  0.00  0.00    +0.000 C 
ATOM     15  C   UNL     1       0.707  10.007  21.777  0.00  0.00    +0.000 C 
BRANCH  15  16
ATOM     16  C   UNL     1      -0.276  10.371  22.828  0.00  0.00    +0.000 C 
ATOM     17  O   UNL     1      -0.278   9.864  23.939  0.00  0.00    +0.000 OA
BRANCH  16  18
ATOM     18  C   UNL     1      -1.289  11.401  22.471  0.00  0.00    +0.000 A 
ATOM     19  C   UNL     1      -1.265  12.053  21.235  0.00  0.00    +0.000 A 
ATOM     20  C   UNL     1      -2.265  12.973  20.912  0.00  0.00    +0.000 A 
ATOM     21  C   UNL     1      -3.311  13.248  21.808  0.00  0.00    +0.000 A 
ATOM     22  C   UNL     1      -3.321  12.602  23.053  0.00  0.00    +0.000 A 
ATOM     23  C   UNL     1      -2.321  11.674  23.377  0.00  0.00    +0.000 A 
BRANCH  21  24
ATOM     24  C   UNL     1      -4.346  14.219  21.339  0.00  0.00    +0.000 C 
ATOM     25  O   UNL     1      -4.955  14.933  22.119  0.00  0.00    +0.000 OA
BRANCH  24  26
ATOM     26  O   UNL     1      -4.565  14.274  20.011  0.00  0.00    +0.000 OA
ATOM     27  H   UNL     1      -4.009  14.869  19.487  0.00  0.00    +0.000 HD
ENDBRANCH  24  26
ENDBRANCH  21  24
ENDBRANCH  16  18
ENDBRANCH  15  16
ENDBRANCH   4  14
BRANCH   3  28
ATOM     28  O   UNL     1       1.131  10.135  18.550  0.00  0.00    +0.000 OA
BRANCH  28  29
ATOM     29  C   UNL     1      -0.314  10.160  18.522  0.00  0.00    +0.000 C 
BRANCH  29  30
ATOM     30  C   UNL     1      -0.899   9.950  17.119  0.00  0.00    +0.000 C 
BRANCH  30  31
ATOM     31  N   UNL     1      -2.319   9.543  17.130  0.00  0.00    +0.000 NA
ATOM     32  C   UNL     1      -2.933   9.645  15.785  0.00  0.00    +0.000 C 
ATOM     33  C   UNL     1      -3.407  11.061  15.406  0.00  0.00    +0.000 C 
ATOM     34  O   UNL     1      -4.311  11.586  16.384  0.00  0.00    +0.000 OA
ATOM     35  C   UNL     1      -3.681  11.632  17.667  0.00  0.00    +0.000 C 
ATOM     36  C   UNL     1      -3.199  10.239  18.098  0.00  0.00    +0.000 C 
ENDBRANCH  30  31
ENDBRANCH  29  30
ENDBRANCH  28  29
ENDBRANCH   3  28
TORSDOF 11
ENDMDL
MODEL 4
REMARK VINA RESULT:      -6.9      3.253      6.496
REMARK  Name = 
REMARK  12 active torsions:
REMARK  status: ('A' for Active; 'I' for Inactive)
REMARK    1  A    between atoms: C_1  and  O_2
REMARK    2  A    between atoms: O_2  and  C_3
REMARK    3  A    between atoms: C_5  and  O_6
REMARK    4  A    between atoms: O_6  and  C_7
REMARK    5  A    between atoms: C_7  and  C_8
REMARK    6  A    between atoms: C_8  and  N_9
REMARK    7  A    between atoms: C_15  and  C_16
REMARK    8  A    between atoms: C_17  and  C_18
REMARK    9  A    between atoms: C_18  and  C_20
REMARK   10  A    between atoms: C_23  and  C_24
REMARK   11  A    between atoms: C_24  and  O_26
REMARK   12  A    between atoms: C_30  and  C_31
REMARK                            x       y       z     vdW  Elec       q    Type
REMARK                         _______ _______ _______ _____ _____    ______ ____
ROOT
ATOM      1  C   UNL     1      -1.707  12.952  19.961  0.00  0.00    +0.000 A 
ATOM      2  C   UNL     1      -0.481  13.099  20.615  0.00  0.00    +0.000 A 
ATOM      3  C   UNL     1       0.581  12.190  20.474  0.00  0.00    +0.000 A 
ATOM      4  C   UNL     1       0.434  11.121  19.576  0.00  0.00    +0.000 A 
ATOM      5  C   UNL     1      -0.794  11.017  18.872  0.00  0.00    +0.000 A 
ATOM      6  C   UNL     1      -1.890  11.883  19.072  0.00  0.00    +0.000 A 
ENDROOT
BRANCH   6   7
ATOM      7  C   UNL     1      -3.165  11.658  18.341  0.00  0.00    +0.000 A 
ATOM      8  C   UNL     1      -3.377  11.300  17.019  0.00  0.00    +0.000 A 
ATOM      9  C   UNL     1      -4.758  11.197  16.670  0.00  0.00    +0.000 A 
ATOM     10  C   UNL     1      -5.575  11.459  17.744  0.00  0.00    +0.000 A 
ATOM     11  S   UNL     1      -4.684  11.853  19.142  0.00  0.00    +0.000 S 
ENDBRANCH   6   7
BRANCH   1  13
ATOM     12  C   UNL     1      -2.452  14.930  21.050  0.00  0.00    +0.000 C 
ATOM     13  O   UNL     1      -2.757  13.798  20.233  0.00  0.00    +0.000 OA
ENDBRANCH   1  13
BRANCH   4  14
ATOM     14  C   UNL     1       1.390  10.029  19.302  0.00  0.00    +0.000 C 
ATOM     15  C   UNL     1       1.262   9.041  18.400  0.00  0.00    +0.000 C 
BRANCH  15  16
ATOM     16  C   UNL     1       2.390   8.097  18.192  0.00  0.00    +0.000 C 
ATOM     17  O   UNL     1       3.422   8.412  17.619  0.00  0.00    +0.000 OA
BRANCH  16  18
ATOM     18  C   UNL     1       2.213   6.716  18.715  0.00  0.00    +0.000 A 
ATOM     19  C   UNL     1       2.041   6.466  20.079  0.00  0.00    +0.000 A 
ATOM     20  C   UNL     1       1.822   5.162  20.527  0.00  0.00    +0.000 A 
ATOM     21  C   UNL     1       1.757   4.088  19.625  0.00  0.00    +0.000 A 
ATOM     22  C   UNL     1       1.947   4.342  18.259  0.00  0.00    +0.000 A 
ATOM     23  C   UNL     1       2.163   5.652  17.805  0.00  0.00    +0.000 A 
BRANCH  21  24
ATOM     24  C   UNL     1       1.479   2.743  20.215  0.00  0.00    +0.000 C 
ATOM     25  O   UNL     1       1.198   2.605  21.395  0.00  0.00    +0.000 OA
BRANCH  24  26
ATOM     26  O   UNL     1       1.543   1.691  19.376  0.00  0.00    +0.000 OA
ATOM     27  H   UNL     1       0.827   1.040  19.415  0.00  0.00    +0.000 HD
ENDBRANCH  24  26
ENDBRANCH  21  24
ENDBRANCH  16  18
ENDBRANCH  15  16
ENDBRANCH   4  14
BRANCH   3  28
ATOM     28  O   UNL     1       1.746  12.337  21.212  0.00  0.00    +0.000 OA
BRANCH  28  29
ATOM     29  C   UNL     1       2.451  13.574  20.967  0.00  0.00    +0.000 C 
BRANCH  29  30
ATOM     30  C   UNL     1       2.946  13.717  19.522  0.00  0.00    +0.000 C 
BRANCH  30  31
ATOM     31  N   UNL     1       4.006  14.733  19.361  0.00  0.00    +0.000 NA
ATOM     32  C   UNL     1       3.665  16.001  20.047  0.00  0.00    +0.000 C 
ATOM     33  C   UNL     1       2.740  16.933  19.242  0.00  0.00    +0.000 C 
ATOM     34  O   UNL     1       3.287  17.221  17.951  0.00  0.00    +0.000 OA
ATOM     35  C   UNL     1       3.485  16.011  17.215  0.00  0.00    +0.000 C 
ATOM     36  C   UNL     1       4.414  15.049  17.972  0.00  0.00    +0.000 C 
ENDBRANCH  30  31
ENDBRANCH  29  30
ENDBRANCH  28  29
ENDBRANCH   3  28
TORSDOF 11
ENDMDL
MODEL 5
REMARK VINA RESULT:      -6.9      3.390      8.532
REMARK  Name = 
REMARK  12 active torsions:
REMARK  status: ('A' for Active; 'I' for Inactive)
REMARK    1  A    between atoms: C_1  and  O_2
REMARK    2  A    between atoms: O_2  and  C_3
REMARK    3  A    between atoms: C_5  and  O_6
REMARK    4  A    between atoms: O_6  and  C_7
REMARK    5  A    between atoms: C_7  and  C_8
REMARK    6  A    between atoms: C_8  and  N_9
REMARK    7  A    between atoms: C_15  and  C_16
REMARK    8  A    between atoms: C_17  and  C_18
REMARK    9  A    between atoms: C_18  and  C_20
REMARK   10  A    between atoms: C_23  and  C_24
REMARK   11  A    between atoms: C_24  and  O_26
REMARK   12  A    between atoms: C_30  and  C_31
REMARK                            x       y       z     vdW  Elec       q    Type
REMARK                         _______ _______ _______ _____ _____    ______ ____
ROOT
ATOM      1  C   UNL     1       2.946   6.583  18.304  0.00  0.00    +0.000 A 
ATOM      2  C   UNL     1       2.497   7.885  18.071  0.00  0.00    +0.000 A 
ATOM      3  C   UNL     1       1.772   8.631  19.016  0.00  0.00    +0.000 A 
ATOM      4  C   UNL     1       1.551   8.071  20.285  0.00  0.00    +0.000 A 
ATOM      5  C   UNL     1       2.064   6.772  20.530  0.00  0.00    +0.000 A 
ATOM      6  C   UNL     1       2.723   5.990  19.556  0.00  0.00    +0.000 A 
ENDROOT
BRANCH   6   7
ATOM      7  C   UNL     1       3.167   4.608  19.879  0.00  0.00    +0.000 A 
ATOM      8  C   UNL     1       4.213   3.869  19.352  0.00  0.00    +0.000 A 
ATOM      9  C   UNL     1       4.318   2.556  19.903  0.00  0.00    +0.000 A 
ATOM     10  C   UNL     1       3.356   2.326  20.858  0.00  0.00    +0.000 A 
ATOM     11  S   UNL     1       2.327   3.669  21.062  0.00  0.00    +0.000 S 
ENDBRANCH   6   7
BRANCH   1  13
ATOM     12  C   UNL     1       4.755   6.380  16.775  0.00  0.00    +0.000 C 
ATOM     13  O   UNL     1       3.537   5.851  17.301  0.00  0.00    +0.000 OA
ENDBRANCH   1  13
BRANCH   4  14
ATOM     14  C   UNL     1       0.785   8.647  21.409  0.00  0.00    +0.000 C 
ATOM     15  C   UNL     1       0.677   9.945  21.742  0.00  0.00    +0.000 C 
BRANCH  15  16
ATOM     16  C   UNL     1      -0.237  10.338  22.844  0.00  0.00    +0.000 C 
ATOM     17  O   UNL     1      -0.379   9.673  23.858  0.00  0.00    +0.000 OA
BRANCH  16  18
ATOM     18  C   UNL     1      -0.999  11.603  22.663  0.00  0.00    +0.000 A 
ATOM     19  C   UNL     1      -2.275  11.772  23.208  0.00  0.00    +0.000 A 
ATOM     20  C   UNL     1      -2.938  12.993  23.066  0.00  0.00    +0.000 A 
ATOM     21  C   UNL     1      -2.338  14.068  22.392  0.00  0.00    +0.000 A 
ATOM     22  C   UNL     1      -1.063  13.888  21.833  0.00  0.00    +0.000 A 
ATOM     23  C   UNL     1      -0.394  12.664  21.979  0.00  0.00    +0.000 A 
BRANCH  21  24
ATOM     24  C   UNL     1      -3.124  15.338  22.336  0.00  0.00    +0.000 C 
ATOM     25  O   UNL     1      -2.584  16.421  22.177  0.00  0.00    +0.000 OA
BRANCH  24  26
ATOM     26  O   UNL     1      -4.461  15.226  22.462  0.00  0.00    +0.000 OA
ATOM     27  H   UNL     1      -5.013  15.643  21.784  0.00  0.00    +0.000 HD
ENDBRANCH  24  26
ENDBRANCH  21  24
ENDBRANCH  16  18
ENDBRANCH  15  16
ENDBRANCH   4  14
BRANCH   3  28
ATOM     28  O   UNL     1       1.277   9.888  18.702  0.00  0.00    +0.000 OA
BRANCH  28  29
ATOM     29  C   UNL     1       0.069   9.869  17.911  0.00  0.00    +0.000 C 
BRANCH  29  30
ATOM     30  C   UNL     1      -1.162  10.385  18.668  0.00  0.00    +0.000 C 
BRANCH  30  31
ATOM     31  N   UNL     1      -1.775  11.579  18.049  0.00  0.00    +0.000 NA
ATOM     32  C   UNL     1      -2.791  12.199  18.932  0.00  0.00    +0.000 C 
ATOM     33  C   UNL     1      -4.179  11.534  18.873  0.00  0.00    +0.000 C 
ATOM     34  O   UNL     1      -4.677  11.488  17.532  0.00  0.00    +0.000 OA
ATOM     35  C   UNL     1      -3.776  10.761  16.693  0.00  0.00    +0.000 C 
ATOM     36  C   UNL     1      -2.375  11.393  16.707  0.00  0.00    +0.000 C 
ENDBRANCH  30  31
ENDBRANCH  29  30
ENDBRANCH  28  29
ENDBRANCH   3  28
TORSDOF 11
ENDMDL
MODEL 6
REMARK VINA RESULT:      -6.8      3.525      8.797
REMARK  Name = 
REMARK  12 active torsions:
REMARK  status: ('A' for Active; 'I' for Inactive)
REMARK    1  A    between atoms: C_1  and  O_2
REMARK    2  A    between atoms: O_2  and  C_3
REMARK    3  A    between atoms: C_5  and  O_6
REMARK    4  A    between atoms: O_6  and  C_7
REMARK    5  A    between atoms: C_7  and  C_8
REMARK    6  A    between atoms: C_8  and  N_9
REMARK    7  A    between atoms: C_15  and  C_16
REMARK    8  A    between atoms: C_17  and  C_18
REMARK    9  A    between atoms: C_18  and  C_20
REMARK   10  A    between atoms: C_23  and  C_24
REMARK   11  A    between atoms: C_24  and  O_26
REMARK   12  A    between atoms: C_30  and  C_31
REMARK                            x       y       z     vdW  Elec       q    Type
REMARK                         _______ _______ _______ _____ _____    ______ ____
ROOT
ATOM      1  C   UNL     1       2.482   6.537  18.490  0.00  0.00    +0.000 A 
ATOM      2  C   UNL     1       2.187   7.863  18.162  0.00  0.00    +0.000 A 
ATOM      3  C   UNL     1       1.639   8.778  19.076  0.00  0.00    +0.000 A 
ATOM      4  C   UNL     1       1.445   8.366  20.404  0.00  0.00    +0.000 A 
ATOM      5  C   UNL     1       1.804   7.035  20.739  0.00  0.00    +0.000 A 
ATOM      6  C   UNL     1       2.280   6.090  19.804  0.00  0.00    +0.000 A 
ENDROOT
BRANCH   6   7
ATOM      7  C   UNL     1       2.567   4.694  20.229  0.00  0.00    +0.000 A 
ATOM      8  C   UNL     1       1.762   3.793  20.907  0.00  0.00    +0.000 A 
ATOM      9  C   UNL     1       2.397   2.539  21.159  0.00  0.00    +0.000 A 
ATOM     10  C   UNL     1       3.673   2.503  20.648  0.00  0.00    +0.000 A 
ATOM     11  S   UNL     1       4.103   3.973  19.902  0.00  0.00    +0.000 S 
ENDBRANCH   6   7
BRANCH   1  13
ATOM     12  C   UNL     1       4.228   5.824  17.043  0.00  0.00    +0.000 C 
ATOM     13  O   UNL     1       2.895   5.648  17.525  0.00  0.00    +0.000 OA
ENDBRANCH   1  13
BRANCH   4  14
ATOM     14  C   UNL     1       0.848   9.135  21.515  0.00  0.00    +0.000 C 
ATOM     15  C   UNL     1      -0.187   9.990  21.451  0.00  0.00    +0.000 C 
BRANCH  15  16
ATOM     16  C   UNL     1      -0.718  10.583  22.704  0.00  0.00    +0.000 C 
ATOM     17  O   UNL     1      -0.436  10.155  23.813  0.00  0.00    +0.000 OA
BRANCH  16  18
ATOM     18  C   UNL     1      -1.635  11.745  22.560  0.00  0.00    +0.000 A 
ATOM     19  C   UNL     1      -1.466  12.690  21.544  0.00  0.00    +0.000 A 
ATOM     20  C   UNL     1      -2.378  13.736  21.404  0.00  0.00    +0.000 A 
ATOM     21  C   UNL     1      -3.482  13.854  22.265  0.00  0.00    +0.000 A 
ATOM     22  C   UNL     1      -3.638  12.912  23.294  0.00  0.00    +0.000 A 
ATOM     23  C   UNL     1      -2.725  11.857  23.432  0.00  0.00    +0.000 A 
BRANCH  21  24
ATOM     24  C   UNL     1      -4.414  14.991  21.997  0.00  0.00    +0.000 C 
ATOM     25  O   UNL     1      -5.591  14.945  22.317  0.00  0.00    +0.000 OA
BRANCH  24  26
ATOM     26  O   UNL     1      -3.887  16.074  21.392  0.00  0.00    +0.000 OA
ATOM     27  H   UNL     1      -4.481  16.627  20.864  0.00  0.00    +0.000 HD
ENDBRANCH  24  26
ENDBRANCH  21  24
ENDBRANCH  16  18
ENDBRANCH  15  16
ENDBRANCH   4  14
BRANCH   3  28
ATOM     28  O   UNL     1       1.287  10.059  18.676  0.00  0.00    +0.000 OA
BRANCH  28  29
ATOM     29  C   UNL     1       0.204  10.105  17.721  0.00  0.00    +0.000 C 
BRANCH  29  30
ATOM     30  C   UNL     1      -1.100  10.664  18.306  0.00  0.00    +0.000 C 
BRANCH  30  31
ATOM     31  N   UNL     1      -2.305   9.932  17.861  0.00  0.00    +0.000 NA
ATOM     32  C   UNL     1      -2.309   9.715  16.395  0.00  0.00    +0.000 C 
ATOM     33  C   UNL     1      -2.813  10.917  15.573  0.00  0.00    +0.000 C 
ATOM     34  O   UNL     1      -4.116  11.327  15.998  0.00  0.00    +0.000 OA
ATOM     35  C   UNL     1      -4.097  11.684  17.383  0.00  0.00    +0.000 C 
ATOM     36  C   UNL     1      -3.611  10.512  18.250  0.00  0.00    +0.000 C 
ENDBRANCH  30  31
ENDBRANCH  29  30
ENDBRANCH  28  29
ENDBRANCH   3  28
TORSDOF 11
ENDMDL
MODEL 7
REMARK VINA RESULT:      -6.8      3.425      8.564
REMARK  Name = 
REMARK  12 active torsions:
REMARK  status: ('A' for Active; 'I' for Inactive)
REMARK    1  A    between atoms: C_1  and  O_2
REMARK    2  A    between atoms: O_2  and  C_3
REMARK    3  A    between atoms: C_5  and  O_6
REMARK    4  A    between atoms: O_6  and  C_7
REMARK    5  A    between atoms: C_7  and  C_8
REMARK    6  A    between atoms: C_8  and  N_9
REMARK    7  A    between atoms: C_15  and  C_16
REMARK    8  A    between atoms: C_17  and  C_18
REMARK    9  A    between atoms: C_18  and  C_20
REMARK   10  A    between atoms: C_23  and  C_24
REMARK   11  A    between atoms: C_24  and  O_26
REMARK   12  A    between atoms: C_30  and  C_31
REMARK                            x       y       z     vdW  Elec       q    Type
REMARK                         _______ _______ _______ _____ _____    ______ ____
ROOT
ATOM      1  C   UNL     1       2.988   6.530  18.094  0.00  0.00    +0.000 A 
ATOM      2  C   UNL     1       2.757   7.906  18.030  0.00  0.00    +0.000 A 
ATOM      3  C   UNL     1       2.080   8.621  19.033  0.00  0.00    +0.000 A 
ATOM      4  C   UNL     1       1.680   7.935  20.191  0.00  0.00    +0.000 A 
ATOM      5  C   UNL     1       1.973   6.550  20.270  0.00  0.00    +0.000 A 
ATOM      6  C   UNL     1       2.582   5.814  19.230  0.00  0.00    +0.000 A 
ENDROOT
BRANCH   6   7
ATOM      7  C   UNL     1       2.789   4.348  19.371  0.00  0.00    +0.000 A 
ATOM      8  C   UNL     1       1.856   3.326  19.442  0.00  0.00    +0.000 A 
ATOM      9  C   UNL     1       2.440   2.032  19.597  0.00  0.00    +0.000 A 
ATOM     10  C   UNL     1       3.814   2.093  19.623  0.00  0.00    +0.000 A 
ATOM     11  S   UNL     1       4.383   3.693  19.489  0.00  0.00    +0.000 S 
ENDBRANCH   6   7
BRANCH   1  13
ATOM     12  C   UNL     1       4.826   6.311  16.602  0.00  0.00    +0.000 C 
ATOM     13  O   UNL     1       3.539   5.858  17.028  0.00  0.00    +0.000 OA
ENDBRANCH   1  13
BRANCH   4  14
ATOM     14  C   UNL     1       0.923   8.466  21.343  0.00  0.00    +0.000 C 
ATOM     15  C   UNL     1       0.924   9.727  21.808  0.00  0.00    +0.000 C 
BRANCH  15  16
ATOM     16  C   UNL     1       0.003  10.094  22.914  0.00  0.00    +0.000 C 
ATOM     17  O   UNL     1      -0.066   9.464  23.957  0.00  0.00    +0.000 OA
BRANCH  16  18
ATOM     18  C   UNL     1      -0.860  11.286  22.699  0.00  0.00    +0.000 A 
ATOM     19  C   UNL     1      -2.148  11.364  23.237  0.00  0.00    +0.000 A 
ATOM     20  C   UNL     1      -2.909  12.521  23.062  0.00  0.00    +0.000 A 
ATOM     21  C   UNL     1      -2.396  13.625  22.362  0.00  0.00    +0.000 A 
ATOM     22  C   UNL     1      -1.109  13.537  21.811  0.00  0.00    +0.000 A 
ATOM     23  C   UNL     1      -0.341  12.376  21.990  0.00  0.00    +0.000 A 
BRANCH  21  24
ATOM     24  C   UNL     1      -3.284  14.824  22.273  0.00  0.00    +0.000 C 
ATOM     25  O   UNL     1      -4.152  15.043  23.103  0.00  0.00    +0.000 OA
BRANCH  24  26
ATOM     26  O   UNL     1      -3.072  15.656  21.235  0.00  0.00    +0.000 OA
ATOM     27  H   UNL     1      -2.745  16.546  21.431  0.00  0.00    +0.000 HD
ENDBRANCH  24  26
ENDBRANCH  21  24
ENDBRANCH  16  18
ENDBRANCH  15  16
ENDBRANCH   4  14
BRANCH   3  28
ATOM     28  O   UNL     1       1.803   9.971  18.880  0.00  0.00    +0.000 OA
BRANCH  28  29
ATOM     29  C   UNL     1       0.900  10.273  17.794  0.00  0.00    +0.000 C 
BRANCH  29  30
ATOM     30  C   UNL     1      -0.579  10.099  18.166  0.00  0.00    +0.000 C 
BRANCH  30  31
ATOM     31  N   UNL     1      -1.485  10.978  17.398  0.00  0.00    +0.000 NA
ATOM     32  C   UNL     1      -1.914  12.155  18.188  0.00  0.00    +0.000 C 
ATOM     33  C   UNL     1      -3.090  11.886  19.146  0.00  0.00    +0.000 C 
ATOM     34  O   UNL     1      -4.216  11.344  18.449  0.00  0.00    +0.000 OA
ATOM     35  C   UNL     1      -3.855  10.122  17.799  0.00  0.00    +0.000 C 
ATOM     36  C   UNL     1      -2.691  10.339  16.820  0.00  0.00    +0.000 C 
ENDBRANCH  30  31
ENDBRANCH  29  30
ENDBRANCH  28  29
ENDBRANCH   3  28
TORSDOF 11
ENDMDL
MODEL 8
REMARK VINA RESULT:      -6.8      0.875      1.404
REMARK  Name = 
REMARK  12 active torsions:
REMARK  status: ('A' for Active; 'I' for Inactive)
REMARK    1  A    between atoms: C_1  and  O_2
REMARK    2  A    between atoms: O_2  and  C_3
REMARK    3  A    between atoms: C_5  and  O_6
REMARK    4  A    between atoms: O_6  and  C_7
REMARK    5  A    between atoms: C_7  and  C_8
REMARK    6  A    between atoms: C_8  and  N_9
REMARK    7  A    between atoms: C_15  and  C_16
REMARK    8  A    between atoms: C_17  and  C_18
REMARK    9  A    between atoms: C_18  and  C_20
REMARK   10  A    between atoms: C_23  and  C_24
REMARK   11  A    between atoms: C_24  and  O_26
REMARK   12  A    between atoms: C_30  and  C_31
REMARK                            x       y       z     vdW  Elec       q    Type
REMARK                         _______ _______ _______ _____ _____    ______ ____
ROOT
ATOM      1  C   UNL     1       0.218  13.509  18.637  0.00  0.00    +0.000 A 
ATOM      2  C   UNL     1      -0.872  12.651  18.466  0.00  0.00    +0.000 A 
ATOM      3  C   UNL     1      -0.764  11.252  18.506  0.00  0.00    +0.000 A 
ATOM      4  C   UNL     1       0.485  10.683  18.806  0.00  0.00    +0.000 A 
ATOM      5  C   UNL     1       1.571  11.566  19.037  0.00  0.00    +0.000 A 
ATOM      6  C   UNL     1       1.482  12.970  18.919  0.00  0.00    +0.000 A 
ENDROOT
BRANCH   6   7
ATOM      7  C   UNL     1       2.690  13.816  19.110  0.00  0.00    +0.000 A 
ATOM      8  C   UNL     1       3.568  14.330  18.170  0.00  0.00    +0.000 A 
ATOM      9  C   UNL     1       4.635  15.089  18.741  0.00  0.00    +0.000 A 
ATOM     10  C   UNL     1       4.536  15.154  20.111  0.00  0.00    +0.000 A 
ATOM     11  S   UNL     1       3.191  14.287  20.696  0.00  0.00    +0.000 S 
ENDBRANCH   6   7
BRANCH   1  13
ATOM     12  C   UNL     1      -0.533  15.578  19.535  0.00  0.00    +0.000 C 
ATOM     13  O   UNL     1       0.082  14.866  18.460  0.00  0.00    +0.000 OA
ENDBRANCH   1  13
BRANCH   4  14
ATOM     14  C   UNL     1       0.840   9.251  18.858  0.00  0.00    +0.000 C 
ATOM     15  C   UNL     1       1.963   8.706  19.358  0.00  0.00    +0.000 C 
BRANCH  15  16
ATOM     16  C   UNL     1       2.087   7.228  19.423  0.00  0.00    +0.000 C 
ATOM     17  O   UNL     1       1.446   6.542  20.204  0.00  0.00    +0.000 OA
BRANCH  16  18
ATOM     18  C   UNL     1       3.048   6.594  18.482  0.00  0.00    +0.000 A 
ATOM     19  C   UNL     1       3.192   5.205  18.408  0.00  0.00    +0.000 A 
ATOM     20  C   UNL     1       4.064   4.643  17.473  0.00  0.00    +0.000 A 
ATOM     21  C   UNL     1       4.795   5.451  16.588  0.00  0.00    +0.000 A 
ATOM     22  C   UNL     1       4.659   6.845  16.677  0.00  0.00    +0.000 A 
ATOM     23  C   UNL     1       3.780   7.412  17.612  0.00  0.00    +0.000 A 
BRANCH  21  24
ATOM     24  C   UNL     1       5.666   4.738  15.605  0.00  0.00    +0.000 C 
ATOM     25  O   UNL     1       5.781   3.523  15.613  0.00  0.00    +0.000 OA
BRANCH  24  26
ATOM     26  O   UNL     1       6.310   5.504  14.702  0.00  0.00    +0.000 OA
ATOM     27  H   UNL     1       5.782   5.912  14.001  0.00  0.00    +0.000 HD
ENDBRANCH  24  26
ENDBRANCH  21  24
ENDBRANCH  16  18
ENDBRANCH  15  16
ENDBRANCH   4  14
BRANCH   3  28
ATOM     28  O   UNL     1      -1.862  10.445  18.246  0.00  0.00    +0.000 OA
BRANCH  28  29
ATOM     29  C   UNL     1      -2.540  10.748  17.007  0.00  0.00    +0.000 C 
BRANCH  29  30
ATOM     30  C   UNL     1      -3.917  11.394  17.209  0.00  0.00    +0.000 C 
BRANCH  30  31
ATOM     31  N   UNL     1      -4.497  11.140  18.544  0.00  0.00    +0.000 NA
ATOM     32  C   UNL     1      -5.843  10.526  18.454  0.00  0.00    +0.000 C 
ATOM     33  C   UNL     1      -6.987  11.530  18.219  0.00  0.00    +0.000 C 
ATOM     34  O   UNL     1      -6.995  12.553  19.220  0.00  0.00    +0.000 OA
ATOM     35  C   UNL     1      -5.750  13.257  19.220  0.00  0.00    +0.000 C 
ATOM     36  C   UNL     1      -4.573  12.299  19.463  0.00  0.00    +0.000 C 
ENDBRANCH  30  31
ENDBRANCH  29  30
ENDBRANCH  28  29
ENDBRANCH   3  28
TORSDOF 11
ENDMDL
MODEL 9
REMARK VINA RESULT:      -6.8      3.373      9.091
REMARK  Name = 
REMARK  12 active torsions:
REMARK  status: ('A' for Active; 'I' for Inactive)
REMARK    1  A    between atoms: C_1  and  O_2
REMARK    2  A    between atoms: O_2  and  C_3
REMARK    3  A    between atoms: C_5  and  O_6
REMARK    4  A    between atoms: O_6  and  C_7
REMARK    5  A    between atoms: C_7  and  C_8
REMARK    6  A    between atoms: C_8  and  N_9
REMARK    7  A    between atoms: C_15  and  C_16
REMARK    8  A    between atoms: C_17  and  C_18
REMARK    9  A    between atoms: C_18  and  C_20
REMARK   10  A    between atoms: C_23  and  C_24
REMARK   11  A    between atoms: C_24  and  O_26
REMARK   12  A    between atoms: C_30  and  C_31
REMARK                            x       y       z     vdW  Elec       q    Type
REMARK                         _______ _______ _______ _____ _____    ______ ____
ROOT
ATOM      1  C   UNL     1       3.029   6.990  17.970  0.00  0.00    +0.000 A 
ATOM      2  C   UNL     1       2.574   8.297  17.782  0.00  0.00    +0.000 A 
ATOM      3  C   UNL     1       1.783   8.980  18.721  0.00  0.00    +0.000 A 
ATOM      4  C   UNL     1       1.494   8.349  19.941  0.00  0.00    +0.000 A 
ATOM      5  C   UNL     1       2.012   7.044  20.145  0.00  0.00    +0.000 A 
ATOM      6  C   UNL     1       2.739   6.325  19.172  0.00  0.00    +0.000 A 
ENDROOT
BRANCH   6   7
ATOM      7  C   UNL     1       3.185   4.933  19.445  0.00  0.00    +0.000 A 
ATOM      8  C   UNL     1       2.443   3.825  19.825  0.00  0.00    +0.000 A 
ATOM      9  C   UNL     1       3.232   2.651  20.017  0.00  0.00    +0.000 A 
ATOM     10  C   UNL     1       4.563   2.882  19.759  0.00  0.00    +0.000 A 
ATOM     11  S   UNL     1       4.854   4.503  19.321  0.00  0.00    +0.000 S 
ENDBRANCH   6   7
BRANCH   1  13
ATOM     12  C   UNL     1       4.946   6.874  16.570  0.00  0.00    +0.000 C 
ATOM     13  O   UNL     1       3.689   6.321  16.966  0.00  0.00    +0.000 OA
ENDBRANCH   1  13
BRANCH   4  14
ATOM     14  C   UNL     1       0.654   8.852  21.046  0.00  0.00    +0.000 C 
ATOM     15  C   UNL     1       0.689  10.073  21.607  0.00  0.00    +0.000 C 
BRANCH  15  16
ATOM     16  C   UNL     1      -0.320  10.429  22.636  0.00  0.00    +0.000 C 
ATOM     17  O   UNL     1      -0.325   9.944  23.757  0.00  0.00    +0.000 OA
BRANCH  16  18
ATOM     18  C   UNL     1      -1.357  11.421  22.244  0.00  0.00    +0.000 A 
ATOM     19  C   UNL     1      -2.259  11.943  23.174  0.00  0.00    +0.000 A 
ATOM     20  C   UNL     1      -3.182  12.915  22.782  0.00  0.00    +0.000 A 
ATOM     21  C   UNL     1      -3.213  13.392  21.461  0.00  0.00    +0.000 A 
ATOM     22  C   UNL     1      -2.316  12.853  20.527  0.00  0.00    +0.000 A 
ATOM     23  C   UNL     1      -1.384  11.880  20.921  0.00  0.00    +0.000 A 
BRANCH  21  24
ATOM     24  C   UNL     1      -4.216  14.460  21.166  0.00  0.00    +0.000 C 
ATOM     25  O   UNL     1      -5.249  14.565  21.807  0.00  0.00    +0.000 OA
BRANCH  24  26
ATOM     26  O   UNL     1      -3.918  15.307  20.161  0.00  0.00    +0.000 OA
ATOM     27  H   UNL     1      -4.263  16.210  20.217  0.00  0.00    +0.000 HD
ENDBRANCH  24  26
ENDBRANCH  21  24
ENDBRANCH  16  18
ENDBRANCH  15  16
ENDBRANCH   4  14
BRANCH   3  28
ATOM     28  O   UNL     1       1.288  10.247  18.447  0.00  0.00    +0.000 OA
BRANCH  28  29
ATOM     29  C   UNL     1       2.304  11.225  18.134  0.00  0.00    +0.000 C 
BRANCH  29  30
ATOM     30  C   UNL     1       1.867  12.668  18.417  0.00  0.00    +0.000 C 
BRANCH  30  31
ATOM     31  N   UNL     1       2.775  13.388  19.334  0.00  0.00    +0.000 NA
ATOM     32  C   UNL     1       2.273  13.380  20.728  0.00  0.00    +0.000 C 
ATOM     33  C   UNL     1       1.215  14.457  21.031  0.00  0.00    +0.000 C 
ATOM     34  O   UNL     1       1.696  15.765  20.706  0.00  0.00    +0.000 OA
ATOM     35  C   UNL     1       2.048  15.834  19.322  0.00  0.00    +0.000 C 
ATOM     36  C   UNL     1       3.113  14.784  18.968  0.00  0.00    +0.000 C 
ENDBRANCH  30  31
ENDBRANCH  29  30
ENDBRANCH  28  29
ENDBRANCH   3  28
TORSDOF 11
ENDMDL
