MODEL 1
REMARK VINA RESULT:      -9.6      0.000      0.000
REMARK  Name = 
REMARK  7 active torsions:
REMARK  status: ('A' for Active; 'I' for Inactive)
REMARK    1  A    between atoms: C_1  and  C_2
REMARK    2  A    between atoms: C_6  and  C_7
REMARK    3  A    between atoms: N_9  and  C_10
REMARK    4  A    between atoms: C_10  and  C_11
REMARK    5  A    between atoms: C_11  and  N_13
REMARK    6  A    between atoms: N_13  and  C_14
REMARK    7  A    between atoms: C_21  and  C_22
REMARK                            x       y       z     vdW  Elec       q    Type
REMARK                         _______ _______ _______ _____ _____    ______ ____
ROOT
ATOM      1  C   UNL     1       3.189   5.699  18.101  0.00  0.00    +0.000 A 
ATOM      2  N   UNL     1       4.343   5.416  17.437  0.00  0.00    +0.000 NA
ATOM      3  N   UNL     1       4.818   6.645  17.083  0.00  0.00    +0.000 N 
ATOM      4  C   UNL     1       4.035   7.598  17.635  0.00  0.00    +0.000 A 
ATOM      5  C   UNL     1       2.928   7.082  18.193  0.00  0.00    +0.000 A 
ENDROOT
BRANCH   5   6
ATOM      6  C   UNL     1       1.961   7.924  18.902  0.00  0.00    +0.000 A 
ATOM      7  C   UNL     1       1.451   9.034  18.241  0.00  0.00    +0.000 A 
ATOM      8  C   UNL     1       0.750  10.021  18.938  0.00  0.00    +0.000 A 
ATOM      9  C   UNL     1       0.373   9.861  20.277  0.00  0.00    +0.000 A 
ATOM     10  N   UNL     1      -0.546  10.635  20.874  0.00  0.00    +0.000 NA
ATOM     11  C   UNL     1      -0.934  10.267  22.112  0.00  0.00    +0.000 A 
ATOM     12  C   UNL     1      -0.081  10.015  23.135  0.00  0.00    +0.000 A 
ATOM     13  C   UNL     1       0.647   9.016  22.494  0.00  0.00    +0.000 A 
ATOM     14  C   UNL     1       0.922   8.840  21.033  0.00  0.00    +0.000 A 
ATOM     15  C   UNL     1       1.661   7.800  20.285  0.00  0.00    +0.000 A 
ENDBRANCH   5   6
BRANCH   1  21
ATOM     16  C   UNL     1       2.116   3.173  22.018  0.00  0.00    +0.000 C 
ATOM     17  C   UNL     1       1.841   3.467  20.577  0.00  0.00    +0.000 A 
ATOM     18  C   UNL     1       0.831   2.804  19.890  0.00  0.00    +0.000 A 
ATOM     19  C   UNL     1       0.620   3.093  18.543  0.00  0.00    +0.000 A 
ATOM     20  C   UNL     1       1.390   4.061  17.925  0.00  0.00    +0.000 A 
ATOM     21  C   UNL     1       2.319   4.724  18.703  0.00  0.00    +0.000 A 
ATOM     22  N   UNL     1       2.593   4.416  19.998  0.00  0.00    +0.000 NA
ENDBRANCH   1  21
BRANCH   3  23
ATOM     23  C   UNL     1       6.033   6.812  16.254  0.00  0.00    +0.000 C 
BRANCH  23  24
ATOM     24  C   UNL     1       7.039   5.599  16.218  0.00  0.00    +0.000 C 
ATOM     25  S   UNL     1       7.565   4.742  17.601  0.00  0.00    +0.000 S 
BRANCH  24  26
ATOM     26  N   UNL     1       7.670   5.290  15.001  0.00  0.00    +0.000 N 
ATOM     27  H   UNL     1       8.682   5.333  14.907  0.00  0.00    +0.000 HD
BRANCH  26  28
ATOM     28  C   UNL     1       6.963   4.565  13.981  0.00  0.00    +0.000 A 
ATOM     29  C   UNL     1       5.662   4.135  14.186  0.00  0.00    +0.000 A 
ATOM     30  C   UNL     1       5.015   3.436  13.157  0.00  0.00    +0.000 A 
ATOM     31  C   UNL     1       5.581   3.323  11.882  0.00  0.00    +0.000 A 
ATOM     32  C   UNL     1       6.856   3.803  11.650  0.00  0.00    +0.000 A 
ATOM     33  C   UNL     1       7.552   4.367  12.710  0.00  0.00    +0.000 A 
ENDBRANCH  26  28
ENDBRANCH  24  26
ENDBRANCH  23  24
ENDBRANCH   3  23
TORSDOF 6
ENDMDL
MODEL 2
REMARK VINA RESULT:      -9.0      0.668      1.379
REMARK  Name = 
REMARK  7 active torsions:
REMARK  status: ('A' for Active; 'I' for Inactive)
REMARK    1  A    between atoms: C_1  and  C_2
REMARK    2  A    between atoms: C_6  and  C_7
REMARK    3  A    between atoms: N_9  and  C_10
REMARK    4  A    between atoms: C_10  and  C_11
REMARK    5  A    between atoms: C_11  and  N_13
REMARK    6  A    between atoms: N_13  and  C_14
REMARK    7  A    between atoms: C_21  and  C_22
REMARK                            x       y       z     vdW  Elec       q    Type
REMARK                         _______ _______ _______ _____ _____    ______ ____
ROOT
ATOM      1  C   UNL     1       3.208   5.729  18.123  0.00  0.00    +0.000 A 
ATOM      2  N   UNL     1       4.301   5.409  17.377  0.00  0.00    +0.000 NA
ATOM      3  N   UNL     1       4.835   6.623  17.056  0.00  0.00    +0.000 N 
ATOM      4  C   UNL     1       4.149   7.592  17.700  0.00  0.00    +0.000 A 
ATOM      5  C   UNL     1       3.044   7.118  18.297  0.00  0.00    +0.000 A 
ENDROOT
BRANCH   5   6
ATOM      6  C   UNL     1       2.177   7.982  19.104  0.00  0.00    +0.000 A 
ATOM      7  C   UNL     1       1.849   7.564  20.388  0.00  0.00    +0.000 A 
ATOM      8  C   UNL     1       0.823   8.187  21.101  0.00  0.00    +0.000 A 
ATOM      9  C   UNL     1       0.205   9.359  20.646  0.00  0.00    +0.000 A 
ATOM     10  N   UNL     1      -0.551  10.138  21.434  0.00  0.00    +0.000 NA
ATOM     11  C   UNL     1      -0.947  11.318  20.915  0.00  0.00    +0.000 A 
ATOM     12  C   UNL     1      -1.566  11.455  19.718  0.00  0.00    +0.000 A 
ATOM     13  C   UNL     1      -0.571  10.853  18.952  0.00  0.00    +0.000 A 
ATOM     14  C   UNL     1       0.399   9.782  19.343  0.00  0.00    +0.000 A 
ATOM     15  C   UNL     1       1.489   9.116  18.597  0.00  0.00    +0.000 A 
ENDBRANCH   5   6
BRANCH   1  21
ATOM     16  C   UNL     1       2.122   3.170  22.015  0.00  0.00    +0.000 C 
ATOM     17  C   UNL     1       1.825   3.506  20.588  0.00  0.00    +0.000 A 
ATOM     18  C   UNL     1       0.769   2.902  19.913  0.00  0.00    +0.000 A 
ATOM     19  C   UNL     1       0.538   3.229  18.578  0.00  0.00    +0.000 A 
ATOM     20  C   UNL     1       1.335   4.175  17.960  0.00  0.00    +0.000 A 
ATOM     21  C   UNL     1       2.311   4.780  18.727  0.00  0.00    +0.000 A 
ATOM     22  N   UNL     1       2.603   4.433  20.008  0.00  0.00    +0.000 NA
ENDBRANCH   1  21
BRANCH   3  23
ATOM     23  C   UNL     1       6.010   6.756  16.165  0.00  0.00    +0.000 C 
BRANCH  23  24
ATOM     24  C   UNL     1       7.008   5.537  16.119  0.00  0.00    +0.000 C 
ATOM     25  S   UNL     1       7.543   4.678  17.498  0.00  0.00    +0.000 S 
BRANCH  24  26
ATOM     26  N   UNL     1       7.624   5.223  14.897  0.00  0.00    +0.000 N 
ATOM     27  H   UNL     1       8.636   5.268  14.791  0.00  0.00    +0.000 HD
BRANCH  26  28
ATOM     28  C   UNL     1       6.908   4.492  13.889  0.00  0.00    +0.000 A 
ATOM     29  C   UNL     1       5.590   4.110  14.088  0.00  0.00    +0.000 A 
ATOM     30  C   UNL     1       4.934   3.403  13.072  0.00  0.00    +0.000 A 
ATOM     31  C   UNL     1       5.512   3.235  11.808  0.00  0.00    +0.000 A 
ATOM     32  C   UNL     1       6.804   3.667  11.579  0.00  0.00    +0.000 A 
ATOM     33  C   UNL     1       7.505   4.238  12.632  0.00  0.00    +0.000 A 
ENDBRANCH  26  28
ENDBRANCH  24  26
ENDBRANCH  23  24
ENDBRANCH   3  23
TORSDOF 6
ENDMDL
MODEL 3
REMARK VINA RESULT:      -8.9      0.625      1.036
REMARK  Name = 
REMARK  7 active torsions:
REMARK  status: ('A' for Active; 'I' for Inactive)
REMARK    1  A    between atoms: C_1  and  C_2
REMARK    2  A    between atoms: C_6  and  C_7
REMARK    3  A    between atoms: N_9  and  C_10
REMARK    4  A    between atoms: C_10  and  C_11
REMARK    5  A    between atoms: C_11  and  N_13
REMARK    6  A    between atoms: N_13  and  C_14
REMARK    7  A    between atoms: C_21  and  C_22
REMARK                            x       y       z     vdW  Elec       q    Type
REMARK                         _______ _______ _______ _____ _____    ______ ____
ROOT
ATOM      1  C   UNL     1       2.921   5.636  18.022  0.00  0.00    +0.000 A 
ATOM      2  N   UNL     1       4.006   5.356  17.250  0.00  0.00    +0.000 NA
ATOM      3  N   UNL     1       4.434   6.586  16.841  0.00  0.00    +0.000 N 
ATOM      4  C   UNL     1       3.701   7.537  17.460  0.00  0.00    +0.000 A 
ATOM      5  C   UNL     1       2.658   7.017  18.128  0.00  0.00    +0.000 A 
ENDROOT
BRANCH   5   6
ATOM      6  C   UNL     1       1.759   7.859  18.922  0.00  0.00    +0.000 A 
ATOM      7  C   UNL     1       1.230   8.997  18.326  0.00  0.00    +0.000 A 
ATOM      8  C   UNL     1       0.599   9.977  19.094  0.00  0.00    +0.000 A 
ATOM      9  C   UNL     1       0.307   9.787  20.451  0.00  0.00    +0.000 A 
ATOM     10  N   UNL     1      -0.553  10.562  21.127  0.00  0.00    +0.000 NA
ATOM     11  C   UNL     1      -0.867  10.168  22.378  0.00  0.00    +0.000 A 
ATOM     12  C   UNL     1       0.045   9.870  23.335  0.00  0.00    +0.000 A 
ATOM     13  C   UNL     1       0.708   8.874  22.621  0.00  0.00    +0.000 A 
ATOM     14  C   UNL     1       0.882   8.735  21.141  0.00  0.00    +0.000 A 
ATOM     15  C   UNL     1       1.547   7.702  20.318  0.00  0.00    +0.000 A 
ENDBRANCH   5   6
BRANCH   1  21
ATOM     16  C   UNL     1       2.180   3.230  22.088  0.00  0.00    +0.000 C 
ATOM     17  C   UNL     1       1.805   3.461  20.659  0.00  0.00    +0.000 A 
ATOM     18  C   UNL     1       0.774   2.743  20.063  0.00  0.00    +0.000 A 
ATOM     19  C   UNL     1       0.468   2.976  18.723  0.00  0.00    +0.000 A 
ATOM     20  C   UNL     1       1.166   3.941  18.022  0.00  0.00    +0.000 A 
ATOM     21  C   UNL     1       2.122   4.659  18.714  0.00  0.00    +0.000 A 
ATOM     22  N   UNL     1       2.488   4.409  19.998  0.00  0.00    +0.000 NA
ENDBRANCH   1  21
BRANCH   3  23
ATOM     23  C   UNL     1       5.560   6.755  15.896  0.00  0.00    +0.000 C 
BRANCH  23  24
ATOM     24  C   UNL     1       6.990   6.339  16.415  0.00  0.00    +0.000 C 
ATOM     25  S   UNL     1       7.857   7.180  17.626  0.00  0.00    +0.000 S 
BRANCH  24  26
ATOM     26  N   UNL     1       7.672   5.312  15.742  0.00  0.00    +0.000 N 
ATOM     27  H   UNL     1       8.311   4.693  16.237  0.00  0.00    +0.000 HD
BRANCH  26  28
ATOM     28  C   UNL     1       7.227   4.870  14.450  0.00  0.00    +0.000 A 
ATOM     29  C   UNL     1       7.882   5.272  13.296  0.00  0.00    +0.000 A 
ATOM     30  C   UNL     1       7.412   4.809  12.059  0.00  0.00    +0.000 A 
ATOM     31  C   UNL     1       6.422   3.822  11.977  0.00  0.00    +0.000 A 
ATOM     32  C   UNL     1       5.804   3.371  13.127  0.00  0.00    +0.000 A 
ATOM     33  C   UNL     1       6.171   3.936  14.340  0.00  0.00    +0.000 A 
ENDBRANCH  26  28
ENDBRANCH  24  26
ENDBRANCH  23  24
ENDBRANCH   3  23
TORSDOF 6
ENDMDL
MODEL 4
REMARK VINA RESULT:      -8.6      1.302      1.648
REMARK  Name = 
REMARK  7 active torsions:
REMARK  status: ('A' for Active; 'I' for Inactive)
REMARK    1  A    between atoms: C_1  and  C_2
REMARK    2  A    between atoms: C_6  and  C_7
REMARK    3  A    between atoms: N_9  and  C_10
REMARK    4  A    between atoms: C_10  and  C_11
REMARK    5  A    between atoms: C_11  and  N_13
REMARK    6  A    between atoms: N_13  and  C_14
REMARK    7  A    between atoms: C_21  and  C_22
REMARK                            x       y       z     vdW  Elec       q    Type
REMARK                         _______ _______ _______ _____ _____    ______ ____
ROOT
ATOM      1  C   UNL     1       3.813   4.972  17.861  0.00  0.00    +0.000 A 
ATOM      2  N   UNL     1       4.984   4.561  17.304  0.00  0.00    +0.000 NA
ATOM      3  N   UNL     1       5.552   5.719  16.859  0.00  0.00    +0.000 N 
ATOM      4  C   UNL     1       4.796   6.764  17.262  0.00  0.00    +0.000 A 
ATOM      5  C   UNL     1       3.629   6.368  17.796  0.00  0.00    +0.000 A 
ENDROOT
BRANCH   5   6
ATOM      6  C   UNL     1       2.675   7.330  18.354  0.00  0.00    +0.000 A 
ATOM      7  C   UNL     1       2.360   8.454  17.599  0.00  0.00    +0.000 A 
ATOM      8  C   UNL     1       1.685   9.532  18.172  0.00  0.00    +0.000 A 
ATOM      9  C   UNL     1       1.136   9.469  19.460  0.00  0.00    +0.000 A 
ATOM     10  N   UNL     1       0.236  10.353  19.913  0.00  0.00    +0.000 NA
ATOM     11  C   UNL     1      -0.331  10.080  21.106  0.00  0.00    +0.000 A 
ATOM     12  C   UNL     1       0.364   9.793  22.233  0.00  0.00    +0.000 A 
ATOM     13  C   UNL     1       1.059   8.701  21.720  0.00  0.00    +0.000 A 
ATOM     14  C   UNL     1       1.486   8.435  20.310  0.00  0.00    +0.000 A 
ATOM     15  C   UNL     1       2.201   7.297  19.692  0.00  0.00    +0.000 A 
ENDBRANCH   5   6
BRANCH   1  21
ATOM     16  C   UNL     1       2.377   2.906  21.928  0.00  0.00    +0.000 C 
ATOM     17  C   UNL     1       2.197   3.073  20.453  0.00  0.00    +0.000 A 
ATOM     18  C   UNL     1       1.185   2.406  19.772  0.00  0.00    +0.000 A 
ATOM     19  C   UNL     1       1.064   2.574  18.394  0.00  0.00    +0.000 A 
ATOM     20  C   UNL     1       1.926   3.431  17.734  0.00  0.00    +0.000 A 
ATOM     21  C   UNL     1       2.852   4.112  18.500  0.00  0.00    +0.000 A 
ATOM     22  N   UNL     1       3.038   3.916  19.831  0.00  0.00    +0.000 NA
ENDBRANCH   1  21
BRANCH   3  23
ATOM     23  C   UNL     1       6.821   5.734  16.098  0.00  0.00    +0.000 C 
BRANCH  23  24
ATOM     24  C   UNL     1       6.834   4.959  14.725  0.00  0.00    +0.000 C 
ATOM     25  S   UNL     1       7.790   5.402  13.378  0.00  0.00    +0.000 S 
BRANCH  24  26
ATOM     26  N   UNL     1       5.895   3.933  14.529  0.00  0.00    +0.000 N 
ATOM     27  H   UNL     1       5.225   3.687  15.254  0.00  0.00    +0.000 HD
BRANCH  26  28
ATOM     28  C   UNL     1       5.606   3.458  13.204  0.00  0.00    +0.000 A 
ATOM     29  C   UNL     1       6.419   2.518  12.591  0.00  0.00    +0.000 A 
ATOM     30  C   UNL     1       6.092   2.084  11.300  0.00  0.00    +0.000 A 
ATOM     31  C   UNL     1       4.879   2.437  10.696  0.00  0.00    +0.000 A 
ATOM     32  C   UNL     1       4.031   3.328  11.325  0.00  0.00    +0.000 A 
ATOM     33  C   UNL     1       4.426   3.870  12.540  0.00  0.00    +0.000 A 
ENDBRANCH  26  28
ENDBRANCH  24  26
ENDBRANCH  23  24
ENDBRANCH   3  23
TORSDOF 6
ENDMDL
MODEL 5
REMARK VINA RESULT:      -8.4      2.846      7.938
REMARK  Name = 
REMARK  7 active torsions:
REMARK  status: ('A' for Active; 'I' for Inactive)
REMARK    1  A    between atoms: C_1  and  C_2
REMARK    2  A    between atoms: C_6  and  C_7
REMARK    3  A    between atoms: N_9  and  C_10
REMARK    4  A    between atoms: C_10  and  C_11
REMARK    5  A    between atoms: C_11  and  N_13
REMARK    6  A    between atoms: N_13  and  C_14
REMARK    7  A    between atoms: C_21  and  C_22
REMARK                            x       y       z     vdW  Elec       q    Type
REMARK                         _______ _______ _______ _____ _____    ______ ____
ROOT
ATOM      1  C   UNL     1       1.686   6.429  20.277  0.00  0.00    +0.000 A 
ATOM      2  N   UNL     1       0.782   7.225  20.910  0.00  0.00    +0.000 NA
ATOM      3  N   UNL     1       1.046   8.468  20.411  0.00  0.00    +0.000 N 
ATOM      4  C   UNL     1       1.976   8.364  19.436  0.00  0.00    +0.000 A 
ATOM      5  C   UNL     1       2.509   7.134  19.374  0.00  0.00    +0.000 A 
ENDROOT
BRANCH   5   6
ATOM      6  C   UNL     1       3.497   6.776  18.354  0.00  0.00    +0.000 A 
ATOM      7  C   UNL     1       3.810   7.721  17.385  0.00  0.00    +0.000 A 
ATOM      8  C   UNL     1       4.522   7.361  16.240  0.00  0.00    +0.000 A 
ATOM      9  C   UNL     1       5.108   6.097  16.093  0.00  0.00    +0.000 A 
ATOM     10  N   UNL     1       6.038   5.827  15.166  0.00  0.00    +0.000 NA
ATOM     11  C   UNL     1       6.635   4.620  15.242  0.00  0.00    +0.000 A 
ATOM     12  C   UNL     1       5.969   3.442  15.314  0.00  0.00    +0.000 A 
ATOM     13  C   UNL     1       5.238   3.741  16.462  0.00  0.00    +0.000 A 
ATOM     14  C   UNL     1       4.764   5.072  16.957  0.00  0.00    +0.000 A 
ATOM     15  C   UNL     1       4.010   5.465  18.167  0.00  0.00    +0.000 A 
ENDBRANCH   5   6
BRANCH   1  21
ATOM     16  C   UNL     1       0.547   2.098  18.599  0.00  0.00    +0.000 C 
ATOM     17  C   UNL     1       1.198   2.919  19.666  0.00  0.00    +0.000 A 
ATOM     18  C   UNL     1       1.830   2.318  20.749  0.00  0.00    +0.000 A 
ATOM     19  C   UNL     1       2.409   3.120  21.731  0.00  0.00    +0.000 A 
ATOM     20  C   UNL     1       2.379   4.495  21.593  0.00  0.00    +0.000 A 
ATOM     21  C   UNL     1       1.798   5.004  20.448  0.00  0.00    +0.000 A 
ATOM     22  N   UNL     1       1.167   4.252  19.509  0.00  0.00    +0.000 NA
ENDBRANCH   1  21
BRANCH   3  23
ATOM     23  C   UNL     1       0.342   9.677  20.894  0.00  0.00    +0.000 C 
BRANCH  23  24
ATOM     24  C   UNL     1       0.565  11.004  20.072  0.00  0.00    +0.000 C 
ATOM     25  S   UNL     1       1.087  12.483  20.754  0.00  0.00    +0.000 S 
BRANCH  24  26
ATOM     26  N   UNL     1       0.167  11.030  18.725  0.00  0.00    +0.000 N 
ATOM     27  H   UNL     1       0.839  10.885  17.975  0.00  0.00    +0.000 HD
BRANCH  26  28
ATOM     28  C   UNL     1      -1.220  10.896  18.376  0.00  0.00    +0.000 A 
ATOM     29  C   UNL     1      -2.171  11.764  18.891  0.00  0.00    +0.000 A 
ATOM     30  C   UNL     1      -3.510  11.594  18.516  0.00  0.00    +0.000 A 
ATOM     31  C   UNL     1      -3.878  10.695  17.507  0.00  0.00    +0.000 A 
ATOM     32  C   UNL     1      -2.927   9.867  16.944  0.00  0.00    +0.000 A 
ATOM     33  C   UNL     1      -1.626   9.936  17.420  0.00  0.00    +0.000 A 
ENDBRANCH  26  28
ENDBRANCH  24  26
ENDBRANCH  23  24
ENDBRANCH   3  23
TORSDOF 6
ENDMDL
MODEL 6
REMARK VINA RESULT:      -8.4      2.781      7.953
REMARK  Name = 
REMARK  7 active torsions:
REMARK  status: ('A' for Active; 'I' for Inactive)
REMARK    1  A    between atoms: C_1  and  C_2
REMARK    2  A    between atoms: C_6  and  C_7
REMARK    3  A    between atoms: N_9  and  C_10
REMARK    4  A    between atoms: C_10  and  C_11
REMARK    5  A    between atoms: C_11  and  N_13
REMARK    6  A    between atoms: N_13  and  C_14
REMARK    7  A    between atoms: C_21  and  C_22
REMARK                            x       y       z     vdW  Elec       q    Type
REMARK                         _______ _______ _______ _____ _____    ______ ____
ROOT
ATOM      1  C   UNL     1       1.702   6.394  20.359  0.00  0.00    +0.000 A 
ATOM      2  N   UNL     1       0.818   7.181  21.031  0.00  0.00    +0.000 NA
ATOM      3  N   UNL     1       1.086   8.434  20.564  0.00  0.00    +0.000 N 
ATOM      4  C   UNL     1       1.997   8.351  19.571  0.00  0.00    +0.000 A 
ATOM      5  C   UNL     1       2.516   7.117  19.463  0.00  0.00    +0.000 A 
ENDROOT
BRANCH   5   6
ATOM      6  C   UNL     1       3.482   6.780  18.414  0.00  0.00    +0.000 A 
ATOM      7  C   UNL     1       3.732   7.723  17.426  0.00  0.00    +0.000 A 
ATOM      8  C   UNL     1       4.419   7.373  16.262  0.00  0.00    +0.000 A 
ATOM      9  C   UNL     1       5.041   6.127  16.110  0.00  0.00    +0.000 A 
ATOM     10  N   UNL     1       5.949   5.877  15.155  0.00  0.00    +0.000 NA
ATOM     11  C   UNL     1       6.588   4.691  15.226  0.00  0.00    +0.000 A 
ATOM     12  C   UNL     1       5.963   3.493  15.332  0.00  0.00    +0.000 A 
ATOM     13  C   UNL     1       5.260   3.781  16.499  0.00  0.00    +0.000 A 
ATOM     14  C   UNL     1       4.759   5.102  16.995  0.00  0.00    +0.000 A 
ATOM     15  C   UNL     1       4.032   5.484  18.225  0.00  0.00    +0.000 A 
ENDBRANCH   5   6
BRANCH   1  21
ATOM     16  C   UNL     1       0.525   2.127  18.547  0.00  0.00    +0.000 C 
ATOM     17  C   UNL     1       1.184   2.909  19.639  0.00  0.00    +0.000 A 
ATOM     18  C   UNL     1       1.811   2.269  20.703  0.00  0.00    +0.000 A 
ATOM     19  C   UNL     1       2.396   3.035  21.709  0.00  0.00    +0.000 A 
ATOM     20  C   UNL     1       2.378   4.414  21.614  0.00  0.00    +0.000 A 
ATOM     21  C   UNL     1       1.801   4.964  20.486  0.00  0.00    +0.000 A 
ATOM     22  N   UNL     1       1.164   4.247  19.524  0.00  0.00    +0.000 NA
ENDBRANCH   1  21
BRANCH   3  23
ATOM     23  C   UNL     1       0.404   9.636  21.096  0.00  0.00    +0.000 C 
BRANCH  23  24
ATOM     24  C   UNL     1       0.058  10.772  20.059  0.00  0.00    +0.000 C 
ATOM     25  S   UNL     1       1.225  11.714  19.237  0.00  0.00    +0.000 S 
BRANCH  24  26
ATOM     26  N   UNL     1      -1.287  11.151  19.908  0.00  0.00    +0.000 N 
ATOM     27  H   UNL     1      -1.732  11.787  20.566  0.00  0.00    +0.000 HD
BRANCH  26  28
ATOM     28  C   UNL     1      -1.957  10.959  18.652  0.00  0.00    +0.000 A 
ATOM     29  C   UNL     1      -1.503  10.021  17.738  0.00  0.00    +0.000 A 
ATOM     30  C   UNL     1      -2.195   9.868  16.530  0.00  0.00    +0.000 A 
ATOM     31  C   UNL     1      -3.423  10.504  16.305  0.00  0.00    +0.000 A 
ATOM     32  C   UNL     1      -3.915  11.396  17.238  0.00  0.00    +0.000 A 
ATOM     33  C   UNL     1      -3.156  11.656  18.369  0.00  0.00    +0.000 A 
ENDBRANCH  26  28
ENDBRANCH  24  26
ENDBRANCH  23  24
ENDBRANCH   3  23
TORSDOF 6
ENDMDL
MODEL 7
REMARK VINA RESULT:      -8.4      0.762      1.502
REMARK  Name = 
REMARK  7 active torsions:
REMARK  status: ('A' for Active; 'I' for Inactive)
REMARK    1  A    between atoms: C_1  and  C_2
REMARK    2  A    between atoms: C_6  and  C_7
REMARK    3  A    between atoms: N_9  and  C_10
REMARK    4  A    between atoms: C_10  and  C_11
REMARK    5  A    between atoms: C_11  and  N_13
REMARK    6  A    between atoms: N_13  and  C_14
REMARK    7  A    between atoms: C_21  and  C_22
REMARK                            x       y       z     vdW  Elec       q    Type
REMARK                         _______ _______ _______ _____ _____    ______ ____
ROOT
ATOM      1  C   UNL     1       3.174   5.715  18.373  0.00  0.00    +0.000 A 
ATOM      2  N   UNL     1       4.237   5.415  17.579  0.00  0.00    +0.000 NA
ATOM      3  N   UNL     1       4.501   6.590  16.938  0.00  0.00    +0.000 N 
ATOM      4  C   UNL     1       3.703   7.556  17.442  0.00  0.00    +0.000 A 
ATOM      5  C   UNL     1       2.765   7.060  18.264  0.00  0.00    +0.000 A 
ENDROOT
BRANCH   5   6
ATOM      6  C   UNL     1       1.824   7.933  18.971  0.00  0.00    +0.000 A 
ATOM      7  C   UNL     1       1.335   9.048  18.302  0.00  0.00    +0.000 A 
ATOM      8  C   UNL     1       0.664  10.058  18.993  0.00  0.00    +0.000 A 
ATOM      9  C   UNL     1       0.293   9.922  20.337  0.00  0.00    +0.000 A 
ATOM     10  N   UNL     1      -0.602  10.724  20.931  0.00  0.00    +0.000 NA
ATOM     11  C   UNL     1      -0.990  10.379  22.177  0.00  0.00    +0.000 A 
ATOM     12  C   UNL     1      -0.136  10.117  23.195  0.00  0.00    +0.000 A 
ATOM     13  C   UNL     1       0.563   9.094  22.561  0.00  0.00    +0.000 A 
ATOM     14  C   UNL     1       0.823   8.896  21.099  0.00  0.00    +0.000 A 
ATOM     15  C   UNL     1       1.531   7.831  20.357  0.00  0.00    +0.000 A 
ENDBRANCH   5   6
BRANCH   1  21
ATOM     16  C   UNL     1       0.276   1.941  18.856  0.00  0.00    +0.000 C 
ATOM     17  C   UNL     1       1.088   3.015  19.508  0.00  0.00    +0.000 A 
ATOM     18  C   UNL     1       1.169   3.112  20.892  0.00  0.00    +0.000 A 
ATOM     19  C   UNL     1       1.922   4.138  21.460  0.00  0.00    +0.000 A 
ATOM     20  C   UNL     1       2.606   5.016  20.640  0.00  0.00    +0.000 A 
ATOM     21  C   UNL     1       2.531   4.800  19.278  0.00  0.00    +0.000 A 
ATOM     22  N   UNL     1       1.752   3.852  18.695  0.00  0.00    +0.000 NA
ENDBRANCH   1  21
BRANCH   3  23
ATOM     23  C   UNL     1       5.545   6.702  15.895  0.00  0.00    +0.000 C 
BRANCH  23  24
ATOM     24  C   UNL     1       7.008   6.285  16.308  0.00  0.00    +0.000 C 
ATOM     25  S   UNL     1       7.755   6.724  17.783  0.00  0.00    +0.000 S 
BRANCH  24  26
ATOM     26  N   UNL     1       7.816   5.646  15.353  0.00  0.00    +0.000 N 
ATOM     27  H   UNL     1       8.787   5.417  15.552  0.00  0.00    +0.000 HD
BRANCH  26  28
ATOM     28  C   UNL     1       7.219   4.975  14.231  0.00  0.00    +0.000 A 
ATOM     29  C   UNL     1       7.731   5.134  12.952  0.00  0.00    +0.000 A 
ATOM     30  C   UNL     1       7.116   4.454  11.892  0.00  0.00    +0.000 A 
ATOM     31  C   UNL     1       6.125   3.492  12.118  0.00  0.00    +0.000 A 
ATOM     32  C   UNL     1       5.649   3.283  13.398  0.00  0.00    +0.000 A 
ATOM     33  C   UNL     1       6.158   4.061  14.428  0.00  0.00    +0.000 A 
ENDBRANCH  26  28
ENDBRANCH  24  26
ENDBRANCH  23  24
ENDBRANCH   3  23
TORSDOF 6
ENDMDL
MODEL 8
REMARK VINA RESULT:      -8.3      3.055      8.208
REMARK  Name = 
REMARK  7 active torsions:
REMARK  status: ('A' for Active; 'I' for Inactive)
REMARK    1  A    between atoms: C_1  and  C_2
REMARK    2  A    between atoms: C_6  and  C_7
REMARK    3  A    between atoms: N_9  and  C_10
REMARK    4  A    between atoms: C_10  and  C_11
REMARK    5  A    between atoms: C_11  and  N_13
REMARK    6  A    between atoms: N_13  and  C_14
REMARK    7  A    between atoms: C_21  and  C_22
REMARK                            x       y       z     vdW  Elec       q    Type
REMARK                         _______ _______ _______ _____ _____    ______ ____
ROOT
ATOM      1  C   UNL     1       2.227   7.011  19.203  0.00  0.00    +0.000 A 
ATOM      2  N   UNL     1       1.333   8.007  19.453  0.00  0.00    +0.000 NA
ATOM      3  N   UNL     1       1.802   9.051  18.710  0.00  0.00    +0.000 N 
ATOM      4  C   UNL     1       2.847   8.630  17.965  0.00  0.00    +0.000 A 
ATOM      5  C   UNL     1       3.244   7.393  18.305  0.00  0.00    +0.000 A 
ENDROOT
BRANCH   5   6
ATOM      6  C   UNL     1       4.325   6.710  17.589  0.00  0.00    +0.000 A 
ATOM      7  C   UNL     1       5.625   7.162  17.780  0.00  0.00    +0.000 A 
ATOM      8  C   UNL     1       6.656   6.749  16.935  0.00  0.00    +0.000 A 
ATOM      9  C   UNL     1       6.478   5.736  15.983  0.00  0.00    +0.000 A 
ATOM     10  N   UNL     1       7.502   5.113  15.381  0.00  0.00    +0.000 NA
ATOM     11  C   UNL     1       7.194   4.048  14.613  0.00  0.00    +0.000 A 
ATOM     12  C   UNL     1       6.263   4.061  13.629  0.00  0.00    +0.000 A 
ATOM     13  C   UNL     1       5.193   4.462  14.424  0.00  0.00    +0.000 A 
ATOM     14  C   UNL     1       5.203   5.306  15.661  0.00  0.00    +0.000 A 
ATOM     15  C   UNL     1       4.119   5.749  16.564  0.00  0.00    +0.000 A 
ENDBRANCH   5   6
BRANCH   1  21
ATOM     16  C   UNL     1       1.089   2.433  18.413  0.00  0.00    +0.000 C 
ATOM     17  C   UNL     1       1.551   3.483  19.373  0.00  0.00    +0.000 A 
ATOM     18  C   UNL     1       1.850   3.167  20.694  0.00  0.00    +0.000 A 
ATOM     19  C   UNL     1       2.260   4.178  21.561  0.00  0.00    +0.000 A 
ATOM     20  C   UNL     1       2.399   5.469  21.085  0.00  0.00    +0.000 A 
ATOM     21  C   UNL     1       2.154   5.679  19.742  0.00  0.00    +0.000 A 
ATOM     22  N   UNL     1       1.689   4.728  18.891  0.00  0.00    +0.000 NA
ENDBRANCH   1  21
BRANCH   3  23
ATOM     23  C   UNL     1       1.174  10.391  18.749  0.00  0.00    +0.000 C 
BRANCH  23  24
ATOM     24  C   UNL     1      -0.191  10.512  19.529  0.00  0.00    +0.000 C 
ATOM     25  S   UNL     1      -0.385  11.353  21.006  0.00  0.00    +0.000 S 
BRANCH  24  26
ATOM     26  N   UNL     1      -1.288   9.759  19.078  0.00  0.00    +0.000 N 
ATOM     27  H   UNL     1      -1.690   9.019  19.650  0.00  0.00    +0.000 HD
BRANCH  26  28
ATOM     28  C   UNL     1      -2.094  10.233  17.987  0.00  0.00    +0.000 A 
ATOM     29  C   UNL     1      -1.952   9.703  16.714  0.00  0.00    +0.000 A 
ATOM     30  C   UNL     1      -2.766  10.197  15.686  0.00  0.00    +0.000 A 
ATOM     31  C   UNL     1      -3.827  11.070  15.949  0.00  0.00    +0.000 A 
ATOM     32  C   UNL     1      -4.015  11.558  17.228  0.00  0.00    +0.000 A 
ATOM     33  C   UNL     1      -3.119  11.180  18.217  0.00  0.00    +0.000 A 
ENDBRANCH  26  28
ENDBRANCH  24  26
ENDBRANCH  23  24
ENDBRANCH   3  23
TORSDOF 6
ENDMDL
MODEL 9
REMARK VINA RESULT:      -8.3      3.604      7.116
REMARK  Name = 
REMARK  7 active torsions:
REMARK  status: ('A' for Active; 'I' for Inactive)
REMARK    1  A    between atoms: C_1  and  C_2
REMARK    2  A    between atoms: C_6  and  C_7
REMARK    3  A    between atoms: N_9  and  C_10
REMARK    4  A    between atoms: C_10  and  C_11
REMARK    5  A    between atoms: C_11  and  N_13
REMARK    6  A    between atoms: N_13  and  C_14
REMARK    7  A    between atoms: C_21  and  C_22
REMARK                            x       y       z     vdW  Elec       q    Type
REMARK                         _______ _______ _______ _____ _____    ______ ____
ROOT
ATOM      1  C   UNL     1       0.645  10.355  19.802  0.00  0.00    +0.000 A 
ATOM      2  N   UNL     1       0.943   9.103  19.360  0.00  0.00    +0.000 NA
ATOM      3  N   UNL     1       1.761   9.328  18.292  0.00  0.00    +0.000 N 
ATOM      4  C   UNL     1       2.024  10.650  18.206  0.00  0.00    +0.000 A 
ATOM      5  C   UNL     1       1.268  11.371  19.049  0.00  0.00    +0.000 A 
ENDROOT
BRANCH   5   6
ATOM      6  C   UNL     1       1.425  12.823  19.170  0.00  0.00    +0.000 A 
ATOM      7  C   UNL     1       2.331  13.309  20.104  0.00  0.00    +0.000 A 
ATOM      8  C   UNL     1       2.333  14.658  20.463  0.00  0.00    +0.000 A 
ATOM      9  C   UNL     1       1.562  15.611  19.783  0.00  0.00    +0.000 A 
ATOM     10  N   UNL     1       1.768  16.931  19.897  0.00  0.00    +0.000 NA
ATOM     11  C   UNL     1       1.066  17.726  19.063  0.00  0.00    +0.000 A 
ATOM     12  C   UNL     1      -0.279  17.670  18.908  0.00  0.00    +0.000 A 
ATOM     13  C   UNL     1      -0.342  16.330  18.534  0.00  0.00    +0.000 A 
ATOM     14  C   UNL     1       0.566  15.202  18.915  0.00  0.00    +0.000 A 
ATOM     15  C   UNL     1       0.574  13.771  18.541  0.00  0.00    +0.000 A 
ENDBRANCH   5   6
BRANCH   1  21
ATOM     16  C   UNL     1      -2.809  13.119  21.622  0.00  0.00    +0.000 C 
ATOM     17  C   UNL     1      -1.806  12.029  21.833  0.00  0.00    +0.000 A 
ATOM     18  C   UNL     1      -1.684  11.395  23.064  0.00  0.00    +0.000 A 
ATOM     19  C   UNL     1      -0.725  10.397  23.224  0.00  0.00    +0.000 A 
ATOM     20  C   UNL     1       0.061  10.028  22.148  0.00  0.00    +0.000 A 
ATOM     21  C   UNL     1      -0.180  10.657  20.942  0.00  0.00    +0.000 A 
ATOM     22  N   UNL     1      -1.059  11.678  20.774  0.00  0.00    +0.000 NA
ENDBRANCH   1  21
BRANCH   3  23
ATOM     23  C   UNL     1       2.266   8.227  17.440  0.00  0.00    +0.000 C 
BRANCH  23  24
ATOM     24  C   UNL     1       3.284   7.224  18.107  0.00  0.00    +0.000 C 
ATOM     25  S   UNL     1       4.711   6.658  17.353  0.00  0.00    +0.000 S 
BRANCH  24  26
ATOM     26  N   UNL     1       2.933   6.630  19.330  0.00  0.00    +0.000 N 
ATOM     27  H   UNL     1       2.954   7.161  20.199  0.00  0.00    +0.000 HD
BRANCH  26  28
ATOM     28  C   UNL     1       2.196   5.397  19.353  0.00  0.00    +0.000 A 
ATOM     29  C   UNL     1       2.026   4.648  18.199  0.00  0.00    +0.000 A 
ATOM     30  C   UNL     1       1.303   3.450  18.275  0.00  0.00    +0.000 A 
ATOM     31  C   UNL     1       0.910   2.910  19.506  0.00  0.00    +0.000 A 
ATOM     32  C   UNL     1       1.129   3.622  20.670  0.00  0.00    +0.000 A 
ATOM     33  C   UNL     1       1.716   4.875  20.577  0.00  0.00    +0.000 A 
ENDBRANCH  26  28
ENDBRANCH  24  26
ENDBRANCH  23  24
ENDBRANCH   3  23
TORSDOF 6
ENDMDL
