MODEL 1
REMARK VINA RESULT:      -7.5      0.000      0.000
REMARK  Name = 
REMARK  8 active torsions:
REMARK  status: ('A' for Active; 'I' for Inactive)
REMARK    1  A    between atoms: C_1  and  O_2
REMARK    2  A    between atoms: O_2  and  C_3
REMARK    3  A    between atoms: C_6  and  N_7
REMARK    4  A    between atoms: C_8  and  C_10
REMARK    5  A    between atoms: C_12  and  C_13
REMARK    6  A    between atoms: C_19  and  C_20
REMARK    7  A    between atoms: C_24  and  O_25
REMARK    8  A    between atoms: O_25  and  C_26
REMARK                            x       y       z     vdW  Elec       q    Type
REMARK                         _______ _______ _______ _____ _____    ______ ____
ROOT
ATOM      1  N   UNL     1       2.198   7.532  19.687  0.00  0.00    +0.000 N 
ATOM      2  C   UNL     1       2.263   6.182  19.976  0.00  0.00    +0.000 C 
ATOM      3  O   UNL     1       1.636   5.594  20.850  0.00  0.00    +0.000 OA
ATOM      4  H   UNL     1       2.748   7.811  18.876  0.00  0.00    +0.000 HD
ENDROOT
BRANCH   1   8
ATOM      5  C   UNL     1       0.053  10.607  21.640  0.00  0.00    +0.000 A 
ATOM      6  C   UNL     1       0.598   9.549  22.377  0.00  0.00    +0.000 A 
ATOM      7  C   UNL     1       1.300   8.524  21.750  0.00  0.00    +0.000 A 
ATOM      8  C   UNL     1       1.453   8.509  20.365  0.00  0.00    +0.000 A 
ATOM      9  C   UNL     1       0.841   9.525  19.620  0.00  0.00    +0.000 A 
ATOM     10  C   UNL     1       0.126  10.567  20.239  0.00  0.00    +0.000 A 
BRANCH   5  12
ATOM     11  C   UNL     1      -1.653  11.313  23.115  0.00  0.00    +0.000 C 
ATOM     12  O   UNL     1      -0.555  11.661  22.270  0.00  0.00    +0.000 OA
ENDBRANCH   5  12
BRANCH  10  13
ATOM     13  O   UNL     1      -0.401  11.444  19.327  0.00  0.00    +0.000 OA
ATOM     14  C   UNL     1      -1.741  11.270  18.897  0.00  0.00    +0.000 C 
ENDBRANCH  10  13
ENDBRANCH   1   8
BRANCH   2  15
ATOM     15  C   UNL     1       3.162   5.440  19.076  0.00  0.00    +0.000 A 
ATOM     16  C   UNL     1       3.500   5.821  17.755  0.00  0.00    +0.000 A 
ATOM     17  C   UNL     1       4.472   4.940  17.332  0.00  0.00    +0.000 A 
ATOM     18  N   UNL     1       4.571   4.035  18.362  0.00  0.00    +0.000 N 
ATOM     19  N   UNL     1       3.810   4.318  19.438  0.00  0.00    +0.000 NA
ATOM     20  H   UNL     1       5.179   3.225  18.409  0.00  0.00    +0.000 HD
BRANCH  17  21
ATOM     21  C   UNL     1       5.317   4.895  16.132  0.00  0.00    +0.000 A 
ATOM     22  C   UNL     1       4.849   4.193  15.001  0.00  0.00    +0.000 A 
ATOM     23  C   UNL     1       5.643   4.049  13.859  0.00  0.00    +0.000 A 
ATOM     24  C   UNL     1       6.903   4.620  13.833  0.00  0.00    +0.000 A 
ATOM     25  F   UNL     1       7.674   4.472  12.746  0.00  0.00    +0.000 F 
ATOM     26  C   UNL     1       7.383   5.342  14.918  0.00  0.00    +0.000 A 
ATOM     27  C   UNL     1       6.602   5.486  16.081  0.00  0.00    +0.000 A 
ATOM     28  C   UNL     1       7.197   6.275  17.218  0.00  0.00    +0.000 C 
ENDBRANCH  17  21
ENDBRANCH   2  15
TORSDOF 5
ENDMDL
MODEL 2
REMARK VINA RESULT:      -7.4      4.259      9.634
REMARK  Name = 
REMARK  8 active torsions:
REMARK  status: ('A' for Active; 'I' for Inactive)
REMARK    1  A    between atoms: C_1  and  O_2
REMARK    2  A    between atoms: O_2  and  C_3
REMARK    3  A    between atoms: C_6  and  N_7
REMARK    4  A    between atoms: C_8  and  C_10
REMARK    5  A    between atoms: C_12  and  C_13
REMARK    6  A    between atoms: C_19  and  C_20
REMARK    7  A    between atoms: C_24  and  O_25
REMARK    8  A    between atoms: O_25  and  C_26
REMARK                            x       y       z     vdW  Elec       q    Type
REMARK                         _______ _______ _______ _____ _____    ______ ____
ROOT
ATOM      1  N   UNL     1       3.276   6.691  18.643  0.00  0.00    +0.000 N 
ATOM      2  C   UNL     1       2.601   7.849  18.304  0.00  0.00    +0.000 C 
ATOM      3  O   UNL     1       2.601   8.396  17.207  0.00  0.00    +0.000 OA
ATOM      4  H   UNL     1       3.090   6.362  19.590  0.00  0.00    +0.000 HD
ENDROOT
BRANCH   1   8
ATOM      5  C   UNL     1       5.894   4.590  16.074  0.00  0.00    +0.000 A 
ATOM      6  C   UNL     1       4.672   4.021  16.454  0.00  0.00    +0.000 A 
ATOM      7  C   UNL     1       3.801   4.696  17.305  0.00  0.00    +0.000 A 
ATOM      8  C   UNL     1       4.138   5.943  17.827  0.00  0.00    +0.000 A 
ATOM      9  C   UNL     1       5.394   6.476  17.511  0.00  0.00    +0.000 A 
ATOM     10  C   UNL     1       6.287   5.806  16.653  0.00  0.00    +0.000 A 
BRANCH   5  12
ATOM     11  C   UNL     1       6.454   4.299  13.796  0.00  0.00    +0.000 C 
ATOM     12  O   UNL     1       6.704   3.965  15.163  0.00  0.00    +0.000 OA
ENDBRANCH   5  12
BRANCH  10  13
ATOM     13  O   UNL     1       7.460   6.495  16.489  0.00  0.00    +0.000 OA
ATOM     14  C   UNL     1       7.737   7.598  17.336  0.00  0.00    +0.000 C 
ENDBRANCH  10  13
ENDBRANCH   1   8
BRANCH   2  15
ATOM     15  C   UNL     1       1.795   8.394  19.410  0.00  0.00    +0.000 A 
ATOM     16  C   UNL     1       1.158   9.658  19.416  0.00  0.00    +0.000 A 
ATOM     17  C   UNL     1       0.398   9.705  20.565  0.00  0.00    +0.000 A 
ATOM     18  N   UNL     1       0.711   8.537  21.218  0.00  0.00    +0.000 N 
ATOM     19  N   UNL     1       1.536   7.714  20.540  0.00  0.00    +0.000 NA
ATOM     20  H   UNL     1       0.355   8.221  22.115  0.00  0.00    +0.000 HD
BRANCH  17  21
ATOM     21  C   UNL     1      -0.590  10.671  21.065  0.00  0.00    +0.000 A 
ATOM     22  C   UNL     1      -1.188  11.561  20.149  0.00  0.00    +0.000 A 
ATOM     23  C   UNL     1      -2.074  12.553  20.578  0.00  0.00    +0.000 A 
ATOM     24  C   UNL     1      -2.383  12.652  21.923  0.00  0.00    +0.000 A 
ATOM     25  F   UNL     1      -3.221  13.611  22.341  0.00  0.00    +0.000 F 
ATOM     26  C   UNL     1      -1.834  11.772  22.847  0.00  0.00    +0.000 A 
ATOM     27  C   UNL     1      -0.929  10.775  22.435  0.00  0.00    +0.000 A 
ATOM     28  C   UNL     1      -0.370   9.868  23.499  0.00  0.00    +0.000 C 
ENDBRANCH  17  21
ENDBRANCH   2  15
TORSDOF 5
ENDMDL
MODEL 3
REMARK VINA RESULT:      -7.3      4.509      9.699
REMARK  Name = 
REMARK  8 active torsions:
REMARK  status: ('A' for Active; 'I' for Inactive)
REMARK    1  A    between atoms: C_1  and  O_2
REMARK    2  A    between atoms: O_2  and  C_3
REMARK    3  A    between atoms: C_6  and  N_7
REMARK    4  A    between atoms: C_8  and  C_10
REMARK    5  A    between atoms: C_12  and  C_13
REMARK    6  A    between atoms: C_19  and  C_20
REMARK    7  A    between atoms: C_24  and  O_25
REMARK    8  A    between atoms: O_25  and  C_26
REMARK                            x       y       z     vdW  Elec       q    Type
REMARK                         _______ _______ _______ _____ _____    ______ ____
ROOT
ATOM      1  N   UNL     1       1.950   8.377  17.778  0.00  0.00    +0.000 N 
ATOM      2  C   UNL     1       1.411   8.970  18.906  0.00  0.00    +0.000 C 
ATOM      3  O   UNL     1       1.707   8.722  20.069  0.00  0.00    +0.000 OA
ATOM      4  H   UNL     1       1.617   8.774  16.900  0.00  0.00    +0.000 HD
ENDROOT
BRANCH   1   8
ATOM      5  C   UNL     1       4.826   5.295  17.468  0.00  0.00    +0.000 A 
ATOM      6  C   UNL     1       3.567   5.031  18.021  0.00  0.00    +0.000 A 
ATOM      7  C   UNL     1       2.610   6.036  18.138  0.00  0.00    +0.000 A 
ATOM      8  C   UNL     1       2.893   7.339  17.735  0.00  0.00    +0.000 A 
ATOM      9  C   UNL     1       4.179   7.621  17.256  0.00  0.00    +0.000 A 
ATOM     10  C   UNL     1       5.158   6.617  17.133  0.00  0.00    +0.000 A 
BRANCH   5  12
ATOM     11  C   UNL     1       5.761   3.750  15.943  0.00  0.00    +0.000 C 
ATOM     12  O   UNL     1       5.728   4.284  17.269  0.00  0.00    +0.000 OA
ENDBRANCH   5  12
BRANCH  10  13
ATOM     13  O   UNL     1       6.345   7.109  16.658  0.00  0.00    +0.000 OA
ATOM     14  C   UNL     1       7.429   7.283  17.557  0.00  0.00    +0.000 C 
ENDBRANCH  10  13
ENDBRANCH   1   8
BRANCH   2  15
ATOM     15  C   UNL     1       0.425  10.018  18.594  0.00  0.00    +0.000 A 
ATOM     16  C   UNL     1      -0.922   9.793  18.218  0.00  0.00    +0.000 A 
ATOM     17  C   UNL     1      -1.523  11.031  18.165  0.00  0.00    +0.000 A 
ATOM     18  N   UNL     1      -0.493  11.912  18.396  0.00  0.00    +0.000 N 
ATOM     19  N   UNL     1       0.691  11.333  18.677  0.00  0.00    +0.000 NA
ATOM     20  H   UNL     1      -0.546  12.924  18.420  0.00  0.00    +0.000 HD
BRANCH  17  21
ATOM     21  C   UNL     1      -2.919  11.451  17.981  0.00  0.00    +0.000 A 
ATOM     22  C   UNL     1      -3.625  11.959  19.091  0.00  0.00    +0.000 A 
ATOM     23  C   UNL     1      -4.978  12.299  18.994  0.00  0.00    +0.000 A 
ATOM     24  C   UNL     1      -5.630  12.152  17.783  0.00  0.00    +0.000 A 
ATOM     25  F   UNL     1      -6.930  12.463  17.689  0.00  0.00    +0.000 F 
ATOM     26  C   UNL     1      -4.956  11.682  16.662  0.00  0.00    +0.000 A 
ATOM     27  C   UNL     1      -3.597  11.322  16.745  0.00  0.00    +0.000 A 
ATOM     28  C   UNL     1      -2.941  10.812  15.489  0.00  0.00    +0.000 C 
ENDBRANCH  17  21
ENDBRANCH   2  15
TORSDOF 5
ENDMDL
MODEL 4
REMARK VINA RESULT:      -7.3      4.448      9.540
REMARK  Name = 
REMARK  8 active torsions:
REMARK  status: ('A' for Active; 'I' for Inactive)
REMARK    1  A    between atoms: C_1  and  O_2
REMARK    2  A    between atoms: O_2  and  C_3
REMARK    3  A    between atoms: C_6  and  N_7
REMARK    4  A    between atoms: C_8  and  C_10
REMARK    5  A    between atoms: C_12  and  C_13
REMARK    6  A    between atoms: C_19  and  C_20
REMARK    7  A    between atoms: C_24  and  O_25
REMARK    8  A    between atoms: O_25  and  C_26
REMARK                            x       y       z     vdW  Elec       q    Type
REMARK                         _______ _______ _______ _____ _____    ______ ____
ROOT
ATOM      1  N   UNL     1       1.960   8.398  18.051  0.00  0.00    +0.000 N 
ATOM      2  C   UNL     1       1.372   9.063  19.111  0.00  0.00    +0.000 C 
ATOM      3  O   UNL     1       1.627   8.907  20.300  0.00  0.00    +0.000 OA
ATOM      4  H   UNL     1       1.655   8.722  17.135  0.00  0.00    +0.000 HD
ENDROOT
BRANCH   1   8
ATOM      5  C   UNL     1       4.842   5.330  18.447  0.00  0.00    +0.000 A 
ATOM      6  C   UNL     1       5.060   6.393  17.562  0.00  0.00    +0.000 A 
ATOM      7  C   UNL     1       4.118   7.408  17.414  0.00  0.00    +0.000 A 
ATOM      8  C   UNL     1       2.918   7.375  18.120  0.00  0.00    +0.000 A 
ATOM      9  C   UNL     1       2.665   6.271  18.945  0.00  0.00    +0.000 A 
ATOM     10  C   UNL     1       3.606   5.237  19.104  0.00  0.00    +0.000 A 
BRANCH   5  12
ATOM     11  C   UNL     1       7.026   4.586  17.935  0.00  0.00    +0.000 C 
ATOM     12  O   UNL     1       5.811   4.386  18.659  0.00  0.00    +0.000 OA
ENDBRANCH   5  12
BRANCH  10  13
ATOM     13  O   UNL     1       3.153   4.252  19.943  0.00  0.00    +0.000 OA
ATOM     14  C   UNL     1       2.263   4.595  20.993  0.00  0.00    +0.000 C 
ENDBRANCH  10  13
ENDBRANCH   1   8
BRANCH   2  15
ATOM     15  C   UNL     1       0.383  10.068  18.686  0.00  0.00    +0.000 A 
ATOM     16  C   UNL     1      -0.972   9.806  18.371  0.00  0.00    +0.000 A 
ATOM     17  C   UNL     1      -1.569  11.032  18.170  0.00  0.00    +0.000 A 
ATOM     18  N   UNL     1      -0.531  11.927  18.263  0.00  0.00    +0.000 N 
ATOM     19  N   UNL     1       0.657  11.382  18.592  0.00  0.00    +0.000 NA
ATOM     20  H   UNL     1      -0.579  12.935  18.156  0.00  0.00    +0.000 HD
BRANCH  17  21
ATOM     21  C   UNL     1      -2.967  11.434  17.962  0.00  0.00    +0.000 A 
ATOM     22  C   UNL     1      -3.700  11.928  19.060  0.00  0.00    +0.000 A 
ATOM     23  C   UNL     1      -5.055  12.251  18.940  0.00  0.00    +0.000 A 
ATOM     24  C   UNL     1      -5.682  12.099  17.717  0.00  0.00    +0.000 A 
ATOM     25  F   UNL     1      -6.985  12.393  17.600  0.00  0.00    +0.000 F 
ATOM     26  C   UNL     1      -4.982  11.642  16.607  0.00  0.00    +0.000 A 
ATOM     27  C   UNL     1      -3.620  11.300  16.713  0.00  0.00    +0.000 A 
ATOM     28  C   UNL     1      -2.935  10.802  15.468  0.00  0.00    +0.000 C 
ENDBRANCH  17  21
ENDBRANCH   2  15
TORSDOF 5
ENDMDL
MODEL 5
REMARK VINA RESULT:      -7.2      4.218      9.820
REMARK  Name = 
REMARK  8 active torsions:
REMARK  status: ('A' for Active; 'I' for Inactive)
REMARK    1  A    between atoms: C_1  and  O_2
REMARK    2  A    between atoms: O_2  and  C_3
REMARK    3  A    between atoms: C_6  and  N_7
REMARK    4  A    between atoms: C_8  and  C_10
REMARK    5  A    between atoms: C_12  and  C_13
REMARK    6  A    between atoms: C_19  and  C_20
REMARK    7  A    between atoms: C_24  and  O_25
REMARK    8  A    between atoms: O_25  and  C_26
REMARK                            x       y       z     vdW  Elec       q    Type
REMARK                         _______ _______ _______ _____ _____    ______ ____
ROOT
ATOM      1  N   UNL     1       2.786   6.957  18.786  0.00  0.00    +0.000 N 
ATOM      2  C   UNL     1       2.197   8.170  18.477  0.00  0.00    +0.000 C 
ATOM      3  O   UNL     1       2.219   8.732  17.388  0.00  0.00    +0.000 OA
ATOM      4  H   UNL     1       2.594   6.630  19.731  0.00  0.00    +0.000 HD
ENDROOT
BRANCH   1   8
ATOM      5  C   UNL     1       5.206   4.448  16.395  0.00  0.00    +0.000 A 
ATOM      6  C   UNL     1       5.292   5.840  16.268  0.00  0.00    +0.000 A 
ATOM      7  C   UNL     1       4.497   6.681  17.042  0.00  0.00    +0.000 A 
ATOM      8  C   UNL     1       3.572   6.158  17.942  0.00  0.00    +0.000 A 
ATOM      9  C   UNL     1       3.429   4.766  18.012  0.00  0.00    +0.000 A 
ATOM     10  C   UNL     1       4.224   3.902  17.235  0.00  0.00    +0.000 A 
BRANCH   5  12
ATOM     11  C   UNL     1       6.303   4.013  14.347  0.00  0.00    +0.000 C 
ATOM     12  O   UNL     1       6.055   3.628  15.701  0.00  0.00    +0.000 OA
ENDBRANCH   5  12
BRANCH  10  13
ATOM     13  O   UNL     1       3.913   2.584  17.448  0.00  0.00    +0.000 OA
ATOM     14  C   UNL     1       2.597   2.242  17.851  0.00  0.00    +0.000 C 
ENDBRANCH  10  13
ENDBRANCH   1   8
BRANCH   2  15
ATOM     15  C   UNL     1       1.457   8.758  19.606  0.00  0.00    +0.000 A 
ATOM     16  C   UNL     1       0.802  10.013  19.594  0.00  0.00    +0.000 A 
ATOM     17  C   UNL     1       0.119  10.107  20.787  0.00  0.00    +0.000 A 
ATOM     18  N   UNL     1       0.491   8.976  21.473  0.00  0.00    +0.000 N 
ATOM     19  N   UNL     1       1.282   8.131  20.782  0.00  0.00    +0.000 NA
ATOM     20  H   UNL     1       0.200   8.701  22.405  0.00  0.00    +0.000 HD
BRANCH  17  21
ATOM     21  C   UNL     1      -0.849  11.084  21.303  0.00  0.00    +0.000 A 
ATOM     22  C   UNL     1      -0.996  11.218  22.699  0.00  0.00    +0.000 A 
ATOM     23  C   UNL     1      -1.956  12.073  23.248  0.00  0.00    +0.000 A 
ATOM     24  C   UNL     1      -2.765  12.815  22.405  0.00  0.00    +0.000 A 
ATOM     25  F   UNL     1      -3.696  13.625  22.925  0.00  0.00    +0.000 F 
ATOM     26  C   UNL     1      -2.626  12.729  21.025  0.00  0.00    +0.000 A 
ATOM     27  C   UNL     1      -1.673  11.863  20.455  0.00  0.00    +0.000 A 
ATOM     28  C   UNL     1      -1.591  11.819  18.952  0.00  0.00    +0.000 C 
ENDBRANCH  17  21
ENDBRANCH   2  15
TORSDOF 5
ENDMDL
MODEL 6
REMARK VINA RESULT:      -7.2      4.226      9.695
REMARK  Name = 
REMARK  8 active torsions:
REMARK  status: ('A' for Active; 'I' for Inactive)
REMARK    1  A    between atoms: C_1  and  O_2
REMARK    2  A    between atoms: O_2  and  C_3
REMARK    3  A    between atoms: C_6  and  N_7
REMARK    4  A    between atoms: C_8  and  C_10
REMARK    5  A    between atoms: C_12  and  C_13
REMARK    6  A    between atoms: C_19  and  C_20
REMARK    7  A    between atoms: C_24  and  O_25
REMARK    8  A    between atoms: O_25  and  C_26
REMARK                            x       y       z     vdW  Elec       q    Type
REMARK                         _______ _______ _______ _____ _____    ______ ____
ROOT
ATOM      1  N   UNL     1       2.934   6.686  18.919  0.00  0.00    +0.000 N 
ATOM      2  C   UNL     1       2.386   7.894  18.530  0.00  0.00    +0.000 C 
ATOM      3  O   UNL     1       2.460   8.401  17.416  0.00  0.00    +0.000 OA
ATOM      4  H   UNL     1       2.700   6.410  19.872  0.00  0.00    +0.000 HD
ENDROOT
BRANCH   1   8
ATOM      5  C   UNL     1       5.387   4.250  16.486  0.00  0.00    +0.000 A 
ATOM      6  C   UNL     1       4.057   3.889  16.731  0.00  0.00    +0.000 A 
ATOM      7  C   UNL     1       3.237   4.675  17.536  0.00  0.00    +0.000 A 
ATOM      8  C   UNL     1       3.730   5.828  18.144  0.00  0.00    +0.000 A 
ATOM      9  C   UNL     1       5.082   6.146  17.964  0.00  0.00    +0.000 A 
ATOM     10  C   UNL     1       5.924   5.361  17.155  0.00  0.00    +0.000 A 
BRANCH   5  12
ATOM     11  C   UNL     1       6.172   3.999  14.270  0.00  0.00    +0.000 C 
ATOM     12  O   UNL     1       6.161   3.526  15.619  0.00  0.00    +0.000 OA
ENDBRANCH   5  12
BRANCH  10  13
ATOM     13  O   UNL     1       7.207   5.842  17.125  0.00  0.00    +0.000 OA
ATOM     14  C   UNL     1       7.431   7.224  17.354  0.00  0.00    +0.000 C 
ENDBRANCH  10  13
ENDBRANCH   1   8
BRANCH   2  15
ATOM     15  C   UNL     1       1.621   8.554  19.601  0.00  0.00    +0.000 A 
ATOM     16  C   UNL     1       0.990   9.818  19.501  0.00  0.00    +0.000 A 
ATOM     17  C   UNL     1       0.270   9.987  20.664  0.00  0.00    +0.000 A 
ATOM     18  N   UNL     1       0.599   8.888  21.421  0.00  0.00    +0.000 N 
ATOM     19  N   UNL     1       1.397   7.994  20.802  0.00  0.00    +0.000 NA
ATOM     20  H   UNL     1       0.273   8.668  22.356  0.00  0.00    +0.000 HD
BRANCH  17  21
ATOM     21  C   UNL     1      -0.696  11.006  21.095  0.00  0.00    +0.000 A 
ATOM     22  C   UNL     1      -0.783  11.316  22.468  0.00  0.00    +0.000 A 
ATOM     23  C   UNL     1      -1.738  12.219  22.947  0.00  0.00    +0.000 A 
ATOM     24  C   UNL     1      -2.599  12.832  22.054  0.00  0.00    +0.000 A 
ATOM     25  F   UNL     1      -3.525  13.687  22.510  0.00  0.00    +0.000 F 
ATOM     26  C   UNL     1      -2.520  12.571  20.692  0.00  0.00    +0.000 A 
ATOM     27  C   UNL     1      -1.574  11.654  20.194  0.00  0.00    +0.000 A 
ATOM     28  C   UNL     1      -1.558  11.418  18.707  0.00  0.00    +0.000 C 
ENDBRANCH  17  21
ENDBRANCH   2  15
TORSDOF 5
ENDMDL
MODEL 7
REMARK VINA RESULT:      -7.2      5.622      7.920
REMARK  Name = 
REMARK  8 active torsions:
REMARK  status: ('A' for Active; 'I' for Inactive)
REMARK    1  A    between atoms: C_1  and  O_2
REMARK    2  A    between atoms: O_2  and  C_3
REMARK    3  A    between atoms: C_6  and  N_7
REMARK    4  A    between atoms: C_8  and  C_10
REMARK    5  A    between atoms: C_12  and  C_13
REMARK    6  A    between atoms: C_19  and  C_20
REMARK    7  A    between atoms: C_24  and  O_25
REMARK    8  A    between atoms: O_25  and  C_26
REMARK                            x       y       z     vdW  Elec       q    Type
REMARK                         _______ _______ _______ _____ _____    ______ ____
ROOT
ATOM      1  N   UNL     1       7.856   8.964  17.992  0.00  0.00    +0.000 N 
ATOM      2  C   UNL     1       7.894   7.618  18.309  0.00  0.00    +0.000 C 
ATOM      3  O   UNL     1       8.753   7.052  18.976  0.00  0.00    +0.000 OA
ATOM      4  H   UNL     1       7.020   9.248  17.484  0.00  0.00    +0.000 HD
ENDROOT
BRANCH   1   8
ATOM      5  C   UNL     1      10.605  11.990  19.064  0.00  0.00    +0.000 A 
ATOM      6  C   UNL     1      10.501  11.572  17.732  0.00  0.00    +0.000 A 
ATOM      7  C   UNL     1       9.606  10.571  17.362  0.00  0.00    +0.000 A 
ATOM      8  C   UNL     1       8.813   9.938  18.316  0.00  0.00    +0.000 A 
ATOM      9  C   UNL     1       8.974  10.300  19.659  0.00  0.00    +0.000 A 
ATOM     10  C   UNL     1       9.875  11.309  20.049  0.00  0.00    +0.000 A 
BRANCH   5  12
ATOM     11  C   UNL     1      12.333  13.458  18.394  0.00  0.00    +0.000 C 
ATOM     12  O   UNL     1      11.417  13.039  19.408  0.00  0.00    +0.000 OA
ENDBRANCH   5  12
BRANCH  10  13
ATOM     13  O   UNL     1       9.884  11.495  21.407  0.00  0.00    +0.000 OA
ATOM     14  C   UNL     1       8.949  12.390  21.987  0.00  0.00    +0.000 C 
ENDBRANCH  10  13
ENDBRANCH   1   8
BRANCH   2  15
ATOM     15  C   UNL     1       6.736   6.869  17.793  0.00  0.00    +0.000 A 
ATOM     16  C   UNL     1       6.025   5.868  18.498  0.00  0.00    +0.000 A 
ATOM     17  C   UNL     1       4.939   5.538  17.717  0.00  0.00    +0.000 A 
ATOM     18  N   UNL     1       5.125   6.265  16.565  0.00  0.00    +0.000 N 
ATOM     19  N   UNL     1       6.189   7.092  16.585  0.00  0.00    +0.000 NA
ATOM     20  H   UNL     1       4.531   6.273  15.743  0.00  0.00    +0.000 HD
BRANCH  17  21
ATOM     21  C   UNL     1       3.766   4.687  17.955  0.00  0.00    +0.000 A 
ATOM     22  C   UNL     1       3.759   3.381  17.422  0.00  0.00    +0.000 A 
ATOM     23  C   UNL     1       2.639   2.554  17.548  0.00  0.00    +0.000 A 
ATOM     24  C   UNL     1       1.525   3.019  18.224  0.00  0.00    +0.000 A 
ATOM     25  F   UNL     1       0.443   2.235  18.334  0.00  0.00    +0.000 F 
ATOM     26  C   UNL     1       1.510   4.289  18.786  0.00  0.00    +0.000 A 
ATOM     27  C   UNL     1       2.624   5.141  18.657  0.00  0.00    +0.000 A 
ATOM     28  C   UNL     1       2.526   6.506  19.286  0.00  0.00    +0.000 C 
ENDBRANCH  17  21
ENDBRANCH   2  15
TORSDOF 5
ENDMDL
MODEL 8
REMARK VINA RESULT:      -7.2      3.955      9.175
REMARK  Name = 
REMARK  8 active torsions:
REMARK  status: ('A' for Active; 'I' for Inactive)
REMARK    1  A    between atoms: C_1  and  O_2
REMARK    2  A    between atoms: O_2  and  C_3
REMARK    3  A    between atoms: C_6  and  N_7
REMARK    4  A    between atoms: C_8  and  C_10
REMARK    5  A    between atoms: C_12  and  C_13
REMARK    6  A    between atoms: C_19  and  C_20
REMARK    7  A    between atoms: C_24  and  O_25
REMARK    8  A    between atoms: O_25  and  C_26
REMARK                            x       y       z     vdW  Elec       q    Type
REMARK                         _______ _______ _______ _____ _____    ______ ____
ROOT
ATOM      1  N   UNL     1       3.176   6.827  18.518  0.00  0.00    +0.000 N 
ATOM      2  C   UNL     1       2.580   6.468  19.714  0.00  0.00    +0.000 C 
ATOM      3  O   UNL     1       2.768   5.429  20.336  0.00  0.00    +0.000 OA
ATOM      4  H   UNL     1       2.936   7.765  18.199  0.00  0.00    +0.000 HD
ENDROOT
BRANCH   1   8
ATOM      5  C   UNL     1       5.875   4.662  16.091  0.00  0.00    +0.000 A 
ATOM      6  C   UNL     1       4.637   4.107  16.436  0.00  0.00    +0.000 A 
ATOM      7  C   UNL     1       3.739   4.803  17.241  0.00  0.00    +0.000 A 
ATOM      8  C   UNL     1       4.063   6.059  17.749  0.00  0.00    +0.000 A 
ATOM      9  C   UNL     1       5.333   6.579  17.470  0.00  0.00    +0.000 A 
ATOM     10  C   UNL     1       6.253   5.888  16.660  0.00  0.00    +0.000 A 
BRANCH   5  12
ATOM     11  C   UNL     1       6.555   4.364  13.847  0.00  0.00    +0.000 C 
ATOM     12  O   UNL     1       6.715   4.015  15.223  0.00  0.00    +0.000 OA
ENDBRANCH   5  12
BRANCH  10  13
ATOM     13  O   UNL     1       7.436   6.568  16.525  0.00  0.00    +0.000 OA
ATOM     14  C   UNL     1       7.768   7.567  17.475  0.00  0.00    +0.000 C 
ENDBRANCH  10  13
ENDBRANCH   1   8
BRANCH   2  15
ATOM     15  C   UNL     1       1.679   7.504  20.245  0.00  0.00    +0.000 A 
ATOM     16  C   UNL     1       1.580   8.832  19.764  0.00  0.00    +0.000 A 
ATOM     17  C   UNL     1       0.525   9.412  20.435  0.00  0.00    +0.000 A 
ATOM     18  N   UNL     1       0.139   8.451  21.340  0.00  0.00    +0.000 N 
ATOM     19  N   UNL     1       0.802   7.282  21.239  0.00  0.00    +0.000 NA
ATOM     20  H   UNL     1      -0.605   8.520  22.026  0.00  0.00    +0.000 HD
BRANCH  17  21
ATOM     21  C   UNL     1      -0.162  10.701  20.283  0.00  0.00    +0.000 A 
ATOM     22  C   UNL     1      -0.015  11.670  21.297  0.00  0.00    +0.000 A 
ATOM     23  C   UNL     1      -0.707  12.883  21.245  0.00  0.00    +0.000 A 
ATOM     24  C   UNL     1      -1.537  13.145  20.170  0.00  0.00    +0.000 A 
ATOM     25  F   UNL     1      -2.214  14.301  20.123  0.00  0.00    +0.000 F 
ATOM     26  C   UNL     1      -1.681  12.225  19.139  0.00  0.00    +0.000 A 
ATOM     27  C   UNL     1      -1.002  10.992  19.182  0.00  0.00    +0.000 A 
ATOM     28  C   UNL     1      -1.219  10.045  18.031  0.00  0.00    +0.000 C 
ENDBRANCH  17  21
ENDBRANCH   2  15
TORSDOF 5
ENDMDL
MODEL 9
REMARK VINA RESULT:      -7.2      3.238      4.687
REMARK  Name = 
REMARK  8 active torsions:
REMARK  status: ('A' for Active; 'I' for Inactive)
REMARK    1  A    between atoms: C_1  and  O_2
REMARK    2  A    between atoms: O_2  and  C_3
REMARK    3  A    between atoms: C_6  and  N_7
REMARK    4  A    between atoms: C_8  and  C_10
REMARK    5  A    between atoms: C_12  and  C_13
REMARK    6  A    between atoms: C_19  and  C_20
REMARK    7  A    between atoms: C_24  and  O_25
REMARK    8  A    between atoms: O_25  and  C_26
REMARK                            x       y       z     vdW  Elec       q    Type
REMARK                         _______ _______ _______ _____ _____    ______ ____
ROOT
ATOM      1  N   UNL     1       1.520  11.137  18.961  0.00  0.00    +0.000 N 
ATOM      2  C   UNL     1       0.761  10.086  19.441  0.00  0.00    +0.000 C 
ATOM      3  O   UNL     1      -0.390  10.152  19.860  0.00  0.00    +0.000 OA
ATOM      4  H   UNL     1       2.430  10.860  18.596  0.00  0.00    +0.000 HD
ENDROOT
BRANCH   1   8
ATOM      5  C   UNL     1       0.546  15.250  18.951  0.00  0.00    +0.000 A 
ATOM      6  C   UNL     1      -0.468  14.286  18.960  0.00  0.00    +0.000 A 
ATOM      7  C   UNL     1      -0.166  12.926  18.956  0.00  0.00    +0.000 A 
ATOM      8  C   UNL     1       1.157  12.491  18.911  0.00  0.00    +0.000 A 
ATOM      9  C   UNL     1       2.169  13.455  18.821  0.00  0.00    +0.000 A 
ATOM     10  C   UNL     1       1.880  14.833  18.823  0.00  0.00    +0.000 A 
BRANCH   5  12
ATOM     11  C   UNL     1      -0.488  17.126  17.951  0.00  0.00    +0.000 C 
ATOM     12  O   UNL     1       0.246  16.583  19.051  0.00  0.00    +0.000 OA
ENDBRANCH   5  12
BRANCH  10  13
ATOM     13  O   UNL     1       3.011  15.598  18.715  0.00  0.00    +0.000 OA
ATOM     14  C   UNL     1       3.345  16.163  17.457  0.00  0.00    +0.000 C 
ENDBRANCH  10  13
ENDBRANCH   1   8
BRANCH   2  15
ATOM     15  C   UNL     1       1.456   8.790  19.369  0.00  0.00    +0.000 A 
ATOM     16  C   UNL     1       1.976   8.201  18.191  0.00  0.00    +0.000 A 
ATOM     17  C   UNL     1       2.668   7.077  18.591  0.00  0.00    +0.000 A 
ATOM     18  N   UNL     1       2.427   7.002  19.942  0.00  0.00    +0.000 N 
ATOM     19  N   UNL     1       1.716   8.029  20.447  0.00  0.00    +0.000 NA
ATOM     20  H   UNL     1       2.763   6.293  20.586  0.00  0.00    +0.000 HD
BRANCH  17  21
ATOM     21  C   UNL     1       3.538   6.138  17.871  0.00  0.00    +0.000 A 
ATOM     22  C   UNL     1       4.782   6.599  17.392  0.00  0.00    +0.000 A 
ATOM     23  C   UNL     1       5.616   5.774  16.632  0.00  0.00    +0.000 A 
ATOM     24  C   UNL     1       5.221   4.476  16.361  0.00  0.00    +0.000 A 
ATOM     25  F   UNL     1       6.011   3.686  15.620  0.00  0.00    +0.000 F 
ATOM     26  C   UNL     1       4.016   3.981  16.842  0.00  0.00    +0.000 A 
ATOM     27  C   UNL     1       3.157   4.803  17.598  0.00  0.00    +0.000 A 
ATOM     28  C   UNL     1       1.864   4.195  18.074  0.00  0.00    +0.000 C 
ENDBRANCH  17  21
ENDBRANCH   2  15
TORSDOF 5
ENDMDL
