MODEL 1
REMARK VINA RESULT:      -7.8      0.000      0.000
REMARK  Name = 
REMARK  15 active torsions:
REMARK  status: ('A' for Active; 'I' for Inactive)
REMARK    1  A    between atoms: C_4  and  C_5
REMARK    2  A    between atoms: C_9  and  C_10
REMARK    3  A    between atoms: C_10  and  C_11
REMARK    4  A    between atoms: C_11  and  C_12
REMARK    5  A    between atoms: C_12  and  C_13
REMARK    6  A    between atoms: C_13  and  C_14
REMARK    7  A    between atoms: C_14  and  C_15
REMARK    8  A    between atoms: C_15  and  C_16
REMARK    9  A    between atoms: C_16  and  C_17
REMARK   10  A    between atoms: C_17  and  C_18
REMARK   11  A    between atoms: C_17  and  C_19
REMARK   12  A    between atoms: C_17  and  O_20
REMARK   13  A    between atoms: C_21  and  C_22
REMARK   14  A    between atoms: C_28  and  O_29
REMARK   15  A    between atoms: C_31  and  O_32
REMARK                            x       y       z     vdW  Elec       q    Type
REMARK                         _______ _______ _______ _____ _____    ______ ____
ROOT
ATOM      1  C   UNL     1       3.463   4.577  16.945  0.00  0.00    +0.000 C 
ATOM      2  C   UNL     1       4.333   5.562  16.650  0.00  0.00    +0.000 C 
ATOM      3  C   UNL     1       4.351   6.923  17.322  0.00  0.00    +0.000 C 
ATOM      4  C   UNL     1       5.743   7.327  17.813  0.00  0.00    +0.000 C 
ATOM      5  C   UNL     1       6.863   7.153  16.759  0.00  0.00    +0.000 C 
ATOM      6  C   UNL     1       6.831   5.708  16.154  0.00  0.00    +0.000 C 
ATOM      7  C   UNL     1       7.273   4.656  17.202  0.00  0.00    +0.000 C 
ATOM      8  C   UNL     1       7.643   5.493  14.855  0.00  0.00    +0.000 C 
ATOM      9  C   UNL     1       6.942   4.362  14.092  0.00  0.00    +0.000 C 
ATOM     10  C   UNL     1       5.568   4.193  14.740  0.00  0.00    +0.000 C 
ATOM     11  C   UNL     1       5.405   5.453  15.592  0.00  0.00    +0.000 C 
ENDROOT
BRANCH   1  15
ATOM     12  C   UNL     1       4.676   4.275  19.936  0.00  0.00    +0.000 C 
ATOM     13  C   UNL     1       3.464   3.689  19.901  0.00  0.00    +0.000 C 
ATOM     14  C   UNL     1       2.346   4.293  19.171  0.00  0.00    +0.000 C 
ATOM     15  C   UNL     1       2.371   4.698  17.885  0.00  0.00    +0.000 C 
ATOM     16  C   UNL     1       1.074   4.447  19.985  0.00  0.00    +0.000 C 
ATOM     17  C   UNL     1       0.685   3.155  20.710  0.00  0.00    +0.000 C 
ATOM     18  C   UNL     1       1.855   2.573  21.499  0.00  0.00    +0.000 C 
ATOM     19  C   UNL     1       3.111   2.405  20.636  0.00  0.00    +0.000 C 
BRANCH  17  20
ATOM     20  O   UNL     1       0.178   2.189  19.788  0.00  0.00    +0.000 OA
ATOM     21  H   UNL     1       0.748   1.400  19.817  0.00  0.00    +0.000 HD
ENDBRANCH  17  20
BRANCH  19  22
ATOM     22  O   UNL     1       4.178   1.970  21.479  0.00  0.00    +0.000 OA
ATOM     23  H   UNL     1       4.038   1.024  21.649  0.00  0.00    +0.000 HD
ENDBRANCH  19  22
ENDBRANCH   1  15
BRANCH   5  24
ATOM     24  C   UNL     1       8.184   7.603  17.421  0.00  0.00    +0.000 C 
BRANCH  24  25
ATOM     25  C   UNL     1       8.143   9.030  17.923  0.00  0.00    +0.000 C 
BRANCH  25  26
ATOM     26  C   UNL     1       8.984   9.250  19.170  0.00  0.00    +0.000 C 
BRANCH  26  27
ATOM     27  C   UNL     1       9.558  10.656  19.084  0.00  0.00    +0.000 C 
BRANCH  27  28
ATOM     28  C   UNL     1       8.883  11.490  18.008  0.00  0.00    +0.000 C 
BRANCH  28  29
ATOM     29  C   UNL     1       9.043  12.987  18.272  0.00  0.00    +0.000 C 
BRANCH  29  30
ATOM     30  C   UNL     1       9.744  13.720  17.122  0.00  0.00    +0.000 C 
BRANCH  30  31
ATOM     31  C   UNL     1      11.193  14.144  17.404  0.00  0.00    +0.000 C 
ATOM     32  C   UNL     1      11.413  14.495  18.874  0.00  0.00    +0.000 C 
ATOM     33  C   UNL     1      12.192  13.083  16.938  0.00  0.00    +0.000 C 
BRANCH  31  34
ATOM     34  O   UNL     1      11.454  15.321  16.627  0.00  0.00    +0.000 OA
ATOM     35  H   UNL     1      11.767  16.016  17.232  0.00  0.00    +0.000 HD
ENDBRANCH  31  34
ENDBRANCH  30  31
ENDBRANCH  29  30
ENDBRANCH  28  29
ENDBRANCH  27  28
ENDBRANCH  26  27
ENDBRANCH  25  26
ENDBRANCH  24  25
ENDBRANCH   5  24
TORSDOF 12
ENDMDL
MODEL 2
REMARK VINA RESULT:      -7.7      7.067     10.727
REMARK  Name = 
REMARK  15 active torsions:
REMARK  status: ('A' for Active; 'I' for Inactive)
REMARK    1  A    between atoms: C_4  and  C_5
REMARK    2  A    between atoms: C_9  and  C_10
REMARK    3  A    between atoms: C_10  and  C_11
REMARK    4  A    between atoms: C_11  and  C_12
REMARK    5  A    between atoms: C_12  and  C_13
REMARK    6  A    between atoms: C_13  and  C_14
REMARK    7  A    between atoms: C_14  and  C_15
REMARK    8  A    between atoms: C_15  and  C_16
REMARK    9  A    between atoms: C_16  and  C_17
REMARK   10  A    between atoms: C_17  and  C_18
REMARK   11  A    between atoms: C_17  and  C_19
REMARK   12  A    between atoms: C_17  and  O_20
REMARK   13  A    between atoms: C_21  and  C_22
REMARK   14  A    between atoms: C_28  and  O_29
REMARK   15  A    between atoms: C_31  and  O_32
REMARK                            x       y       z     vdW  Elec       q    Type
REMARK                         _______ _______ _______ _____ _____    ______ ____
ROOT
ATOM      1  C   UNL     1       1.064   7.962  20.204  0.00  0.00    +0.000 C 
ATOM      2  C   UNL     1       0.094   8.746  20.714  0.00  0.00    +0.000 C 
ATOM      3  C   UNL     1      -0.498   8.588  22.103  0.00  0.00    +0.000 C 
ATOM      4  C   UNL     1      -0.534   9.901  22.888  0.00  0.00    +0.000 C 
ATOM      5  C   UNL     1      -1.131  11.095  22.103  0.00  0.00    +0.000 C 
ATOM      6  C   UNL     1      -0.431  11.242  20.709  0.00  0.00    +0.000 C 
ATOM      7  C   UNL     1       1.033  11.723  20.870  0.00  0.00    +0.000 C 
ATOM      8  C   UNL     1      -1.146  12.148  19.678  0.00  0.00    +0.000 C 
ATOM      9  C   UNL     1      -0.761  11.610  18.294  0.00  0.00    +0.000 C 
ATOM     10  C   UNL     1      -0.161  10.223  18.523  0.00  0.00    +0.000 C 
ATOM     11  C   UNL     1      -0.553   9.885  19.963  0.00  0.00    +0.000 C 
ENDROOT
BRANCH   1  15
ATOM     12  C   UNL     1       2.790   6.287  18.032  0.00  0.00    +0.000 C 
ATOM     13  C   UNL     1       2.187   5.418  18.866  0.00  0.00    +0.000 C 
ATOM     14  C   UNL     1       2.095   5.680  20.304  0.00  0.00    +0.000 C 
ATOM     15  C   UNL     1       1.624   6.809  20.872  0.00  0.00    +0.000 C 
ATOM     16  C   UNL     1       2.587   4.543  21.182  0.00  0.00    +0.000 C 
ATOM     17  C   UNL     1       1.981   3.193  20.782  0.00  0.00    +0.000 C 
ATOM     18  C   UNL     1       2.131   2.926  19.286  0.00  0.00    +0.000 C 
ATOM     19  C   UNL     1       1.598   4.083  18.434  0.00  0.00    +0.000 C 
BRANCH  17  20
ATOM     20  O   UNL     1       0.607   3.119  21.165  0.00  0.00    +0.000 OA
ATOM     21  H   UNL     1       0.318   2.191  21.112  0.00  0.00    +0.000 HD
ENDBRANCH  17  20
BRANCH  19  22
ATOM     22  O   UNL     1       1.885   3.799  17.065  0.00  0.00    +0.000 OA
ATOM     23  H   UNL     1       1.818   4.638  16.580  0.00  0.00    +0.000 HD
ENDBRANCH  19  22
ENDBRANCH   1  15
BRANCH   5  24
ATOM     24  C   UNL     1      -1.088  12.322  23.039  0.00  0.00    +0.000 C 
BRANCH  24  25
ATOM     25  C   UNL     1      -2.050  13.416  22.633  0.00  0.00    +0.000 C 
BRANCH  25  26
ATOM     26  C   UNL     1      -3.274  13.501  23.531  0.00  0.00    +0.000 C 
BRANCH  26  27
ATOM     27  C   UNL     1      -4.413  12.797  22.808  0.00  0.00    +0.000 C 
BRANCH  27  28
ATOM     28  C   UNL     1      -4.775  13.480  21.500  0.00  0.00    +0.000 C 
BRANCH  28  29
ATOM     29  C   UNL     1      -4.722  12.506  20.323  0.00  0.00    +0.000 C 
BRANCH  29  30
ATOM     30  C   UNL     1      -6.107  12.205  19.740  0.00  0.00    +0.000 C 
BRANCH  30  31
ATOM     31  C   UNL     1      -6.132  11.153  18.621  0.00  0.00    +0.000 C 
ATOM     32  C   UNL     1      -4.736  10.862  18.075  0.00  0.00    +0.000 C 
ATOM     33  C   UNL     1      -6.822   9.864  19.075  0.00  0.00    +0.000 C 
BRANCH  31  34
ATOM     34  O   UNL     1      -6.922  11.684  17.549  0.00  0.00    +0.000 OA
ATOM     35  H   UNL     1      -6.350  11.764  16.766  0.00  0.00    +0.000 HD
ENDBRANCH  31  34
ENDBRANCH  30  31
ENDBRANCH  29  30
ENDBRANCH  28  29
ENDBRANCH  27  28
ENDBRANCH  26  27
ENDBRANCH  25  26
ENDBRANCH  24  25
ENDBRANCH   5  24
TORSDOF 12
ENDMDL
MODEL 3
REMARK VINA RESULT:      -7.6      4.152      5.801
REMARK  Name = 
REMARK  15 active torsions:
REMARK  status: ('A' for Active; 'I' for Inactive)
REMARK    1  A    between atoms: C_4  and  C_5
REMARK    2  A    between atoms: C_9  and  C_10
REMARK    3  A    between atoms: C_10  and  C_11
REMARK    4  A    between atoms: C_11  and  C_12
REMARK    5  A    between atoms: C_12  and  C_13
REMARK    6  A    between atoms: C_13  and  C_14
REMARK    7  A    between atoms: C_14  and  C_15
REMARK    8  A    between atoms: C_15  and  C_16
REMARK    9  A    between atoms: C_16  and  C_17
REMARK   10  A    between atoms: C_17  and  C_18
REMARK   11  A    between atoms: C_17  and  C_19
REMARK   12  A    between atoms: C_17  and  O_20
REMARK   13  A    between atoms: C_21  and  C_22
REMARK   14  A    between atoms: C_28  and  O_29
REMARK   15  A    between atoms: C_31  and  O_32
REMARK                            x       y       z     vdW  Elec       q    Type
REMARK                         _______ _______ _______ _____ _____    ______ ____
ROOT
ATOM      1  C   UNL     1       1.767   7.825  19.778  0.00  0.00    +0.000 C 
ATOM      2  C   UNL     1       2.162   6.991  18.798  0.00  0.00    +0.000 C 
ATOM      3  C   UNL     1       2.635   7.437  17.427  0.00  0.00    +0.000 C 
ATOM      4  C   UNL     1       3.962   6.796  17.015  0.00  0.00    +0.000 C 
ATOM      5  C   UNL     1       4.011   5.260  17.206  0.00  0.00    +0.000 C 
ATOM      6  C   UNL     1       3.578   4.873  18.660  0.00  0.00    +0.000 C 
ATOM      7  C   UNL     1       4.643   5.314  19.695  0.00  0.00    +0.000 C 
ATOM      8  C   UNL     1       3.237   3.382  18.897  0.00  0.00    +0.000 C 
ATOM      9  C   UNL     1       2.215   3.351  20.040  0.00  0.00    +0.000 C 
ATOM     10  C   UNL     1       1.702   4.783  20.198  0.00  0.00    +0.000 C 
ATOM     11  C   UNL     1       2.175   5.486  18.924  0.00  0.00    +0.000 C 
ENDROOT
BRANCH   1  15
ATOM     12  C   UNL     1       1.328   9.083  22.733  0.00  0.00    +0.000 C 
ATOM     13  C   UNL     1       0.601   9.794  21.850  0.00  0.00    +0.000 C 
ATOM     14  C   UNL     1       1.127  10.131  20.525  0.00  0.00    +0.000 C 
ATOM     15  C   UNL     1       1.657   9.260  19.641  0.00  0.00    +0.000 C 
ATOM     16  C   UNL     1       1.040  11.605  20.171  0.00  0.00    +0.000 C 
ATOM     17  C   UNL     1      -0.357  12.183  20.423  0.00  0.00    +0.000 C 
ATOM     18  C   UNL     1      -0.861  11.856  21.826  0.00  0.00    +0.000 C 
ATOM     19  C   UNL     1      -0.784  10.357  22.135  0.00  0.00    +0.000 C 
BRANCH  17  20
ATOM     20  O   UNL     1      -1.284  11.719  19.440  0.00  0.00    +0.000 OA
ATOM     21  H   UNL     1      -1.690  10.894  19.759  0.00  0.00    +0.000 HD
ENDBRANCH  17  20
BRANCH  19  22
ATOM     22  O   UNL     1      -1.162  10.160  23.497  0.00  0.00    +0.000 OA
ATOM     23  H   UNL     1      -2.132  10.133  23.522  0.00  0.00    +0.000 HD
ENDBRANCH  19  22
ENDBRANCH   1  15
BRANCH   5  24
ATOM     24  C   UNL     1       5.408   4.790  16.745  0.00  0.00    +0.000 C 
BRANCH  24  25
ATOM     25  C   UNL     1       6.301   5.926  16.295  0.00  0.00    +0.000 C 
BRANCH  25  26
ATOM     26  C   UNL     1       7.658   5.929  16.980  0.00  0.00    +0.000 C 
BRANCH  26  27
ATOM     27  C   UNL     1       7.583   6.927  18.126  0.00  0.00    +0.000 C 
BRANCH  27  28
ATOM     28  C   UNL     1       7.826   8.354  17.662  0.00  0.00    +0.000 C 
BRANCH  28  29
ATOM     29  C   UNL     1       8.681   9.132  18.663  0.00  0.00    +0.000 C 
BRANCH  29  30
ATOM     30  C   UNL     1       9.039  10.538  18.167  0.00  0.00    +0.000 C 
BRANCH  30  31
ATOM     31  C   UNL     1       9.711  11.447  19.208  0.00  0.00    +0.000 C 
ATOM     32  C   UNL     1       9.409  12.924  18.959  0.00  0.00    +0.000 C 
ATOM     33  C   UNL     1       9.335  11.044  20.635  0.00  0.00    +0.000 C 
BRANCH  31  34
ATOM     34  O   UNL     1      11.127  11.262  19.090  0.00  0.00    +0.000 OA
ATOM     35  H   UNL     1      11.512  12.091  18.757  0.00  0.00    +0.000 HD
ENDBRANCH  31  34
ENDBRANCH  30  31
ENDBRANCH  29  30
ENDBRANCH  28  29
ENDBRANCH  27  28
ENDBRANCH  26  27
ENDBRANCH  25  26
ENDBRANCH  24  25
ENDBRANCH   5  24
TORSDOF 12
ENDMDL
MODEL 4
REMARK VINA RESULT:      -7.5      6.615     10.582
REMARK  Name = 
REMARK  15 active torsions:
REMARK  status: ('A' for Active; 'I' for Inactive)
REMARK    1  A    between atoms: C_4  and  C_5
REMARK    2  A    between atoms: C_9  and  C_10
REMARK    3  A    between atoms: C_10  and  C_11
REMARK    4  A    between atoms: C_11  and  C_12
REMARK    5  A    between atoms: C_12  and  C_13
REMARK    6  A    between atoms: C_13  and  C_14
REMARK    7  A    between atoms: C_14  and  C_15
REMARK    8  A    between atoms: C_15  and  C_16
REMARK    9  A    between atoms: C_16  and  C_17
REMARK   10  A    between atoms: C_17  and  C_18
REMARK   11  A    between atoms: C_17  and  C_19
REMARK   12  A    between atoms: C_17  and  O_20
REMARK   13  A    between atoms: C_21  and  C_22
REMARK   14  A    between atoms: C_28  and  O_29
REMARK   15  A    between atoms: C_31  and  O_32
REMARK                            x       y       z     vdW  Elec       q    Type
REMARK                         _______ _______ _______ _____ _____    ______ ____
ROOT
ATOM      1  C   UNL     1       2.123   7.146  19.901  0.00  0.00    +0.000 C 
ATOM      2  C   UNL     1       1.740   8.411  19.639  0.00  0.00    +0.000 C 
ATOM      3  C   UNL     1       1.795   9.059  18.268  0.00  0.00    +0.000 C 
ATOM      4  C   UNL     1       0.482   9.738  17.875  0.00  0.00    +0.000 C 
ATOM      5  C   UNL     1      -0.103  10.668  18.966  0.00  0.00    +0.000 C 
ATOM      6  C   UNL     1      -0.196   9.917  20.338  0.00  0.00    +0.000 C 
ATOM      7  C   UNL     1      -1.287   8.819  20.299  0.00  0.00    +0.000 C 
ATOM      8  C   UNL     1      -0.420  10.802  21.588  0.00  0.00    +0.000 C 
ATOM      9  C   UNL     1       0.216  10.053  22.765  0.00  0.00    +0.000 C 
ATOM     10  C   UNL     1       1.103   8.967  22.155  0.00  0.00    +0.000 C 
ATOM     11  C   UNL     1       1.216   9.368  20.682  0.00  0.00    +0.000 C 
ENDROOT
BRANCH   1  15
ATOM     12  C   UNL     1       0.867   4.194  20.367  0.00  0.00    +0.000 C 
ATOM     13  C   UNL     1       2.162   4.062  20.023  0.00  0.00    +0.000 C 
ATOM     14  C   UNL     1       2.765   4.903  18.985  0.00  0.00    +0.000 C 
ATOM     15  C   UNL     1       2.716   6.250  18.934  0.00  0.00    +0.000 C 
ATOM     16  C   UNL     1       3.497   4.133  17.900  0.00  0.00    +0.000 C 
ATOM     17  C   UNL     1       4.474   3.101  18.475  0.00  0.00    +0.000 C 
ATOM     18  C   UNL     1       3.807   2.210  19.519  0.00  0.00    +0.000 C 
ATOM     19  C   UNL     1       3.105   3.023  20.612  0.00  0.00    +0.000 C 
BRANCH  17  20
ATOM     20  O   UNL     1       5.623   3.744  19.029  0.00  0.00    +0.000 OA
ATOM     21  H   UNL     1       6.332   3.745  18.362  0.00  0.00    +0.000 HD
ENDBRANCH  17  20
BRANCH  19  22
ATOM     22  O   UNL     1       2.416   2.115  21.472  0.00  0.00    +0.000 OA
ATOM     23  H   UNL     1       1.544   2.503  21.656  0.00  0.00    +0.000 HD
ENDBRANCH  19  22
ENDBRANCH   1  15
BRANCH   5  24
ATOM     24  C   UNL     1      -1.414  11.260  18.404  0.00  0.00    +0.000 C 
BRANCH  24  25
ATOM     25  C   UNL     1      -1.922  10.527  17.182  0.00  0.00    +0.000 C 
BRANCH  25  26
ATOM     26  C   UNL     1      -3.387  10.134  17.286  0.00  0.00    +0.000 C 
BRANCH  26  27
ATOM     27  C   UNL     1      -4.167  11.051  16.354  0.00  0.00    +0.000 C 
BRANCH  27  28
ATOM     28  C   UNL     1      -5.262  11.814  17.081  0.00  0.00    +0.000 C 
BRANCH  28  29
ATOM     29  C   UNL     1      -5.163  11.632  18.596  0.00  0.00    +0.000 C 
BRANCH  29  30
ATOM     30  C   UNL     1      -6.468  11.122  19.218  0.00  0.00    +0.000 C 
BRANCH  30  31
ATOM     31  C   UNL     1      -6.971  11.921  20.430  0.00  0.00    +0.000 C 
ATOM     32  C   UNL     1      -7.909  11.098  21.310  0.00  0.00    +0.000 C 
ATOM     33  C   UNL     1      -5.811  12.492  21.249  0.00  0.00    +0.000 C 
BRANCH  31  34
ATOM     34  O   UNL     1      -7.709  13.043  19.929  0.00  0.00    +0.000 OA
ATOM     35  H   UNL     1      -7.776  12.950  18.963  0.00  0.00    +0.000 HD
ENDBRANCH  31  34
ENDBRANCH  30  31
ENDBRANCH  29  30
ENDBRANCH  28  29
ENDBRANCH  27  28
ENDBRANCH  26  27
ENDBRANCH  25  26
ENDBRANCH  24  25
ENDBRANCH   5  24
TORSDOF 12
ENDMDL
MODEL 5
REMARK VINA RESULT:      -7.5      7.552     10.225
REMARK  Name = 
REMARK  15 active torsions:
REMARK  status: ('A' for Active; 'I' for Inactive)
REMARK    1  A    between atoms: C_4  and  C_5
REMARK    2  A    between atoms: C_9  and  C_10
REMARK    3  A    between atoms: C_10  and  C_11
REMARK    4  A    between atoms: C_11  and  C_12
REMARK    5  A    between atoms: C_12  and  C_13
REMARK    6  A    between atoms: C_13  and  C_14
REMARK    7  A    between atoms: C_14  and  C_15
REMARK    8  A    between atoms: C_15  and  C_16
REMARK    9  A    between atoms: C_16  and  C_17
REMARK   10  A    between atoms: C_17  and  C_18
REMARK   11  A    between atoms: C_17  and  C_19
REMARK   12  A    between atoms: C_17  and  O_20
REMARK   13  A    between atoms: C_21  and  C_22
REMARK   14  A    between atoms: C_28  and  O_29
REMARK   15  A    between atoms: C_31  and  O_32
REMARK                            x       y       z     vdW  Elec       q    Type
REMARK                         _______ _______ _______ _____ _____    ______ ____
ROOT
ATOM      1  C   UNL     1      -0.553  12.739  21.901  0.00  0.00    +0.000 C 
ATOM      2  C   UNL     1       0.321  11.916  21.288  0.00  0.00    +0.000 C 
ATOM      3  C   UNL     1       0.375  10.414  21.491  0.00  0.00    +0.000 C 
ATOM      4  C   UNL     1       0.393   9.634  20.175  0.00  0.00    +0.000 C 
ATOM      5  C   UNL     1       1.430  10.147  19.146  0.00  0.00    +0.000 C 
ATOM      6  C   UNL     1       1.274  11.691  18.932  0.00  0.00    +0.000 C 
ATOM      7  C   UNL     1      -0.043  12.020  18.185  0.00  0.00    +0.000 C 
ATOM      8  C   UNL     1       2.447  12.404  18.217  0.00  0.00    +0.000 C 
ATOM      9  C   UNL     1       2.452  13.847  18.734  0.00  0.00    +0.000 C 
ATOM     10  C   UNL     1       1.562  13.863  19.977  0.00  0.00    +0.000 C 
ATOM     11  C   UNL     1       1.382  12.383  20.319  0.00  0.00    +0.000 C 
ENDROOT
BRANCH   1  15
ATOM     12  C   UNL     1      -3.502  12.801  20.557  0.00  0.00    +0.000 C 
ATOM     13  C   UNL     1      -3.604  13.194  21.841  0.00  0.00    +0.000 C 
ATOM     14  C   UNL     1      -2.841  12.536  22.904  0.00  0.00    +0.000 C 
ATOM     15  C   UNL     1      -1.509  12.322  22.902  0.00  0.00    +0.000 C 
ATOM     16  C   UNL     1      -3.676  12.077  24.086  0.00  0.00    +0.000 C 
ATOM     17  C   UNL     1      -4.600  13.181  24.611  0.00  0.00    +0.000 C 
ATOM     18  C   UNL     1      -5.416  13.818  23.490  0.00  0.00    +0.000 C 
ATOM     19  C   UNL     1      -4.536  14.294  22.329  0.00  0.00    +0.000 C 
BRANCH  17  20
ATOM     20  O   UNL     1      -3.852  14.178  25.310  0.00  0.00    +0.000 OA
ATOM     21  H   UNL     1      -3.449  14.780  24.660  0.00  0.00    +0.000 HD
ENDBRANCH  17  20
BRANCH  19  22
ATOM     22  O   UNL     1      -5.387  14.765  21.285  0.00  0.00    +0.000 OA
ATOM     23  H   UNL     1      -5.369  14.096  20.580  0.00  0.00    +0.000 HD
ENDBRANCH  19  22
ENDBRANCH   1  15
BRANCH   5  24
ATOM     24  C   UNL     1       1.307   9.253  17.893  0.00  0.00    +0.000 C 
BRANCH  24  25
ATOM     25  C   UNL     1       2.455   8.279  17.741  0.00  0.00    +0.000 C 
BRANCH  25  26
ATOM     26  C   UNL     1       2.139   6.894  18.281  0.00  0.00    +0.000 C 
BRANCH  26  27
ATOM     27  C   UNL     1       3.468   6.206  18.564  0.00  0.00    +0.000 C 
BRANCH  27  28
ATOM     28  C   UNL     1       3.489   4.769  18.071  0.00  0.00    +0.000 C 
BRANCH  28  29
ATOM     29  C   UNL     1       4.446   4.593  16.891  0.00  0.00    +0.000 C 
BRANCH  29  30
ATOM     30  C   UNL     1       5.371   5.800  16.695  0.00  0.00    +0.000 C 
BRANCH  30  31
ATOM     31  C   UNL     1       6.842   5.459  16.417  0.00  0.00    +0.000 C 
ATOM     32  C   UNL     1       7.465   4.642  17.548  0.00  0.00    +0.000 C 
ATOM     33  C   UNL     1       7.012   4.750  15.072  0.00  0.00    +0.000 C 
BRANCH  31  34
ATOM     34  O   UNL     1       7.560   6.696  16.322  0.00  0.00    +0.000 OA
ATOM     35  H   UNL     1       6.949   7.371  15.978  0.00  0.00    +0.000 HD
ENDBRANCH  31  34
ENDBRANCH  30  31
ENDBRANCH  29  30
ENDBRANCH  28  29
ENDBRANCH  27  28
ENDBRANCH  26  27
ENDBRANCH  25  26
ENDBRANCH  24  25
ENDBRANCH   5  24
TORSDOF 12
ENDMDL
MODEL 6
REMARK VINA RESULT:      -7.5      2.058      2.614
REMARK  Name = 
REMARK  15 active torsions:
REMARK  status: ('A' for Active; 'I' for Inactive)
REMARK    1  A    between atoms: C_4  and  C_5
REMARK    2  A    between atoms: C_9  and  C_10
REMARK    3  A    between atoms: C_10  and  C_11
REMARK    4  A    between atoms: C_11  and  C_12
REMARK    5  A    between atoms: C_12  and  C_13
REMARK    6  A    between atoms: C_13  and  C_14
REMARK    7  A    between atoms: C_14  and  C_15
REMARK    8  A    between atoms: C_15  and  C_16
REMARK    9  A    between atoms: C_16  and  C_17
REMARK   10  A    between atoms: C_17  and  C_18
REMARK   11  A    between atoms: C_17  and  C_19
REMARK   12  A    between atoms: C_17  and  O_20
REMARK   13  A    between atoms: C_21  and  C_22
REMARK   14  A    between atoms: C_28  and  O_29
REMARK   15  A    between atoms: C_31  and  O_32
REMARK                            x       y       z     vdW  Elec       q    Type
REMARK                         _______ _______ _______ _____ _____    ______ ____
ROOT
ATOM      1  C   UNL     1       3.466   4.542  16.945  0.00  0.00    +0.000 C 
ATOM      2  C   UNL     1       4.316   5.545  16.652  0.00  0.00    +0.000 C 
ATOM      3  C   UNL     1       4.280   6.918  17.297  0.00  0.00    +0.000 C 
ATOM      4  C   UNL     1       5.647   7.370  17.815  0.00  0.00    +0.000 C 
ATOM      5  C   UNL     1       6.799   7.207  16.793  0.00  0.00    +0.000 C 
ATOM      6  C   UNL     1       6.821   5.750  16.218  0.00  0.00    +0.000 C 
ATOM      7  C   UNL     1       7.264   4.731  17.298  0.00  0.00    +0.000 C 
ATOM      8  C   UNL     1       7.673   5.532  14.944  0.00  0.00    +0.000 C 
ATOM      9  C   UNL     1       7.023   4.367  14.187  0.00  0.00    +0.000 C 
ATOM     10  C   UNL     1       5.637   4.173  14.803  0.00  0.00    +0.000 C 
ATOM     11  C   UNL     1       5.418   5.445  15.625  0.00  0.00    +0.000 C 
ENDROOT
BRANCH   1  15
ATOM     12  C   UNL     1       4.603   4.289  19.970  0.00  0.00    +0.000 C 
ATOM     13  C   UNL     1       3.403   3.681  19.908  0.00  0.00    +0.000 C 
ATOM     14  C   UNL     1       2.295   4.257  19.143  0.00  0.00    +0.000 C 
ATOM     15  C   UNL     1       2.347   4.652  17.854  0.00  0.00    +0.000 C 
ATOM     16  C   UNL     1       0.999   4.396  19.921  0.00  0.00    +0.000 C 
ATOM     17  C   UNL     1       0.614   3.103  20.648  0.00  0.00    +0.000 C 
ATOM     18  C   UNL     1       1.773   2.550  21.474  0.00  0.00    +0.000 C 
ATOM     19  C   UNL     1       3.054   2.398  20.646  0.00  0.00    +0.000 C 
BRANCH  17  20
ATOM     20  O   UNL     1       0.149   2.119  19.722  0.00  0.00    +0.000 OA
ATOM     21  H   UNL     1      -0.262   1.391  20.220  0.00  0.00    +0.000 HD
ENDBRANCH  17  20
BRANCH  19  22
ATOM     22  O   UNL     1       4.105   1.990  21.521  0.00  0.00    +0.000 OA
ATOM     23  H   UNL     1       4.830   1.665  20.962  0.00  0.00    +0.000 HD
ENDBRANCH  19  22
ENDBRANCH   1  15
BRANCH   5  24
ATOM     24  C   UNL     1       8.089   7.706  17.479  0.00  0.00    +0.000 C 
BRANCH  24  25
ATOM     25  C   UNL     1       8.059   9.184  17.802  0.00  0.00    +0.000 C 
BRANCH  25  26
ATOM     26  C   UNL     1       8.974   9.564  18.954  0.00  0.00    +0.000 C 
BRANCH  26  27
ATOM     27  C   UNL     1       9.758  10.795  18.520  0.00  0.00    +0.000 C 
BRANCH  27  28
ATOM     28  C   UNL     1      10.380  11.526  19.698  0.00  0.00    +0.000 C 
BRANCH  28  29
ATOM     29  C   UNL     1       9.377  12.460  20.374  0.00  0.00    +0.000 C 
BRANCH  29  30
ATOM     30  C   UNL     1       9.353  12.301  21.898  0.00  0.00    +0.000 C 
BRANCH  30  31
ATOM     31  C   UNL     1       8.164  12.967  22.607  0.00  0.00    +0.000 C 
ATOM     32  C   UNL     1       7.183  11.940  23.170  0.00  0.00    +0.000 C 
ATOM     33  C   UNL     1       8.627  13.936  23.697  0.00  0.00    +0.000 C 
BRANCH  31  34
ATOM     34  O   UNL     1       7.466  13.751  21.631  0.00  0.00    +0.000 OA
ATOM     35  H   UNL     1       6.687  14.143  22.062  0.00  0.00    +0.000 HD
ENDBRANCH  31  34
ENDBRANCH  30  31
ENDBRANCH  29  30
ENDBRANCH  28  29
ENDBRANCH  27  28
ENDBRANCH  26  27
ENDBRANCH  25  26
ENDBRANCH  24  25
ENDBRANCH   5  24
TORSDOF 12
ENDMDL
MODEL 7
REMARK VINA RESULT:      -7.5      8.059     11.238
REMARK  Name = 
REMARK  15 active torsions:
REMARK  status: ('A' for Active; 'I' for Inactive)
REMARK    1  A    between atoms: C_4  and  C_5
REMARK    2  A    between atoms: C_9  and  C_10
REMARK    3  A    between atoms: C_10  and  C_11
REMARK    4  A    between atoms: C_11  and  C_12
REMARK    5  A    between atoms: C_12  and  C_13
REMARK    6  A    between atoms: C_13  and  C_14
REMARK    7  A    between atoms: C_14  and  C_15
REMARK    8  A    between atoms: C_15  and  C_16
REMARK    9  A    between atoms: C_16  and  C_17
REMARK   10  A    between atoms: C_17  and  C_18
REMARK   11  A    between atoms: C_17  and  C_19
REMARK   12  A    between atoms: C_17  and  O_20
REMARK   13  A    between atoms: C_21  and  C_22
REMARK   14  A    between atoms: C_28  and  O_29
REMARK   15  A    between atoms: C_31  and  O_32
REMARK                            x       y       z     vdW  Elec       q    Type
REMARK                         _______ _______ _______ _____ _____    ______ ____
ROOT
ATOM      1  C   UNL     1       1.081   8.056  20.170  0.00  0.00    +0.000 C 
ATOM      2  C   UNL     1       0.124   8.848  20.691  0.00  0.00    +0.000 C 
ATOM      3  C   UNL     1      -0.462   8.688  22.081  0.00  0.00    +0.000 C 
ATOM      4  C   UNL     1      -0.477   9.995  22.877  0.00  0.00    +0.000 C 
ATOM      5  C   UNL     1      -1.062  11.202  22.104  0.00  0.00    +0.000 C 
ATOM      6  C   UNL     1      -0.367  11.351  20.708  0.00  0.00    +0.000 C 
ATOM      7  C   UNL     1       1.104  11.811  20.865  0.00  0.00    +0.000 C 
ATOM      8  C   UNL     1      -1.075  12.275  19.688  0.00  0.00    +0.000 C 
ATOM      9  C   UNL     1      -0.705  11.743  18.298  0.00  0.00    +0.000 C 
ATOM     10  C   UNL     1      -0.122  10.346  18.513  0.00  0.00    +0.000 C 
ATOM     11  C   UNL     1      -0.511  10.002  19.952  0.00  0.00    +0.000 C 
ENDROOT
BRANCH   1  15
ATOM     12  C   UNL     1       2.858   6.429  18.001  0.00  0.00    +0.000 C 
ATOM     13  C   UNL     1       2.239   5.542  18.804  0.00  0.00    +0.000 C 
ATOM     14  C   UNL     1       2.115   5.774  20.245  0.00  0.00    +0.000 C 
ATOM     15  C   UNL     1       1.630   6.890  20.826  0.00  0.00    +0.000 C 
ATOM     16  C   UNL     1       2.590   4.620  21.110  0.00  0.00    +0.000 C 
ATOM     17  C   UNL     1       1.997   3.278  20.668  0.00  0.00    +0.000 C 
ATOM     18  C   UNL     1       2.180   3.042  19.171  0.00  0.00    +0.000 C 
ATOM     19  C   UNL     1       1.663   4.215  18.332  0.00  0.00    +0.000 C 
BRANCH  17  20
ATOM     20  O   UNL     1       0.614   3.193  21.019  0.00  0.00    +0.000 OA
ATOM     21  H   UNL     1       0.132   2.767  20.289  0.00  0.00    +0.000 HD
ENDBRANCH  17  20
BRANCH  19  22
ATOM     22  O   UNL     1       1.980   3.961  16.963  0.00  0.00    +0.000 OA
ATOM     23  H   UNL     1       1.560   3.118  16.726  0.00  0.00    +0.000 HD
ENDBRANCH  19  22
ENDBRANCH   1  15
BRANCH   5  24
ATOM     24  C   UNL     1      -0.997  12.421  23.050  0.00  0.00    +0.000 C 
BRANCH  24  25
ATOM     25  C   UNL     1      -2.250  13.269  23.017  0.00  0.00    +0.000 C 
BRANCH  25  26
ATOM     26  C   UNL     1      -3.510  12.464  22.743  0.00  0.00    +0.000 C 
BRANCH  26  27
ATOM     27  C   UNL     1      -4.201  13.101  21.546  0.00  0.00    +0.000 C 
BRANCH  27  28
ATOM     28  C   UNL     1      -5.477  12.370  21.162  0.00  0.00    +0.000 C 
BRANCH  28  29
ATOM     29  C   UNL     1      -6.704  12.996  21.825  0.00  0.00    +0.000 C 
BRANCH  29  30
ATOM     30  C   UNL     1      -6.522  14.491  22.115  0.00  0.00    +0.000 C 
BRANCH  30  31
ATOM     31  C   UNL     1      -6.985  14.949  23.506  0.00  0.00    +0.000 C 
ATOM     32  C   UNL     1      -7.780  16.251  23.447  0.00  0.00    +0.000 C 
ATOM     33  C   UNL     1      -7.778  13.855  24.225  0.00  0.00    +0.000 C 
BRANCH  31  34
ATOM     34  O   UNL     1      -5.810  15.186  24.293  0.00  0.00    +0.000 OA
ATOM     35  H   UNL     1      -5.140  15.591  23.716  0.00  0.00    +0.000 HD
ENDBRANCH  31  34
ENDBRANCH  30  31
ENDBRANCH  29  30
ENDBRANCH  28  29
ENDBRANCH  27  28
ENDBRANCH  26  27
ENDBRANCH  25  26
ENDBRANCH  24  25
ENDBRANCH   5  24
TORSDOF 12
ENDMDL
MODEL 8
REMARK VINA RESULT:      -7.4      3.814      5.143
REMARK  Name = 
REMARK  15 active torsions:
REMARK  status: ('A' for Active; 'I' for Inactive)
REMARK    1  A    between atoms: C_4  and  C_5
REMARK    2  A    between atoms: C_9  and  C_10
REMARK    3  A    between atoms: C_10  and  C_11
REMARK    4  A    between atoms: C_11  and  C_12
REMARK    5  A    between atoms: C_12  and  C_13
REMARK    6  A    between atoms: C_13  and  C_14
REMARK    7  A    between atoms: C_14  and  C_15
REMARK    8  A    between atoms: C_15  and  C_16
REMARK    9  A    between atoms: C_16  and  C_17
REMARK   10  A    between atoms: C_17  and  C_18
REMARK   11  A    between atoms: C_17  and  C_19
REMARK   12  A    between atoms: C_17  and  O_20
REMARK   13  A    between atoms: C_21  and  C_22
REMARK   14  A    between atoms: C_28  and  O_29
REMARK   15  A    between atoms: C_31  and  O_32
REMARK                            x       y       z     vdW  Elec       q    Type
REMARK                         _______ _______ _______ _____ _____    ______ ____
ROOT
ATOM      1  C   UNL     1       1.669   7.536  18.897  0.00  0.00    +0.000 C 
ATOM      2  C   UNL     1       2.435   6.849  18.028  0.00  0.00    +0.000 C 
ATOM      3  C   UNL     1       3.354   7.487  17.002  0.00  0.00    +0.000 C 
ATOM      4  C   UNL     1       4.769   6.905  17.026  0.00  0.00    +0.000 C 
ATOM      5  C   UNL     1       4.820   5.357  17.011  0.00  0.00    +0.000 C 
ATOM      6  C   UNL     1       3.904   4.766  18.135  0.00  0.00    +0.000 C 
ATOM      7  C   UNL     1       4.494   5.048  19.540  0.00  0.00    +0.000 C 
ATOM      8  C   UNL     1       3.572   3.258  18.024  0.00  0.00    +0.000 C 
ATOM      9  C   UNL     1       2.206   3.068  18.695  0.00  0.00    +0.000 C 
ATOM     10  C   UNL     1       1.603   4.465  18.845  0.00  0.00    +0.000 C 
ATOM     11  C   UNL     1       2.474   5.342  17.944  0.00  0.00    +0.000 C 
ENDROOT
BRANCH   1  15
ATOM     12  C   UNL     1       1.589   8.473  21.999  0.00  0.00    +0.000 C 
ATOM     13  C   UNL     1       0.763   9.265  21.288  0.00  0.00    +0.000 C 
ATOM     14  C   UNL     1       1.129   9.744  19.953  0.00  0.00    +0.000 C 
ATOM     15  C   UNL     1       1.547   8.976  18.926  0.00  0.00    +0.000 C 
ATOM     16  C   UNL     1       1.004  11.246  19.769  0.00  0.00    +0.000 C 
ATOM     17  C   UNL     1      -0.351  11.781  20.245  0.00  0.00    +0.000 C 
ATOM     18  C   UNL     1      -0.685  11.303  21.655  0.00  0.00    +0.000 C 
ATOM     19  C   UNL     1      -0.576   9.781  21.793  0.00  0.00    +0.000 C 
BRANCH  17  20
ATOM     20  O   UNL     1      -1.390  11.414  19.335  0.00  0.00    +0.000 OA
ATOM     21  H   UNL     1      -2.016  10.828  19.797  0.00  0.00    +0.000 HD
ENDBRANCH  17  20
BRANCH  19  22
ATOM     22  O   UNL     1      -0.789   9.440  23.163  0.00  0.00    +0.000 OA
ATOM     23  H   UNL     1      -1.167   8.545  23.177  0.00  0.00    +0.000 HD
ENDBRANCH  19  22
ENDBRANCH   1  15
BRANCH   5  24
ATOM     24  C   UNL     1       6.309   4.951  17.038  0.00  0.00    +0.000 C 
BRANCH  24  25
ATOM     25  C   UNL     1       7.250   6.136  17.036  0.00  0.00    +0.000 C 
BRANCH  25  26
ATOM     26  C   UNL     1       7.370   6.809  18.393  0.00  0.00    +0.000 C 
BRANCH  26  27
ATOM     27  C   UNL     1       8.532   7.788  18.310  0.00  0.00    +0.000 C 
BRANCH  27  28
ATOM     28  C   UNL     1       8.065   9.221  18.113  0.00  0.00    +0.000 C 
BRANCH  28  29
ATOM     29  C   UNL     1       8.968  10.213  18.845  0.00  0.00    +0.000 C 
BRANCH  29  30
ATOM     30  C   UNL     1       9.790  11.083  17.887  0.00  0.00    +0.000 C 
BRANCH  30  31
ATOM     31  C   UNL     1       9.458  12.583  17.918  0.00  0.00    +0.000 C 
ATOM     32  C   UNL     1       9.101  13.063  19.323  0.00  0.00    +0.000 C 
ATOM     33  C   UNL     1      10.589  13.423  17.322  0.00  0.00    +0.000 C 
BRANCH  31  34
ATOM     34  O   UNL     1       8.313  12.786  17.080  0.00  0.00    +0.000 OA
ATOM     35  H   UNL     1       7.516  12.657  17.624  0.00  0.00    +0.000 HD
ENDBRANCH  31  34
ENDBRANCH  30  31
ENDBRANCH  29  30
ENDBRANCH  28  29
ENDBRANCH  27  28
ENDBRANCH  26  27
ENDBRANCH  25  26
ENDBRANCH  24  25
ENDBRANCH   5  24
TORSDOF 12
ENDMDL
MODEL 9
REMARK VINA RESULT:      -7.4      6.863      8.713
REMARK  Name = 
REMARK  15 active torsions:
REMARK  status: ('A' for Active; 'I' for Inactive)
REMARK    1  A    between atoms: C_4  and  C_5
REMARK    2  A    between atoms: C_9  and  C_10
REMARK    3  A    between atoms: C_10  and  C_11
REMARK    4  A    between atoms: C_11  and  C_12
REMARK    5  A    between atoms: C_12  and  C_13
REMARK    6  A    between atoms: C_13  and  C_14
REMARK    7  A    between atoms: C_14  and  C_15
REMARK    8  A    between atoms: C_15  and  C_16
REMARK    9  A    between atoms: C_16  and  C_17
REMARK   10  A    between atoms: C_17  and  C_18
REMARK   11  A    between atoms: C_17  and  C_19
REMARK   12  A    between atoms: C_17  and  O_20
REMARK   13  A    between atoms: C_21  and  C_22
REMARK   14  A    between atoms: C_28  and  O_29
REMARK   15  A    between atoms: C_31  and  O_32
REMARK                            x       y       z     vdW  Elec       q    Type
REMARK                         _______ _______ _______ _____ _____    ______ ____
ROOT
ATOM      1  C   UNL     1       1.202   7.962  20.173  0.00  0.00    +0.000 C 
ATOM      2  C   UNL     1       0.204   8.702  20.696  0.00  0.00    +0.000 C 
ATOM      3  C   UNL     1      -0.401   8.482  22.070  0.00  0.00    +0.000 C 
ATOM      4  C   UNL     1      -0.484   9.765  22.898  0.00  0.00    +0.000 C 
ATOM      5  C   UNL     1      -1.103  10.969  22.145  0.00  0.00    +0.000 C 
ATOM      6  C   UNL     1      -0.388  11.182  20.767  0.00  0.00    +0.000 C 
ATOM      7  C   UNL     1       1.060  11.696  20.965  0.00  0.00    +0.000 C 
ATOM      8  C   UNL     1      -1.113  12.103  19.757  0.00  0.00    +0.000 C 
ATOM      9  C   UNL     1      -0.696  11.623  18.362  0.00  0.00    +0.000 C 
ATOM     10  C   UNL     1      -0.062  10.245  18.552  0.00  0.00    +0.000 C 
ATOM     11  C   UNL     1      -0.464   9.848  19.974  0.00  0.00    +0.000 C 
ENDROOT
BRANCH   1  15
ATOM     12  C   UNL     1       2.768   6.255  17.906  0.00  0.00    +0.000 C 
ATOM     13  C   UNL     1       2.203   5.398  18.778  0.00  0.00    +0.000 C 
ATOM     14  C   UNL     1       2.203   5.665  20.219  0.00  0.00    +0.000 C 
ATOM     15  C   UNL     1       1.785   6.802  20.810  0.00  0.00    +0.000 C 
ATOM     16  C   UNL     1       2.730   4.523  21.069  0.00  0.00    +0.000 C 
ATOM     17  C   UNL     1       2.081   3.181  20.710  0.00  0.00    +0.000 C 
ATOM     18  C   UNL     1       2.136   2.908  19.210  0.00  0.00    +0.000 C 
ATOM     19  C   UNL     1       1.570   4.071  18.388  0.00  0.00    +0.000 C 
BRANCH  17  20
ATOM     20  O   UNL     1       0.732   3.129  21.177  0.00  0.00    +0.000 OA
ATOM     21  H   UNL     1       0.738   3.110  22.150  0.00  0.00    +0.000 HD
ENDBRANCH  17  20
BRANCH  19  22
ATOM     22  O   UNL     1       1.769   3.779  17.004  0.00  0.00    +0.000 OA
ATOM     23  H   UNL     1       1.357   4.500  16.500  0.00  0.00    +0.000 HD
ENDBRANCH  19  22
ENDBRANCH   1  15
BRANCH   5  24
ATOM     24  C   UNL     1      -1.105  12.164  23.122  0.00  0.00    +0.000 C 
BRANCH  24  25
ATOM     25  C   UNL     1      -2.435  12.882  23.183  0.00  0.00    +0.000 C 
BRANCH  25  26
ATOM     26  C   UNL     1      -2.361  14.322  22.702  0.00  0.00    +0.000 C 
BRANCH  26  27
ATOM     27  C   UNL     1      -1.292  15.020  23.531  0.00  0.00    +0.000 C 
BRANCH  27  28
ATOM     28  C   UNL     1      -0.368  15.873  22.678  0.00  0.00    +0.000 C 
BRANCH  28  29
ATOM     29  C   UNL     1      -0.398  15.442  21.212  0.00  0.00    +0.000 C 
BRANCH  29  30
ATOM     30  C   UNL     1       0.976  15.539  20.538  0.00  0.00    +0.000 C 
BRANCH  30  31
ATOM     31  C   UNL     1       0.955  15.504  19.002  0.00  0.00    +0.000 C 
ATOM     32  C   UNL     1       1.459  16.810  18.391  0.00  0.00    +0.000 C 
ATOM     33  C   UNL     1       1.735  14.306  18.455  0.00  0.00    +0.000 C 
BRANCH  31  34
ATOM     34  O   UNL     1      -0.408  15.324  18.595  0.00  0.00    +0.000 OA
ATOM     35  H   UNL     1      -0.536  15.802  17.757  0.00  0.00    +0.000 HD
ENDBRANCH  31  34
ENDBRANCH  30  31
ENDBRANCH  29  30
ENDBRANCH  28  29
ENDBRANCH  27  28
ENDBRANCH  26  27
ENDBRANCH  25  26
ENDBRANCH  24  25
ENDBRANCH   5  24
TORSDOF 12
ENDMDL
