MODEL 1
REMARK VINA RESULT:      -7.8      0.000      0.000
REMARK  Name = 
REMARK  12 active torsions:
REMARK  status: ('A' for Active; 'I' for Inactive)
REMARK    1  A    between atoms: C_1  and  O_2
REMARK    2  A    between atoms: O_2  and  C_3
REMARK    3  A    between atoms: C_8  and  C_9
REMARK    4  A    between atoms: C_10  and  C_11
REMARK    5  A    between atoms: N_13  and  C_14
REMARK    6  A    between atoms: C_14  and  C_15
REMARK    7  A    between atoms: C_15  and  C_16
REMARK    8  A    between atoms: C_16  and  C_17
REMARK    9  A    between atoms: C_17  and  N_18
REMARK   10  A    between atoms: N_21  and  C_22
REMARK   11  A    between atoms: C_27  and  O_28
REMARK   12  A    between atoms: O_28  and  C_29
REMARK                            x       y       z     vdW  Elec       q    Type
REMARK                         _______ _______ _______ _____ _____    ______ ____
ROOT
ATOM      1  C   UNL     1       8.397   8.138  18.507  0.00  0.00    +0.000 C 
ENDROOT
BRANCH   1   2
ATOM      2  C   UNL     1       7.575   7.431  17.427  0.00  0.00    +0.000 C 
BRANCH   2   5
ATOM      3  C   UNL     1       6.750   5.154  17.711  0.00  0.00    +0.000 C 
ATOM      4  O   UNL     1       7.634   4.656  17.034  0.00  0.00    +0.000 OA
ATOM      5  N   UNL     1       6.650   6.505  17.995  0.00  0.00    +0.000 N 
ATOM      6  H   UNL     1       5.840   6.859  18.482  0.00  0.00    +0.000 HD
BRANCH   3   8
ATOM      7  C   UNL     1       4.381   4.777  17.954  0.00  0.00    +0.000 C 
ATOM      8  C   UNL     1       5.625   4.407  18.270  0.00  0.00    +0.000 C 
BRANCH   7  14
ATOM      9  C   UNL     1       2.408   4.714  19.582  0.00  0.00    +0.000 A 
ATOM     10  C   UNL     1       1.257   4.049  20.009  0.00  0.00    +0.000 A 
ATOM     11  C   UNL     1       0.831   2.881  19.380  0.00  0.00    +0.000 A 
ATOM     12  C   UNL     1       1.559   2.359  18.324  0.00  0.00    +0.000 A 
ATOM     13  C   UNL     1       2.721   2.994  17.897  0.00  0.00    +0.000 A 
ATOM     14  C   UNL     1       3.172   4.167  18.527  0.00  0.00    +0.000 A 
BRANCH   9  16
ATOM     15  C   UNL     1       2.169   7.072  19.777  0.00  0.00    +0.000 C 
ATOM     16  O   UNL     1       2.845   5.879  20.170  0.00  0.00    +0.000 OA
ENDBRANCH   9  16
ENDBRANCH   7  14
ENDBRANCH   3   8
ENDBRANCH   2   5
ENDBRANCH   1   2
BRANCH   1  17
ATOM     17  C   UNL     1       8.598   9.605  18.153  0.00  0.00    +0.000 C 
BRANCH  17  18
ATOM     18  C   UNL     1       9.218  10.338  19.339  0.00  0.00    +0.000 C 
BRANCH  18  19
ATOM     19  N   UNL     1      10.462  11.040  19.045  0.00  0.00    +0.000 NA
ATOM     20  C   UNL     1      10.460  11.700  17.715  0.00  0.00    +0.000 C 
ATOM     21  C   UNL     1       9.493  12.891  17.567  0.00  0.00    +0.000 C 
ATOM     22  N   UNL     1       9.798  13.881  18.612  0.00  0.00    +0.000 N 
ATOM     23  C   UNL     1       9.694  13.341  19.971  0.00  0.00    +0.000 C 
ATOM     24  C   UNL     1      10.635  12.088  20.091  0.00  0.00    +0.000 C 
BRANCH  22  25
ATOM     25  C   UNL     1       9.858  15.226  18.292  0.00  0.00    +0.000 A 
ATOM     26  C   UNL     1      10.951  15.675  17.503  0.00  0.00    +0.000 A 
ATOM     27  C   UNL     1      11.200  17.021  17.225  0.00  0.00    +0.000 A 
ATOM     28  C   UNL     1      10.338  17.984  17.710  0.00  0.00    +0.000 A 
ATOM     29  C   UNL     1       9.216  17.584  18.429  0.00  0.00    +0.000 A 
ATOM     30  C   UNL     1       8.961  16.228  18.726  0.00  0.00    +0.000 A 
BRANCH  30  31
ATOM     31  O   UNL     1       7.778  16.102  19.407  0.00  0.00    +0.000 OA
ATOM     32  C   UNL     1       6.566  16.249  18.696  0.00  0.00    +0.000 C 
ENDBRANCH  30  31
ENDBRANCH  22  25
ENDBRANCH  18  19
ENDBRANCH  17  18
ENDBRANCH   1  17
TORSDOF 10
ENDMDL
MODEL 2
REMARK VINA RESULT:      -7.5      5.903     10.268
REMARK  Name = 
REMARK  12 active torsions:
REMARK  status: ('A' for Active; 'I' for Inactive)
REMARK    1  A    between atoms: C_1  and  O_2
REMARK    2  A    between atoms: O_2  and  C_3
REMARK    3  A    between atoms: C_8  and  C_9
REMARK    4  A    between atoms: C_10  and  C_11
REMARK    5  A    between atoms: N_13  and  C_14
REMARK    6  A    between atoms: C_14  and  C_15
REMARK    7  A    between atoms: C_15  and  C_16
REMARK    8  A    between atoms: C_16  and  C_17
REMARK    9  A    between atoms: C_17  and  N_18
REMARK   10  A    between atoms: N_21  and  C_22
REMARK   11  A    between atoms: C_27  and  O_28
REMARK   12  A    between atoms: O_28  and  C_29
REMARK                            x       y       z     vdW  Elec       q    Type
REMARK                         _______ _______ _______ _____ _____    ______ ____
ROOT
ATOM      1  C   UNL     1       1.862   3.944  21.822  0.00  0.00    +0.000 C 
ENDROOT
BRANCH   1   2
ATOM      2  C   UNL     1       1.883   5.000  20.715  0.00  0.00    +0.000 C 
BRANCH   2   5
ATOM      3  C   UNL     1       1.809   7.430  20.521  0.00  0.00    +0.000 C 
ATOM      4  O   UNL     1       2.426   7.452  19.469  0.00  0.00    +0.000 OA
ATOM      5  N   UNL     1       1.459   6.273  21.198  0.00  0.00    +0.000 N 
ATOM      6  H   UNL     1       1.032   6.333  22.111  0.00  0.00    +0.000 HD
BRANCH   3   8
ATOM      7  C   UNL     1       0.597   9.509  20.668  0.00  0.00    +0.000 C 
ATOM      8  C   UNL     1       1.402   8.623  21.260  0.00  0.00    +0.000 C 
BRANCH   7  14
ATOM      9  C   UNL     1       0.586  12.065  20.802  0.00  0.00    +0.000 A 
ATOM     10  C   UNL     1       0.106  13.205  21.448  0.00  0.00    +0.000 A 
ATOM     11  C   UNL     1      -0.781  13.102  22.518  0.00  0.00    +0.000 A 
ATOM     12  C   UNL     1      -1.188  11.855  22.961  0.00  0.00    +0.000 A 
ATOM     13  C   UNL     1      -0.705  10.705  22.345  0.00  0.00    +0.000 A 
ATOM     14  C   UNL     1       0.199  10.789  21.272  0.00  0.00    +0.000 A 
BRANCH   9  16
ATOM     15  C   UNL     1       2.070  13.398  19.508  0.00  0.00    +0.000 C 
ATOM     16  O   UNL     1       1.448  12.134  19.732  0.00  0.00    +0.000 OA
ENDBRANCH   9  16
ENDBRANCH   7  14
ENDBRANCH   3   8
ENDBRANCH   2   5
ENDBRANCH   1   2
BRANCH   1  17
ATOM     17  C   UNL     1       2.225   2.574  21.264  0.00  0.00    +0.000 C 
BRANCH  17  18
ATOM     18  C   UNL     1       1.716   2.454  19.830  0.00  0.00    +0.000 C 
BRANCH  18  19
ATOM     19  N   UNL     1       2.561   1.665  18.942  0.00  0.00    +0.000 NA
ATOM     20  C   UNL     1       2.434   2.057  17.515  0.00  0.00    +0.000 C 
ATOM     21  C   UNL     1       2.980   3.453  17.159  0.00  0.00    +0.000 C 
ATOM     22  N   UNL     1       4.391   3.528  17.571  0.00  0.00    +0.000 N 
ATOM     23  C   UNL     1       4.592   3.283  19.002  0.00  0.00    +0.000 C 
ATOM     24  C   UNL     1       3.973   1.884  19.367  0.00  0.00    +0.000 C 
BRANCH  22  25
ATOM     25  C   UNL     1       5.330   4.084  16.719  0.00  0.00    +0.000 A 
ATOM     26  C   UNL     1       4.985   4.222  15.348  0.00  0.00    +0.000 A 
ATOM     27  C   UNL     1       5.884   4.639  14.365  0.00  0.00    +0.000 A 
ATOM     28  C   UNL     1       7.178   4.966  14.723  0.00  0.00    +0.000 A 
ATOM     29  C   UNL     1       7.539   4.910  16.065  0.00  0.00    +0.000 A 
ATOM     30  C   UNL     1       6.642   4.478  17.065  0.00  0.00    +0.000 A 
BRANCH  30  31
ATOM     31  O   UNL     1       7.230   4.555  18.301  0.00  0.00    +0.000 OA
ATOM     32  C   UNL     1       7.625   5.821  18.789  0.00  0.00    +0.000 C 
ENDBRANCH  30  31
ENDBRANCH  22  25
ENDBRANCH  18  19
ENDBRANCH  17  18
ENDBRANCH   1  17
TORSDOF 10
ENDMDL
MODEL 3
REMARK VINA RESULT:      -7.5      3.430      9.875
REMARK  Name = 
REMARK  12 active torsions:
REMARK  status: ('A' for Active; 'I' for Inactive)
REMARK    1  A    between atoms: C_1  and  O_2
REMARK    2  A    between atoms: O_2  and  C_3
REMARK    3  A    between atoms: C_8  and  C_9
REMARK    4  A    between atoms: C_10  and  C_11
REMARK    5  A    between atoms: N_13  and  C_14
REMARK    6  A    between atoms: C_14  and  C_15
REMARK    7  A    between atoms: C_15  and  C_16
REMARK    8  A    between atoms: C_16  and  C_17
REMARK    9  A    between atoms: C_17  and  N_18
REMARK   10  A    between atoms: N_21  and  C_22
REMARK   11  A    between atoms: C_27  and  O_28
REMARK   12  A    between atoms: O_28  and  C_29
REMARK                            x       y       z     vdW  Elec       q    Type
REMARK                         _______ _______ _______ _____ _____    ______ ____
ROOT
ATOM      1  C   UNL     1       5.965   4.810  18.668  0.00  0.00    +0.000 C 
ENDROOT
BRANCH   1   2
ATOM      2  C   UNL     1       6.773   5.540  17.594  0.00  0.00    +0.000 C 
BRANCH   2   5
ATOM      3  C   UNL     1       7.626   7.821  17.716  0.00  0.00    +0.000 C 
ATOM      4  O   UNL     1       6.851   8.250  16.877  0.00  0.00    +0.000 OA
ATOM      5  N   UNL     1       7.647   6.512  18.165  0.00  0.00    +0.000 N 
ATOM      6  H   UNL     1       8.377   6.205  18.791  0.00  0.00    +0.000 HD
BRANCH   3   8
ATOM      7  C   UNL     1       8.627   9.944  18.272  0.00  0.00    +0.000 C 
ATOM      8  C   UNL     1       8.694   8.611  18.326  0.00  0.00    +0.000 C 
BRANCH   7  14
ATOM      9  C   UNL     1       9.869  11.216  20.112  0.00  0.00    +0.000 A 
ATOM     10  C   UNL     1      10.938  12.048  20.449  0.00  0.00    +0.000 A 
ATOM     11  C   UNL     1      11.845  12.475  19.481  0.00  0.00    +0.000 A 
ATOM     12  C   UNL     1      11.686  12.083  18.162  0.00  0.00    +0.000 A 
ATOM     13  C   UNL     1      10.615  11.271  17.802  0.00  0.00    +0.000 A 
ATOM     14  C   UNL     1       9.684  10.840  18.762  0.00  0.00    +0.000 A 
BRANCH   9  16
ATOM     15  C   UNL     1       8.494  11.730  21.983  0.00  0.00    +0.000 C 
ATOM     16  O   UNL     1       8.967  10.763  21.047  0.00  0.00    +0.000 OA
ENDBRANCH   9  16
ENDBRANCH   7  14
ENDBRANCH   3   8
ENDBRANCH   2   5
ENDBRANCH   1   2
BRANCH   1  17
ATOM     17  C   UNL     1       4.703   4.203  18.070  0.00  0.00    +0.000 C 
BRANCH  17  18
ATOM     18  C   UNL     1       3.645   4.044  19.158  0.00  0.00    +0.000 C 
BRANCH  18  19
ATOM     19  N   UNL     1       2.311   4.506  18.790  0.00  0.00    +0.000 NA
ATOM     20  C   UNL     1       1.419   4.706  19.961  0.00  0.00    +0.000 C 
ATOM     21  C   UNL     1       1.805   5.865  20.900  0.00  0.00    +0.000 C 
ATOM     22  N   UNL     1       1.877   7.107  20.113  0.00  0.00    +0.000 N 
ATOM     23  C   UNL     1       2.839   7.040  19.009  0.00  0.00    +0.000 C 
ATOM     24  C   UNL     1       2.474   5.814  18.094  0.00  0.00    +0.000 C 
BRANCH  22  25
ATOM     25  C   UNL     1       1.310   8.269  20.605  0.00  0.00    +0.000 A 
ATOM     26  C   UNL     1       1.023   8.333  21.995  0.00  0.00    +0.000 A 
ATOM     27  C   UNL     1       0.331   9.389  22.592  0.00  0.00    +0.000 A 
ATOM     28  C   UNL     1      -0.084  10.453  21.816  0.00  0.00    +0.000 A 
ATOM     29  C   UNL     1       0.236  10.464  20.462  0.00  0.00    +0.000 A 
ATOM     30  C   UNL     1       0.925   9.397  19.846  0.00  0.00    +0.000 A 
BRANCH  30  31
ATOM     31  O   UNL     1       1.149   9.674  18.522  0.00  0.00    +0.000 OA
ATOM     32  C   UNL     1       0.041   9.768  17.650  0.00  0.00    +0.000 C 
ENDBRANCH  30  31
ENDBRANCH  22  25
ENDBRANCH  18  19
ENDBRANCH  17  18
ENDBRANCH   1  17
TORSDOF 10
ENDMDL
MODEL 4
REMARK VINA RESULT:      -7.5      1.498      1.741
REMARK  Name = 
REMARK  12 active torsions:
REMARK  status: ('A' for Active; 'I' for Inactive)
REMARK    1  A    between atoms: C_1  and  O_2
REMARK    2  A    between atoms: O_2  and  C_3
REMARK    3  A    between atoms: C_8  and  C_9
REMARK    4  A    between atoms: C_10  and  C_11
REMARK    5  A    between atoms: N_13  and  C_14
REMARK    6  A    between atoms: C_14  and  C_15
REMARK    7  A    between atoms: C_15  and  C_16
REMARK    8  A    between atoms: C_16  and  C_17
REMARK    9  A    between atoms: C_17  and  N_18
REMARK   10  A    between atoms: N_21  and  C_22
REMARK   11  A    between atoms: C_27  and  O_28
REMARK   12  A    between atoms: O_28  and  C_29
REMARK                            x       y       z     vdW  Elec       q    Type
REMARK                         _______ _______ _______ _____ _____    ______ ____
ROOT
ATOM      1  C   UNL     1       7.997   8.851  17.826  0.00  0.00    +0.000 C 
ENDROOT
BRANCH   1   2
ATOM      2  C   UNL     1       8.281   7.402  18.227  0.00  0.00    +0.000 C 
BRANCH   2   5
ATOM      3  C   UNL     1       6.864   5.992  16.830  0.00  0.00    +0.000 C 
ATOM      4  O   UNL     1       7.592   6.076  15.855  0.00  0.00    +0.000 OA
ATOM      5  N   UNL     1       7.129   6.577  18.057  0.00  0.00    +0.000 N 
ATOM      6  H   UNL     1       6.437   6.545  18.790  0.00  0.00    +0.000 HD
BRANCH   3   8
ATOM      7  C   UNL     1       4.990   5.027  18.000  0.00  0.00    +0.000 C 
ATOM      8  C   UNL     1       5.570   5.314  16.832  0.00  0.00    +0.000 C 
BRANCH   7  14
ATOM      9  C   UNL     1       2.455   4.833  18.292  0.00  0.00    +0.000 A 
ATOM     10  C   UNL     1       1.342   3.995  18.369  0.00  0.00    +0.000 A 
ATOM     11  C   UNL     1       1.477   2.613  18.245  0.00  0.00    +0.000 A 
ATOM     12  C   UNL     1       2.730   2.055  18.054  0.00  0.00    +0.000 A 
ATOM     13  C   UNL     1       3.855   2.871  17.997  0.00  0.00    +0.000 A 
ATOM     14  C   UNL     1       3.739   4.265  18.132  0.00  0.00    +0.000 A 
BRANCH   9  16
ATOM     15  C   UNL     1       2.330   6.734  19.716  0.00  0.00    +0.000 C 
ATOM     16  O   UNL     1       2.353   6.202  18.393  0.00  0.00    +0.000 OA
ENDBRANCH   9  16
ENDBRANCH   7  14
ENDBRANCH   3   8
ENDBRANCH   2   5
ENDBRANCH   1   2
BRANCH   1  17
ATOM     17  C   UNL     1       8.726   9.816  18.751  0.00  0.00    +0.000 C 
BRANCH  17  18
ATOM     18  C   UNL     1       9.520  10.821  17.922  0.00  0.00    +0.000 C 
BRANCH  18  19
ATOM     19  N   UNL     1      10.660  11.418  18.606  0.00  0.00    +0.000 NA
ATOM     20  C   UNL     1      11.477  12.293  17.725  0.00  0.00    +0.000 C 
ATOM     21  C   UNL     1      10.792  13.592  17.261  0.00  0.00    +0.000 C 
ATOM     22  N   UNL     1      10.357  14.348  18.447  0.00  0.00    +0.000 N 
ATOM     23  C   UNL     1       9.437  13.599  19.308  0.00  0.00    +0.000 C 
ATOM     24  C   UNL     1      10.121  12.246  19.723  0.00  0.00    +0.000 C 
BRANCH  22  25
ATOM     25  C   UNL     1      10.578  15.713  18.514  0.00  0.00    +0.000 A 
ATOM     26  C   UNL     1      10.181  16.506  17.404  0.00  0.00    +0.000 A 
ATOM     27  C   UNL     1      10.467  17.868  17.288  0.00  0.00    +0.000 A 
ATOM     28  C   UNL     1      11.149  18.507  18.306  0.00  0.00    +0.000 A 
ATOM     29  C   UNL     1      11.497  17.783  19.441  0.00  0.00    +0.000 A 
ATOM     30  C   UNL     1      11.223  16.404  19.564  0.00  0.00    +0.000 A 
BRANCH  30  31
ATOM     31  O   UNL     1      11.629  15.942  20.789  0.00  0.00    +0.000 OA
ATOM     32  C   UNL     1      10.792  16.155  21.907  0.00  0.00    +0.000 C 
ENDBRANCH  30  31
ENDBRANCH  22  25
ENDBRANCH  18  19
ENDBRANCH  17  18
ENDBRANCH   1  17
TORSDOF 10
ENDMDL
MODEL 5
REMARK VINA RESULT:      -7.3      2.411     11.682
REMARK  Name = 
REMARK  12 active torsions:
REMARK  status: ('A' for Active; 'I' for Inactive)
REMARK    1  A    between atoms: C_1  and  O_2
REMARK    2  A    between atoms: O_2  and  C_3
REMARK    3  A    between atoms: C_8  and  C_9
REMARK    4  A    between atoms: C_10  and  C_11
REMARK    5  A    between atoms: N_13  and  C_14
REMARK    6  A    between atoms: C_14  and  C_15
REMARK    7  A    between atoms: C_15  and  C_16
REMARK    8  A    between atoms: C_16  and  C_17
REMARK    9  A    between atoms: C_17  and  N_18
REMARK   10  A    between atoms: N_21  and  C_22
REMARK   11  A    between atoms: C_27  and  O_28
REMARK   12  A    between atoms: O_28  and  C_29
REMARK                            x       y       z     vdW  Elec       q    Type
REMARK                         _______ _______ _______ _____ _____    ______ ____
ROOT
ATOM      1  C   UNL     1       8.708   9.374  18.666  0.00  0.00    +0.000 C 
ENDROOT
BRANCH   1   2
ATOM      2  C   UNL     1       9.029  10.747  18.072  0.00  0.00    +0.000 C 
BRANCH   2   5
ATOM      3  C   UNL     1      10.717  11.860  19.436  0.00  0.00    +0.000 C 
ATOM      4  O   UNL     1      11.653  11.300  18.889  0.00  0.00    +0.000 OA
ATOM      5  N   UNL     1       9.389  11.684  19.085  0.00  0.00    +0.000 N 
ATOM      6  H   UNL     1       8.661  12.106  19.643  0.00  0.00    +0.000 HD
BRANCH   3   8
ATOM      7  C   UNL     1       9.908  13.669  20.809  0.00  0.00    +0.000 C 
ATOM      8  C   UNL     1      10.851  12.749  20.587  0.00  0.00    +0.000 C 
BRANCH   7  14
ATOM      9  C   UNL     1      10.766  15.854  21.828  0.00  0.00    +0.000 A 
ATOM     10  C   UNL     1      10.715  16.752  22.895  0.00  0.00    +0.000 A 
ATOM     11  C   UNL     1       9.870  16.527  23.980  0.00  0.00    +0.000 A 
ATOM     12  C   UNL     1       9.073  15.394  24.014  0.00  0.00    +0.000 A 
ATOM     13  C   UNL     1       9.125  14.476  22.971  0.00  0.00    +0.000 A 
ATOM     14  C   UNL     1       9.980  14.680  21.874  0.00  0.00    +0.000 A 
BRANCH   9  16
ATOM     15  C   UNL     1      11.207  17.128  19.869  0.00  0.00    +0.000 C 
ATOM     16  O   UNL     1      11.577  16.056  20.735  0.00  0.00    +0.000 OA
ENDBRANCH   9  16
ENDBRANCH   7  14
ENDBRANCH   3   8
ENDBRANCH   2   5
ENDBRANCH   1   2
BRANCH   1  17
ATOM     17  C   UNL     1       7.986   8.504  17.645  0.00  0.00    +0.000 C 
BRANCH  17  18
ATOM     18  C   UNL     1       7.899   7.071  18.163  0.00  0.00    +0.000 C 
BRANCH  18  19
ATOM     19  N   UNL     1       7.406   6.098  17.196  0.00  0.00    +0.000 NA
ATOM     20  C   UNL     1       7.258   4.733  17.764  0.00  0.00    +0.000 C 
ATOM     21  C   UNL     1       6.152   4.573  18.825  0.00  0.00    +0.000 C 
ATOM     22  N   UNL     1       4.872   5.010  18.244  0.00  0.00    +0.000 N 
ATOM     23  C   UNL     1       4.892   6.398  17.775  0.00  0.00    +0.000 C 
ATOM     24  C   UNL     1       6.065   6.566  16.742  0.00  0.00    +0.000 C 
BRANCH  22  25
ATOM     25  C   UNL     1       3.731   4.251  18.440  0.00  0.00    +0.000 A 
ATOM     26  C   UNL     1       3.530   3.122  17.601  0.00  0.00    +0.000 A 
ATOM     27  C   UNL     1       2.362   2.357  17.605  0.00  0.00    +0.000 A 
ATOM     28  C   UNL     1       1.343   2.679  18.480  0.00  0.00    +0.000 A 
ATOM     29  C   UNL     1       1.525   3.735  19.367  0.00  0.00    +0.000 A 
ATOM     30  C   UNL     1       2.697   4.522  19.364  0.00  0.00    +0.000 A 
BRANCH  30  31
ATOM     31  O   UNL     1       2.642   5.465  20.357  0.00  0.00    +0.000 OA
ATOM     32  C   UNL     1       2.059   6.720  20.071  0.00  0.00    +0.000 C 
ENDBRANCH  30  31
ENDBRANCH  22  25
ENDBRANCH  18  19
ENDBRANCH  17  18
ENDBRANCH   1  17
TORSDOF 10
ENDMDL
MODEL 6
REMARK VINA RESULT:      -7.3      4.974      7.693
REMARK  Name = 
REMARK  12 active torsions:
REMARK  status: ('A' for Active; 'I' for Inactive)
REMARK    1  A    between atoms: C_1  and  O_2
REMARK    2  A    between atoms: O_2  and  C_3
REMARK    3  A    between atoms: C_8  and  C_9
REMARK    4  A    between atoms: C_10  and  C_11
REMARK    5  A    between atoms: N_13  and  C_14
REMARK    6  A    between atoms: C_14  and  C_15
REMARK    7  A    between atoms: C_15  and  C_16
REMARK    8  A    between atoms: C_16  and  C_17
REMARK    9  A    between atoms: C_17  and  N_18
REMARK   10  A    between atoms: N_21  and  C_22
REMARK   11  A    between atoms: C_27  and  O_28
REMARK   12  A    between atoms: O_28  and  C_29
REMARK                            x       y       z     vdW  Elec       q    Type
REMARK                         _______ _______ _______ _____ _____    ______ ____
ROOT
ATOM      1  C   UNL     1      -0.068   9.348  22.928  0.00  0.00    +0.000 C 
ENDROOT
BRANCH   1   2
ATOM      2  C   UNL     1       1.162   9.544  22.039  0.00  0.00    +0.000 C 
BRANCH   2   5
ATOM      3  C   UNL     1       1.795   8.020  20.244  0.00  0.00    +0.000 C 
ATOM      4  O   UNL     1       1.513   8.808  19.357  0.00  0.00    +0.000 OA
ATOM      5  N   UNL     1       1.693   8.296  21.597  0.00  0.00    +0.000 N 
ATOM      6  H   UNL     1       1.854   7.565  22.274  0.00  0.00    +0.000 HD
BRANCH   3   8
ATOM      7  C   UNL     1       2.211   6.160  18.767  0.00  0.00    +0.000 C 
ATOM      8  C   UNL     1       2.222   6.642  20.012  0.00  0.00    +0.000 C 
BRANCH   7  14
ATOM      9  C   UNL     1       3.814   4.276  18.111  0.00  0.00    +0.000 A 
ATOM     10  C   UNL     1       3.980   2.918  17.836  0.00  0.00    +0.000 A 
ATOM     11  C   UNL     1       2.904   2.036  17.907  0.00  0.00    +0.000 A 
ATOM     12  C   UNL     1       1.645   2.507  18.244  0.00  0.00    +0.000 A 
ATOM     13  C   UNL     1       1.453   3.860  18.500  0.00  0.00    +0.000 A 
ATOM     14  C   UNL     1       2.525   4.766  18.422  0.00  0.00    +0.000 A 
BRANCH   9  16
ATOM     15  C   UNL     1       5.827   5.055  19.108  0.00  0.00    +0.000 C 
ATOM     16  O   UNL     1       4.860   5.169  18.066  0.00  0.00    +0.000 OA
ENDBRANCH   9  16
ENDBRANCH   7  14
ENDBRANCH   3   8
ENDBRANCH   2   5
ENDBRANCH   1   2
BRANCH   1  17
ATOM     17  C   UNL     1      -0.933  10.601  22.931  0.00  0.00    +0.000 C 
BRANCH  17  18
ATOM     18  C   UNL     1      -0.849  11.285  21.570  0.00  0.00    +0.000 C 
BRANCH  18  19
ATOM     19  N   UNL     1      -1.396  12.636  21.525  0.00  0.00    +0.000 NA
ATOM     20  C   UNL     1      -0.448  13.666  22.020  0.00  0.00    +0.000 C 
ATOM     21  C   UNL     1       0.795  13.901  21.141  0.00  0.00    +0.000 C 
ATOM     22  N   UNL     1       0.354  14.246  19.780  0.00  0.00    +0.000 N 
ATOM     23  C   UNL     1      -0.485  13.214  19.163  0.00  0.00    +0.000 C 
ATOM     24  C   UNL     1      -1.716  12.935  20.100  0.00  0.00    +0.000 C 
BRANCH  22  25
ATOM     25  C   UNL     1       0.957  15.291  19.103  0.00  0.00    +0.000 A 
ATOM     26  C   UNL     1       0.172  16.441  18.818  0.00  0.00    +0.000 A 
ATOM     27  C   UNL     1       0.619  17.502  18.028  0.00  0.00    +0.000 A 
ATOM     28  C   UNL     1       1.897  17.469  17.506  0.00  0.00    +0.000 A 
ATOM     29  C   UNL     1       2.724  16.394  17.816  0.00  0.00    +0.000 A 
ATOM     30  C   UNL     1       2.279  15.310  18.604  0.00  0.00    +0.000 A 
BRANCH  30  31
ATOM     31  O   UNL     1       3.294  14.409  18.793  0.00  0.00    +0.000 OA
ATOM     32  C   UNL     1       4.529  14.629  18.142  0.00  0.00    +0.000 C 
ENDBRANCH  30  31
ENDBRANCH  22  25
ENDBRANCH  18  19
ENDBRANCH  17  18
ENDBRANCH   1  17
TORSDOF 10
ENDMDL
MODEL 7
REMARK VINA RESULT:      -7.2      1.528     11.951
REMARK  Name = 
REMARK  12 active torsions:
REMARK  status: ('A' for Active; 'I' for Inactive)
REMARK    1  A    between atoms: C_1  and  O_2
REMARK    2  A    between atoms: O_2  and  C_3
REMARK    3  A    between atoms: C_8  and  C_9
REMARK    4  A    between atoms: C_10  and  C_11
REMARK    5  A    between atoms: N_13  and  C_14
REMARK    6  A    between atoms: C_14  and  C_15
REMARK    7  A    between atoms: C_15  and  C_16
REMARK    8  A    between atoms: C_16  and  C_17
REMARK    9  A    between atoms: C_17  and  N_18
REMARK   10  A    between atoms: N_21  and  C_22
REMARK   11  A    between atoms: C_27  and  O_28
REMARK   12  A    between atoms: O_28  and  C_29
REMARK                            x       y       z     vdW  Elec       q    Type
REMARK                         _______ _______ _______ _____ _____    ______ ____
ROOT
ATOM      1  C   UNL     1       7.932   9.536  18.126  0.00  0.00    +0.000 C 
ENDROOT
BRANCH   1   2
ATOM      2  C   UNL     1       9.220  10.218  18.592  0.00  0.00    +0.000 C 
BRANCH   2   5
ATOM      3  C   UNL     1      10.569  12.090  17.801  0.00  0.00    +0.000 C 
ATOM      4  O   UNL     1      11.625  11.489  17.910  0.00  0.00    +0.000 OA
ATOM      5  N   UNL     1       9.326  11.544  18.077  0.00  0.00    +0.000 N 
ATOM      6  H   UNL     1       8.504  12.128  18.056  0.00  0.00    +0.000 HD
BRANCH   3   8
ATOM      7  C   UNL     1      10.490  14.428  18.386  0.00  0.00    +0.000 C 
ATOM      8  C   UNL     1      10.461  13.498  17.427  0.00  0.00    +0.000 C 
BRANCH   7  14
ATOM      9  C   UNL     1       9.151  16.604  18.521  0.00  0.00    +0.000 A 
ATOM     10  C   UNL     1       9.108  17.975  18.263  0.00  0.00    +0.000 A 
ATOM     11  C   UNL     1      10.192  18.628  17.679  0.00  0.00    +0.000 A 
ATOM     12  C   UNL     1      11.327  17.913  17.336  0.00  0.00    +0.000 A 
ATOM     13  C   UNL     1      11.382  16.542  17.565  0.00  0.00    +0.000 A 
ATOM     14  C   UNL     1      10.294  15.865  18.143  0.00  0.00    +0.000 A 
BRANCH   9  16
ATOM     15  C   UNL     1       6.799  16.282  18.657  0.00  0.00    +0.000 C 
ATOM     16  O   UNL     1       8.105  15.934  19.113  0.00  0.00    +0.000 OA
ENDBRANCH   9  16
ENDBRANCH   7  14
ENDBRANCH   3   8
ENDBRANCH   2   5
ENDBRANCH   1   2
BRANCH   1  17
ATOM     17  C   UNL     1       8.251   8.310  17.281  0.00  0.00    +0.000 C 
BRANCH  17  18
ATOM     18  C   UNL     1       7.512   7.097  17.838  0.00  0.00    +0.000 C 
BRANCH  18  19
ATOM     19  N   UNL     1       6.834   6.278  16.839  0.00  0.00    +0.000 NA
ATOM     20  C   UNL     1       6.845   4.830  17.167  0.00  0.00    +0.000 C 
ATOM     21  C   UNL     1       6.009   4.420  18.395  0.00  0.00    +0.000 C 
ATOM     22  N   UNL     1       4.623   4.874  18.197  0.00  0.00    +0.000 N 
ATOM     23  C   UNL     1       4.509   6.321  17.997  0.00  0.00    +0.000 C 
ATOM     24  C   UNL     1       5.417   6.738  16.782  0.00  0.00    +0.000 C 
BRANCH  22  25
ATOM     25  C   UNL     1       3.570   4.026  18.493  0.00  0.00    +0.000 A 
ATOM     26  C   UNL     1       3.335   2.927  17.624  0.00  0.00    +0.000 A 
ATOM     27  C   UNL     1       2.231   2.080  17.733  0.00  0.00    +0.000 A 
ATOM     28  C   UNL     1       1.317   2.284  18.749  0.00  0.00    +0.000 A 
ATOM     29  C   UNL     1       1.545   3.306  19.664  0.00  0.00    +0.000 A 
ATOM     30  C   UNL     1       2.652   4.176  19.556  0.00  0.00    +0.000 A 
BRANCH  30  31
ATOM     31  O   UNL     1       2.666   5.064  20.601  0.00  0.00    +0.000 OA
ATOM     32  C   UNL     1       1.621   6.009  20.704  0.00  0.00    +0.000 C 
ENDBRANCH  30  31
ENDBRANCH  22  25
ENDBRANCH  18  19
ENDBRANCH  17  18
ENDBRANCH   1  17
TORSDOF 10
ENDMDL
MODEL 8
REMARK VINA RESULT:      -7.1      2.865     11.237
REMARK  Name = 
REMARK  12 active torsions:
REMARK  status: ('A' for Active; 'I' for Inactive)
REMARK    1  A    between atoms: C_1  and  O_2
REMARK    2  A    between atoms: O_2  and  C_3
REMARK    3  A    between atoms: C_8  and  C_9
REMARK    4  A    between atoms: C_10  and  C_11
REMARK    5  A    between atoms: N_13  and  C_14
REMARK    6  A    between atoms: C_14  and  C_15
REMARK    7  A    between atoms: C_15  and  C_16
REMARK    8  A    between atoms: C_16  and  C_17
REMARK    9  A    between atoms: C_17  and  N_18
REMARK   10  A    between atoms: N_21  and  C_22
REMARK   11  A    between atoms: C_27  and  O_28
REMARK   12  A    between atoms: O_28  and  C_29
REMARK                            x       y       z     vdW  Elec       q    Type
REMARK                         _______ _______ _______ _____ _____    ______ ____
ROOT
ATOM      1  C   UNL     1       8.773   8.689  18.360  0.00  0.00    +0.000 C 
ENDROOT
BRANCH   1   2
ATOM      2  C   UNL     1       8.827  10.215  18.261  0.00  0.00    +0.000 C 
BRANCH   2   5
ATOM      3  C   UNL     1       9.687  11.967  19.723  0.00  0.00    +0.000 C 
ATOM      4  O   UNL     1      10.248  12.566  18.820  0.00  0.00    +0.000 OA
ATOM      5  N   UNL     1       8.931  10.820  19.548  0.00  0.00    +0.000 N 
ATOM      6  H   UNL     1       8.574  10.325  20.352  0.00  0.00    +0.000 HD
BRANCH   3   8
ATOM      7  C   UNL     1       8.661  12.619  21.805  0.00  0.00    +0.000 C 
ATOM      8  C   UNL     1       9.780  12.334  21.134  0.00  0.00    +0.000 C 
BRANCH   7  14
ATOM      9  C   UNL     1       8.789  14.438  23.601  0.00  0.00    +0.000 A 
ATOM     10  C   UNL     1       8.708  14.757  24.957  0.00  0.00    +0.000 A 
ATOM     11  C   UNL     1       8.436  13.776  25.909  0.00  0.00    +0.000 A 
ATOM     12  C   UNL     1       8.254  12.461  25.514  0.00  0.00    +0.000 A 
ATOM     13  C   UNL     1       8.352  12.118  24.170  0.00  0.00    +0.000 A 
ATOM     14  C   UNL     1       8.636  13.092  23.197  0.00  0.00    +0.000 A 
BRANCH   9  16
ATOM     15  C   UNL     1      10.250  16.123  22.778  0.00  0.00    +0.000 C 
ATOM     16  O   UNL     1       9.038  15.386  22.636  0.00  0.00    +0.000 OA
ENDBRANCH   9  16
ENDBRANCH   7  14
ENDBRANCH   3   8
ENDBRANCH   2   5
ENDBRANCH   1   2
BRANCH   1  17
ATOM     17  C   UNL     1       7.614   8.139  17.539  0.00  0.00    +0.000 C 
BRANCH  17  18
ATOM     18  C   UNL     1       7.389   6.671  17.889  0.00  0.00    +0.000 C 
BRANCH  18  19
ATOM     19  N   UNL     1       6.543   5.939  16.954  0.00  0.00    +0.000 NA
ATOM     20  C   UNL     1       6.368   4.510  17.321  0.00  0.00    +0.000 C 
ATOM     21  C   UNL     1       5.557   4.249  18.605  0.00  0.00    +0.000 C 
ATOM     22  N   UNL     1       4.240   4.893  18.472  0.00  0.00    +0.000 N 
ATOM     23  C   UNL     1       4.321   6.337  18.238  0.00  0.00    +0.000 C 
ATOM     24  C   UNL     1       5.205   6.595  16.963  0.00  0.00    +0.000 C 
BRANCH  22  25
ATOM     25  C   UNL     1       3.098   4.210  18.851  0.00  0.00    +0.000 A 
ATOM     26  C   UNL     1       2.740   3.050  18.113  0.00  0.00    +0.000 A 
ATOM     27  C   UNL     1       1.546   2.352  18.305  0.00  0.00    +0.000 A 
ATOM     28  C   UNL     1       0.661   2.776  19.276  0.00  0.00    +0.000 A 
ATOM     29  C   UNL     1       1.002   3.868  20.068  0.00  0.00    +0.000 A 
ATOM     30  C   UNL     1       2.201   4.587  19.875  0.00  0.00    +0.000 A 
BRANCH  30  31
ATOM     31  O   UNL     1       2.315   5.585  20.809  0.00  0.00    +0.000 OA
ATOM     32  C   UNL     1       1.593   6.784  20.613  0.00  0.00    +0.000 C 
ENDBRANCH  30  31
ENDBRANCH  22  25
ENDBRANCH  18  19
ENDBRANCH  17  18
ENDBRANCH   1  17
TORSDOF 10
ENDMDL
MODEL 9
REMARK VINA RESULT:      -7.1      2.667     11.383
REMARK  Name = 
REMARK  12 active torsions:
REMARK  status: ('A' for Active; 'I' for Inactive)
REMARK    1  A    between atoms: C_1  and  O_2
REMARK    2  A    between atoms: O_2  and  C_3
REMARK    3  A    between atoms: C_8  and  C_9
REMARK    4  A    between atoms: C_10  and  C_11
REMARK    5  A    between atoms: N_13  and  C_14
REMARK    6  A    between atoms: C_14  and  C_15
REMARK    7  A    between atoms: C_15  and  C_16
REMARK    8  A    between atoms: C_16  and  C_17
REMARK    9  A    between atoms: C_17  and  N_18
REMARK   10  A    between atoms: N_21  and  C_22
REMARK   11  A    between atoms: C_27  and  O_28
REMARK   12  A    between atoms: O_28  and  C_29
REMARK                            x       y       z     vdW  Elec       q    Type
REMARK                         _______ _______ _______ _____ _____    ______ ____
ROOT
ATOM      1  C   UNL     1       8.294   9.755  18.368  0.00  0.00    +0.000 C 
ENDROOT
BRANCH   1   2
ATOM      2  C   UNL     1       9.591  10.495  18.033  0.00  0.00    +0.000 C 
BRANCH   2   5
ATOM      3  C   UNL     1      10.956  12.034  19.343  0.00  0.00    +0.000 C 
ATOM      4  O   UNL     1      11.989  11.413  19.158  0.00  0.00    +0.000 OA
ATOM      5  N   UNL     1       9.728  11.687  18.805  0.00  0.00    +0.000 N 
ATOM      6  H   UNL     1       8.897  12.191  19.078  0.00  0.00    +0.000 HD
BRANCH   3   8
ATOM      7  C   UNL     1       9.993  13.163  21.244  0.00  0.00    +0.000 C 
ATOM      8  C   UNL     1      10.844  13.201  20.215  0.00  0.00    +0.000 C 
BRANCH   7  14
ATOM      9  C   UNL     1       8.803  14.300  23.203  0.00  0.00    +0.000 A 
ATOM     10  C   UNL     1       8.669  15.444  23.992  0.00  0.00    +0.000 A 
ATOM     11  C   UNL     1       9.460  16.569  23.763  0.00  0.00    +0.000 A 
ATOM     12  C   UNL     1      10.386  16.564  22.733  0.00  0.00    +0.000 A 
ATOM     13  C   UNL     1      10.520  15.443  21.921  0.00  0.00    +0.000 A 
ATOM     14  C   UNL     1       9.723  14.304  22.130  0.00  0.00    +0.000 A 
BRANCH   9  16
ATOM     15  C   UNL     1       8.397  12.389  24.558  0.00  0.00    +0.000 C 
ATOM     16  O   UNL     1       8.050  13.168  23.415  0.00  0.00    +0.000 OA
ENDBRANCH   9  16
ENDBRANCH   7  14
ENDBRANCH   3   8
ENDBRANCH   2   5
ENDBRANCH   1   2
BRANCH   1  17
ATOM     17  C   UNL     1       8.515   8.248  18.341  0.00  0.00    +0.000 C 
BRANCH  17  18
ATOM     18  C   UNL     1       7.516   7.601  17.386  0.00  0.00    +0.000 C 
BRANCH  18  19
ATOM     19  N   UNL     1       7.580   6.146  17.324  0.00  0.00    +0.000 NA
ATOM     20  C   UNL     1       7.171   5.488  18.592  0.00  0.00    +0.000 C 
ATOM     21  C   UNL     1       5.683   5.630  18.963  0.00  0.00    +0.000 C 
ATOM     22  N   UNL     1       4.867   5.114  17.851  0.00  0.00    +0.000 N 
ATOM     23  C   UNL     1       5.115   5.803  16.582  0.00  0.00    +0.000 C 
ATOM     24  C   UNL     1       6.648   5.709  16.245  0.00  0.00    +0.000 C 
BRANCH  22  25
ATOM     25  C   UNL     1       3.785   4.291  18.113  0.00  0.00    +0.000 A 
ATOM     26  C   UNL     1       3.878   2.927  17.728  0.00  0.00    +0.000 A 
ATOM     27  C   UNL     1       2.813   2.028  17.812  0.00  0.00    +0.000 A 
ATOM     28  C   UNL     1       1.601   2.457  18.317  0.00  0.00    +0.000 A 
ATOM     29  C   UNL     1       1.486   3.768  18.769  0.00  0.00    +0.000 A 
ATOM     30  C   UNL     1       2.552   4.688  18.678  0.00  0.00    +0.000 A 
BRANCH  30  31
ATOM     31  O   UNL     1       2.193   5.892  19.228  0.00  0.00    +0.000 OA
ATOM     32  C   UNL     1       1.894   5.946  20.608  0.00  0.00    +0.000 C 
ENDBRANCH  30  31
ENDBRANCH  22  25
ENDBRANCH  18  19
ENDBRANCH  17  18
ENDBRANCH   1  17
TORSDOF 10
ENDMDL
