MODEL 1
REMARK VINA RESULT:      -7.9      0.000      0.000
REMARK  Name = 
REMARK  5 active torsions:
REMARK  status: ('A' for Active; 'I' for Inactive)
REMARK    1  A    between atoms: C_2  and  C_3
REMARK    2  A    between atoms: C_3  and  S_4
REMARK    3  A    between atoms: S_4  and  C_5
REMARK    4  A    between atoms: C_9  and  C_10
REMARK    5  A    between atoms: N_18  and  C_19
REMARK                            x       y       z     vdW  Elec       q    Type
REMARK                         _______ _______ _______ _____ _____    ______ ____
ROOT
ATOM      1  S   UNL     1       4.413   7.194  16.974  0.00  0.00    +0.000 S 
ENDROOT
BRANCH   1   2
ATOM      2  C   UNL     1       5.524   6.095  17.788  0.00  0.00    +0.000 A 
ATOM      3  S   UNL     1       7.195   6.482  17.994  0.00  0.00    +0.000 S 
ATOM      4  N   UNL     1       7.543   5.057  18.777  0.00  0.00    +0.000 NA
ATOM      5  N   UNL     1       6.483   4.289  18.933  0.00  0.00    +0.000 NA
ATOM      6  C   UNL     1       5.323   4.853  18.394  0.00  0.00    +0.000 A 
BRANCH   6   7
ATOM      7  C   UNL     1       4.061   4.118  18.509  0.00  0.00    +0.000 A 
ATOM      8  C   UNL     1       3.425   3.904  19.744  0.00  0.00    +0.000 A 
ATOM      9  C   UNL     1       2.232   3.179  19.821  0.00  0.00    +0.000 A 
ATOM     10  C   UNL     1       1.686   2.624  18.672  0.00  0.00    +0.000 A 
ATOM     11  F   UNL     1       0.558   1.910  18.757  0.00  0.00    +0.000 F 
ATOM     12  C   UNL     1       2.303   2.792  17.442  0.00  0.00    +0.000 A 
ATOM     13  C   UNL     1       3.475   3.541  17.368  0.00  0.00    +0.000 A 
ATOM     14  F   UNL     1       4.027   3.700  16.155  0.00  0.00    +0.000 F 
ENDBRANCH   6   7
ENDBRANCH   1   2
BRANCH   1  15
ATOM     15  C   UNL     1       3.027   7.184  18.134  0.00  0.00    +0.000 C 
BRANCH  15  17
ATOM     16  O   UNL     1       2.322   9.259  17.230  0.00  0.00    +0.000 OA
ATOM     17  C   UNL     1       2.270   8.500  18.201  0.00  0.00    +0.000 C 
ATOM     18  N   UNL     1       1.502   8.708  19.331  0.00  0.00    +0.000 N 
ATOM     19  H   UNL     1       1.719   8.144  20.148  0.00  0.00    +0.000 HD
BRANCH  18  20
ATOM     20  C   UNL     1       0.532   9.726  19.521  0.00  0.00    +0.000 A 
ATOM     21  C   UNL     1      -0.109  10.353  18.446  0.00  0.00    +0.000 A 
ATOM     22  C   UNL     1      -1.097  11.320  18.655  0.00  0.00    +0.000 A 
ATOM     23  C   UNL     1      -1.467  11.674  19.948  0.00  0.00    +0.000 A 
ATOM     24  C   UNL     1      -0.840  11.065  21.033  0.00  0.00    +0.000 A 
ATOM     25  C   UNL     1       0.154  10.102  20.823  0.00  0.00    +0.000 A 
ATOM     26 BR   UNL     1       0.986   9.340  22.353  0.00  0.00    +0.000 Br
ENDBRANCH  18  20
ENDBRANCH  15  17
ENDBRANCH   1  15
TORSDOF 5
ENDMDL
MODEL 2
REMARK VINA RESULT:      -7.9      1.303      1.693
REMARK  Name = 
REMARK  5 active torsions:
REMARK  status: ('A' for Active; 'I' for Inactive)
REMARK    1  A    between atoms: C_2  and  C_3
REMARK    2  A    between atoms: C_3  and  S_4
REMARK    3  A    between atoms: S_4  and  C_5
REMARK    4  A    between atoms: C_9  and  C_10
REMARK    5  A    between atoms: N_18  and  C_19
REMARK                            x       y       z     vdW  Elec       q    Type
REMARK                         _______ _______ _______ _____ _____    ______ ____
ROOT
ATOM      1  S   UNL     1       4.032   7.098  17.071  0.00  0.00    +0.000 S 
ENDROOT
BRANCH   1   2
ATOM      2  C   UNL     1       5.142   6.038  17.936  0.00  0.00    +0.000 A 
ATOM      3  S   UNL     1       6.786   6.486  18.224  0.00  0.00    +0.000 S 
ATOM      4  N   UNL     1       7.148   5.072  19.020  0.00  0.00    +0.000 NA
ATOM      5  N   UNL     1       6.111   4.265  19.124  0.00  0.00    +0.000 NA
ATOM      6  C   UNL     1       4.959   4.787  18.530  0.00  0.00    +0.000 A 
BRANCH   6   7
ATOM      7  C   UNL     1       3.721   4.004  18.581  0.00  0.00    +0.000 A 
ATOM      8  C   UNL     1       3.382   3.068  17.590  0.00  0.00    +0.000 A 
ATOM      9  C   UNL     1       2.183   2.352  17.658  0.00  0.00    +0.000 A 
ATOM     10  C   UNL     1       1.291   2.597  18.692  0.00  0.00    +0.000 A 
ATOM     11  F   UNL     1       0.134   1.927  18.737  0.00  0.00    +0.000 F 
ATOM     12  C   UNL     1       1.581   3.535  19.671  0.00  0.00    +0.000 A 
ATOM     13  C   UNL     1       2.792   4.222  19.614  0.00  0.00    +0.000 A 
ATOM     14  F   UNL     1       3.044   5.104  20.594  0.00  0.00    +0.000 F 
ENDBRANCH   6   7
ENDBRANCH   1   2
BRANCH   1  15
ATOM     15  C   UNL     1       2.955   7.625  18.424  0.00  0.00    +0.000 C 
BRANCH  15  17
ATOM     16  O   UNL     1       2.442   9.551  17.140  0.00  0.00    +0.000 OA
ATOM     17  C   UNL     1       2.116   8.850  18.102  0.00  0.00    +0.000 C 
ATOM     18  N   UNL     1       0.985   9.038  18.874  0.00  0.00    +0.000 N 
ATOM     19  H   UNL     1       0.947   8.552  19.765  0.00  0.00    +0.000 HD
BRANCH  18  20
ATOM     20  C   UNL     1      -0.071   9.952  18.621  0.00  0.00    +0.000 A 
ATOM     21  C   UNL     1      -0.999   9.750  17.593  0.00  0.00    +0.000 A 
ATOM     22  C   UNL     1      -2.061  10.638  17.391  0.00  0.00    +0.000 A 
ATOM     23  C   UNL     1      -2.218  11.742  18.221  0.00  0.00    +0.000 A 
ATOM     24  C   UNL     1      -1.304  11.964  19.250  0.00  0.00    +0.000 A 
ATOM     25  C   UNL     1      -0.237  11.079  19.447  0.00  0.00    +0.000 A 
ATOM     26 BR   UNL     1       0.986  11.466  20.850  0.00  0.00    +0.000 Br
ENDBRANCH  18  20
ENDBRANCH  15  17
ENDBRANCH   1  15
TORSDOF 5
ENDMDL
MODEL 3
REMARK VINA RESULT:      -7.9      0.961      1.106
REMARK  Name = 
REMARK  5 active torsions:
REMARK  status: ('A' for Active; 'I' for Inactive)
REMARK    1  A    between atoms: C_2  and  C_3
REMARK    2  A    between atoms: C_3  and  S_4
REMARK    3  A    between atoms: S_4  and  C_5
REMARK    4  A    between atoms: C_9  and  C_10
REMARK    5  A    between atoms: N_18  and  C_19
REMARK                            x       y       z     vdW  Elec       q    Type
REMARK                         _______ _______ _______ _____ _____    ______ ____
ROOT
ATOM      1  S   UNL     1       4.039   7.216  17.107  0.00  0.00    +0.000 S 
ENDROOT
BRANCH   1   2
ATOM      2  C   UNL     1       5.107   6.096  17.951  0.00  0.00    +0.000 A 
ATOM      3  S   UNL     1       6.814   6.353  18.028  0.00  0.00    +0.000 S 
ATOM      4  N   UNL     1       7.094   4.973  18.912  0.00  0.00    +0.000 NA
ATOM      5  N   UNL     1       5.987   4.316  19.195  0.00  0.00    +0.000 NA
ATOM      6  C   UNL     1       4.845   4.931  18.675  0.00  0.00    +0.000 A 
BRANCH   6   7
ATOM      7  C   UNL     1       3.537   4.319  18.925  0.00  0.00    +0.000 A 
ATOM      8  C   UNL     1       2.910   4.375  20.181  0.00  0.00    +0.000 A 
ATOM      9  C   UNL     1       1.670   3.762  20.393  0.00  0.00    +0.000 A 
ATOM     10  C   UNL     1       1.068   3.052  19.365  0.00  0.00    +0.000 A 
ATOM     11  F   UNL     1      -0.106   2.447  19.581  0.00  0.00    +0.000 F 
ATOM     12  C   UNL     1       1.673   2.953  18.122  0.00  0.00    +0.000 A 
ATOM     13  C   UNL     1       2.893   3.592  17.909  0.00  0.00    +0.000 A 
ATOM     14  F   UNL     1       3.434   3.492  16.684  0.00  0.00    +0.000 F 
ENDBRANCH   6   7
ENDBRANCH   1   2
BRANCH   1  15
ATOM     15  C   UNL     1       2.894   7.647  18.438  0.00  0.00    +0.000 C 
BRANCH  15  17
ATOM     16  O   UNL     1       2.385   9.615  17.216  0.00  0.00    +0.000 OA
ATOM     17  C   UNL     1       2.054   8.881  18.151  0.00  0.00    +0.000 C 
ATOM     18  N   UNL     1       0.918   9.041  18.922  0.00  0.00    +0.000 N 
ATOM     19  H   UNL     1       0.875   8.525  19.795  0.00  0.00    +0.000 HD
BRANCH  18  20
ATOM     20  C   UNL     1      -0.139   9.960  18.693  0.00  0.00    +0.000 A 
ATOM     21  C   UNL     1      -1.029   9.819  17.622  0.00  0.00    +0.000 A 
ATOM     22  C   UNL     1      -2.092  10.709  17.442  0.00  0.00    +0.000 A 
ATOM     23  C   UNL     1      -2.289  11.756  18.336  0.00  0.00    +0.000 A 
ATOM     24  C   UNL     1      -1.412  11.917  19.408  0.00  0.00    +0.000 A 
ATOM     25  C   UNL     1      -0.343  11.030  19.584  0.00  0.00    +0.000 A 
ATOM     26 BR   UNL     1       0.828  11.334  21.050  0.00  0.00    +0.000 Br
ENDBRANCH  18  20
ENDBRANCH  15  17
ENDBRANCH   1  15
TORSDOF 5
ENDMDL
MODEL 4
REMARK VINA RESULT:      -7.8      2.930      4.201
REMARK  Name = 
REMARK  5 active torsions:
REMARK  status: ('A' for Active; 'I' for Inactive)
REMARK    1  A    between atoms: C_2  and  C_3
REMARK    2  A    between atoms: C_3  and  S_4
REMARK    3  A    between atoms: S_4  and  C_5
REMARK    4  A    between atoms: C_9  and  C_10
REMARK    5  A    between atoms: N_18  and  C_19
REMARK                            x       y       z     vdW  Elec       q    Type
REMARK                         _______ _______ _______ _____ _____    ______ ____
ROOT
ATOM      1  S   UNL     1       2.331   6.227  19.894  0.00  0.00    +0.000 S 
ENDROOT
BRANCH   1   2
ATOM      2  C   UNL     1       2.680   5.062  18.619  0.00  0.00    +0.000 A 
ATOM      3  S   UNL     1       1.457   4.021  17.982  0.00  0.00    +0.000 S 
ATOM      4  N   UNL     1       2.492   3.275  16.915  0.00  0.00    +0.000 NA
ATOM      5  N   UNL     1       3.715   3.764  16.966  0.00  0.00    +0.000 NA
ATOM      6  C   UNL     1       3.851   4.783  17.912  0.00  0.00    +0.000 A 
BRANCH   6   7
ATOM      7  C   UNL     1       5.156   5.432  18.068  0.00  0.00    +0.000 A 
ATOM      8  C   UNL     1       6.040   5.101  19.109  0.00  0.00    +0.000 A 
ATOM      9  C   UNL     1       7.269   5.755  19.242  0.00  0.00    +0.000 A 
ATOM     10  C   UNL     1       7.607   6.774  18.364  0.00  0.00    +0.000 A 
ATOM     11  F   UNL     1       8.774   7.413  18.513  0.00  0.00    +0.000 F 
ATOM     12  C   UNL     1       6.746   7.145  17.344  0.00  0.00    +0.000 A 
ATOM     13  C   UNL     1       5.536   6.469  17.198  0.00  0.00    +0.000 A 
ATOM     14  F   UNL     1       4.742   6.843  16.183  0.00  0.00    +0.000 F 
ENDBRANCH   6   7
ENDBRANCH   1   2
BRANCH   1  15
ATOM     15  C   UNL     1       2.268   7.758  18.936  0.00  0.00    +0.000 C 
BRANCH  15  17
ATOM     16  O   UNL     1       1.150   8.845  20.722  0.00  0.00    +0.000 OA
ATOM     17  C   UNL     1       1.316   8.799  19.501  0.00  0.00    +0.000 C 
ATOM     18  N   UNL     1       0.765   9.682  18.591  0.00  0.00    +0.000 N 
ATOM     19  H   UNL     1       0.780   9.409  17.613  0.00  0.00    +0.000 HD
BRANCH  18  20
ATOM     20  C   UNL     1       0.051  10.872  18.891  0.00  0.00    +0.000 A 
ATOM     21  C   UNL     1      -1.273  10.851  19.345  0.00  0.00    +0.000 A 
ATOM     22  C   UNL     1      -1.942  12.033  19.679  0.00  0.00    +0.000 A 
ATOM     23  C   UNL     1      -1.296  13.258  19.572  0.00  0.00    +0.000 A 
ATOM     24  C   UNL     1       0.022  13.303  19.118  0.00  0.00    +0.000 A 
ATOM     25  C   UNL     1       0.690  12.121  18.777  0.00  0.00    +0.000 A 
ATOM     26 BR   UNL     1       2.473  12.265  18.136  0.00  0.00    +0.000 Br
ENDBRANCH  18  20
ENDBRANCH  15  17
ENDBRANCH   1  15
TORSDOF 5
ENDMDL
MODEL 5
REMARK VINA RESULT:      -7.8      2.865      4.103
REMARK  Name = 
REMARK  5 active torsions:
REMARK  status: ('A' for Active; 'I' for Inactive)
REMARK    1  A    between atoms: C_2  and  C_3
REMARK    2  A    between atoms: C_3  and  S_4
REMARK    3  A    between atoms: S_4  and  C_5
REMARK    4  A    between atoms: C_9  and  C_10
REMARK    5  A    between atoms: N_18  and  C_19
REMARK                            x       y       z     vdW  Elec       q    Type
REMARK                         _______ _______ _______ _____ _____    ______ ____
ROOT
ATOM      1  S   UNL     1       2.169   5.578  18.261  0.00  0.00    +0.000 S 
ENDROOT
BRANCH   1   2
ATOM      2  C   UNL     1       3.136   4.313  19.015  0.00  0.00    +0.000 A 
ATOM      3  S   UNL     1       2.586   3.461  20.414  0.00  0.00    +0.000 S 
ATOM      4  N   UNL     1       3.952   2.519  20.515  0.00  0.00    +0.000 NA
ATOM      5  N   UNL     1       4.814   2.766  19.548  0.00  0.00    +0.000 NA
ATOM      6  C   UNL     1       4.377   3.768  18.677  0.00  0.00    +0.000 A 
BRANCH   6   7
ATOM      7  C   UNL     1       5.227   4.138  17.543  0.00  0.00    +0.000 A 
ATOM      8  C   UNL     1       4.897   3.811  16.217  0.00  0.00    +0.000 A 
ATOM      9  C   UNL     1       5.741   4.161  15.159  0.00  0.00    +0.000 A 
ATOM     10  C   UNL     1       6.944   4.801  15.419  0.00  0.00    +0.000 A 
ATOM     11  F   UNL     1       7.759   5.111  14.404  0.00  0.00    +0.000 F 
ATOM     12  C   UNL     1       7.315   5.114  16.718  0.00  0.00    +0.000 A 
ATOM     13  C   UNL     1       6.454   4.790  17.765  0.00  0.00    +0.000 A 
ATOM     14  F   UNL     1       6.839   5.131  19.005  0.00  0.00    +0.000 F 
ENDBRANCH   6   7
ENDBRANCH   1   2
BRANCH   1  15
ATOM     15  C   UNL     1       2.703   7.017  19.217  0.00  0.00    +0.000 C 
BRANCH  15  17
ATOM     16  O   UNL     1       1.326   6.752  21.129  0.00  0.00    +0.000 OA
ATOM     17  C   UNL     1       1.671   7.508  20.218  0.00  0.00    +0.000 C 
ATOM     18  N   UNL     1       1.253   8.819  20.074  0.00  0.00    +0.000 N 
ATOM     19  H   UNL     1       1.414   9.259  19.173  0.00  0.00    +0.000 HD
BRANCH  18  20
ATOM     20  C   UNL     1       0.495   9.574  21.006  0.00  0.00    +0.000 A 
ATOM     21  C   UNL     1       0.236   9.114  22.302  0.00  0.00    +0.000 A 
ATOM     22  C   UNL     1      -0.473   9.895  23.220  0.00  0.00    +0.000 A 
ATOM     23  C   UNL     1      -0.931  11.157  22.859  0.00  0.00    +0.000 A 
ATOM     24  C   UNL     1      -0.687  11.634  21.573  0.00  0.00    +0.000 A 
ATOM     25  C   UNL     1       0.016  10.849  20.651  0.00  0.00    +0.000 A 
ATOM     26 BR   UNL     1       0.281  11.555  18.906  0.00  0.00    +0.000 Br
ENDBRANCH  18  20
ENDBRANCH  15  17
ENDBRANCH   1  15
TORSDOF 5
ENDMDL
MODEL 6
REMARK VINA RESULT:      -7.8      2.760      4.019
REMARK  Name = 
REMARK  5 active torsions:
REMARK  status: ('A' for Active; 'I' for Inactive)
REMARK    1  A    between atoms: C_2  and  C_3
REMARK    2  A    between atoms: C_3  and  S_4
REMARK    3  A    between atoms: S_4  and  C_5
REMARK    4  A    between atoms: C_9  and  C_10
REMARK    5  A    between atoms: N_18  and  C_19
REMARK                            x       y       z     vdW  Elec       q    Type
REMARK                         _______ _______ _______ _____ _____    ______ ____
ROOT
ATOM      1  S   UNL     1       2.242   6.745  19.408  0.00  0.00    +0.000 S 
ENDROOT
BRANCH   1   2
ATOM      2  C   UNL     1       2.649   5.357  18.402  0.00  0.00    +0.000 A 
ATOM      3  S   UNL     1       1.438   4.267  17.827  0.00  0.00    +0.000 S 
ATOM      4  N   UNL     1       2.529   3.302  17.026  0.00  0.00    +0.000 NA
ATOM      5  N   UNL     1       3.768   3.743  17.124  0.00  0.00    +0.000 NA
ATOM      6  C   UNL     1       3.867   4.909  17.887  0.00  0.00    +0.000 A 
BRANCH   6   7
ATOM      7  C   UNL     1       5.185   5.523  18.069  0.00  0.00    +0.000 A 
ATOM      8  C   UNL     1       6.043   5.164  19.123  0.00  0.00    +0.000 A 
ATOM      9  C   UNL     1       7.286   5.785  19.281  0.00  0.00    +0.000 A 
ATOM     10  C   UNL     1       7.664   6.800  18.415  0.00  0.00    +0.000 A 
ATOM     11  F   UNL     1       8.844   7.408  18.587  0.00  0.00    +0.000 F 
ATOM     12  C   UNL     1       6.831   7.199  17.383  0.00  0.00    +0.000 A 
ATOM     13  C   UNL     1       5.607   6.555  17.212  0.00  0.00    +0.000 A 
ATOM     14  F   UNL     1       4.839   6.956  16.186  0.00  0.00    +0.000 F 
ENDBRANCH   6   7
ENDBRANCH   1   2
BRANCH   1  15
ATOM     15  C   UNL     1       2.143   8.045  18.155  0.00  0.00    +0.000 C 
BRANCH  15  17
ATOM     16  O   UNL     1       0.437   9.663  17.853  0.00  0.00    +0.000 OA
ATOM     17  C   UNL     1       1.340   9.259  18.590  0.00  0.00    +0.000 C 
ATOM     18  N   UNL     1       1.634   9.773  19.839  0.00  0.00    +0.000 N 
ATOM     19  H   UNL     1       2.531   9.521  20.244  0.00  0.00    +0.000 HD
BRANCH  18  20
ATOM     20  C   UNL     1       0.877  10.733  20.561  0.00  0.00    +0.000 A 
ATOM     21  C   UNL     1       1.016  12.108  20.342  0.00  0.00    +0.000 A 
ATOM     22  C   UNL     1       0.227  13.034  21.030  0.00  0.00    +0.000 A 
ATOM     23  C   UNL     1      -0.724  12.600  21.947  0.00  0.00    +0.000 A 
ATOM     24  C   UNL     1      -0.877  11.235  22.183  0.00  0.00    +0.000 A 
ATOM     25  C   UNL     1      -0.082  10.308  21.499  0.00  0.00    +0.000 A 
ATOM     26 BR   UNL     1      -0.327   8.466  21.899  0.00  0.00    +0.000 Br
ENDBRANCH  18  20
ENDBRANCH  15  17
ENDBRANCH   1  15
TORSDOF 5
ENDMDL
MODEL 7
REMARK VINA RESULT:      -7.8      2.907      4.209
REMARK  Name = 
REMARK  5 active torsions:
REMARK  status: ('A' for Active; 'I' for Inactive)
REMARK    1  A    between atoms: C_2  and  C_3
REMARK    2  A    between atoms: C_3  and  S_4
REMARK    3  A    between atoms: S_4  and  C_5
REMARK    4  A    between atoms: C_9  and  C_10
REMARK    5  A    between atoms: N_18  and  C_19
REMARK                            x       y       z     vdW  Elec       q    Type
REMARK                         _______ _______ _______ _____ _____    ______ ____
ROOT
ATOM      1  S   UNL     1       2.285   6.738  19.514  0.00  0.00    +0.000 S 
ENDROOT
BRANCH   1   2
ATOM      2  C   UNL     1       2.669   5.394  18.442  0.00  0.00    +0.000 A 
ATOM      3  S   UNL     1       1.443   4.337  17.838  0.00  0.00    +0.000 S 
ATOM      4  N   UNL     1       2.516   3.401  16.979  0.00  0.00    +0.000 NA
ATOM      5  N   UNL     1       3.759   3.830  17.078  0.00  0.00    +0.000 NA
ATOM      6  C   UNL     1       3.877   4.961  17.890  0.00  0.00    +0.000 A 
BRANCH   6   7
ATOM      7  C   UNL     1       5.201   5.560  18.079  0.00  0.00    +0.000 A 
ATOM      8  C   UNL     1       6.043   5.198  19.144  0.00  0.00    +0.000 A 
ATOM      9  C   UNL     1       7.293   5.804  19.309  0.00  0.00    +0.000 A 
ATOM     10  C   UNL     1       7.694   6.806  18.438  0.00  0.00    +0.000 A 
ATOM     11  F   UNL     1       8.880   7.399  18.616  0.00  0.00    +0.000 F 
ATOM     12  C   UNL     1       6.876   7.207  17.394  0.00  0.00    +0.000 A 
ATOM     13  C   UNL     1       5.645   6.577  17.217  0.00  0.00    +0.000 A 
ATOM     14  F   UNL     1       4.893   6.979  16.180  0.00  0.00    +0.000 F 
ENDBRANCH   6   7
ENDBRANCH   1   2
BRANCH   1  15
ATOM     15  C   UNL     1       2.037   8.062  18.308  0.00  0.00    +0.000 C 
BRANCH  15  17
ATOM     16  O   UNL     1       0.328   9.691  18.093  0.00  0.00    +0.000 OA
ATOM     17  C   UNL     1       1.199   9.218  18.827  0.00  0.00    +0.000 C 
ATOM     18  N   UNL     1       1.429   9.602  20.136  0.00  0.00    +0.000 N 
ATOM     19  H   UNL     1       2.308   9.315  20.554  0.00  0.00    +0.000 HD
BRANCH  18  20
ATOM     20  C   UNL     1       0.627  10.475  20.916  0.00  0.00    +0.000 A 
ATOM     21  C   UNL     1      -0.239  10.003  21.909  0.00  0.00    +0.000 A 
ATOM     22  C   UNL     1      -0.984  10.884  22.699  0.00  0.00    +0.000 A 
ATOM     23  C   UNL     1      -0.872  12.257  22.513  0.00  0.00    +0.000 A 
ATOM     24  C   UNL     1      -0.018  12.749  21.528  0.00  0.00    +0.000 A 
ATOM     25  C   UNL     1       0.723  11.867  20.732  0.00  0.00    +0.000 A 
ATOM     26 BR   UNL     1       1.841  12.613  19.388  0.00  0.00    +0.000 Br
ENDBRANCH  18  20
ENDBRANCH  15  17
ENDBRANCH   1  15
TORSDOF 5
ENDMDL
MODEL 8
REMARK VINA RESULT:      -7.7      2.470      3.584
REMARK  Name = 
REMARK  5 active torsions:
REMARK  status: ('A' for Active; 'I' for Inactive)
REMARK    1  A    between atoms: C_2  and  C_3
REMARK    2  A    between atoms: C_3  and  S_4
REMARK    3  A    between atoms: S_4  and  C_5
REMARK    4  A    between atoms: C_9  and  C_10
REMARK    5  A    between atoms: N_18  and  C_19
REMARK                            x       y       z     vdW  Elec       q    Type
REMARK                         _______ _______ _______ _____ _____    ______ ____
ROOT
ATOM      1  S   UNL     1       1.983   5.247  18.879  0.00  0.00    +0.000 S 
ENDROOT
BRANCH   1   2
ATOM      2  C   UNL     1       3.031   4.015  19.578  0.00  0.00    +0.000 A 
ATOM      3  S   UNL     1       2.556   3.100  20.964  0.00  0.00    +0.000 S 
ATOM      4  N   UNL     1       3.970   2.227  21.011  0.00  0.00    +0.000 NA
ATOM      5  N   UNL     1       4.797   2.544  20.034  0.00  0.00    +0.000 NA
ATOM      6  C   UNL     1       4.290   3.544  19.200  0.00  0.00    +0.000 A 
BRANCH   6   7
ATOM      7  C   UNL     1       5.095   3.987  18.059  0.00  0.00    +0.000 A 
ATOM      8  C   UNL     1       4.795   3.614  16.738  0.00  0.00    +0.000 A 
ATOM      9  C   UNL     1       5.597   4.037  15.673  0.00  0.00    +0.000 A 
ATOM     10  C   UNL     1       6.729   4.799  15.922  0.00  0.00    +0.000 A 
ATOM     11  F   UNL     1       7.506   5.179  14.900  0.00  0.00    +0.000 F 
ATOM     12  C   UNL     1       7.070   5.160  17.215  0.00  0.00    +0.000 A 
ATOM     13  C   UNL     1       6.250   4.761  18.269  0.00  0.00    +0.000 A 
ATOM     14  F   UNL     1       6.603   5.152  19.504  0.00  0.00    +0.000 F 
ENDBRANCH   6   7
ENDBRANCH   1   2
BRANCH   1  15
ATOM     15  C   UNL     1       2.956   6.735  19.210  0.00  0.00    +0.000 C 
BRANCH  15  17
ATOM     16  O   UNL     1       2.285   8.458  17.725  0.00  0.00    +0.000 OA
ATOM     17  C   UNL     1       2.232   8.029  18.881  0.00  0.00    +0.000 C 
ATOM     18  N   UNL     1       1.488   8.591  19.902  0.00  0.00    +0.000 N 
ATOM     19  H   UNL     1       1.705   8.296  20.849  0.00  0.00    +0.000 HD
BRANCH  18  20
ATOM     20  C   UNL     1       0.545   9.646  19.783  0.00  0.00    +0.000 A 
ATOM     21  C   UNL     1       0.201  10.200  18.545  0.00  0.00    +0.000 A 
ATOM     22  C   UNL     1      -0.766  11.206  18.445  0.00  0.00    +0.000 A 
ATOM     23  C   UNL     1      -1.412  11.672  19.585  0.00  0.00    +0.000 A 
ATOM     24  C   UNL     1      -1.082  11.136  20.828  0.00  0.00    +0.000 A 
ATOM     25  C   UNL     1      -0.109  10.134  20.929  0.00  0.00    +0.000 A 
ATOM     26 BR   UNL     1       0.309   9.477  22.663  0.00  0.00    +0.000 Br
ENDBRANCH  18  20
ENDBRANCH  15  17
ENDBRANCH   1  15
TORSDOF 5
ENDMDL
MODEL 9
REMARK VINA RESULT:      -7.7      2.814      4.291
REMARK  Name = 
REMARK  5 active torsions:
REMARK  status: ('A' for Active; 'I' for Inactive)
REMARK    1  A    between atoms: C_2  and  C_3
REMARK    2  A    between atoms: C_3  and  S_4
REMARK    3  A    between atoms: S_4  and  C_5
REMARK    4  A    between atoms: C_9  and  C_10
REMARK    5  A    between atoms: N_18  and  C_19
REMARK                            x       y       z     vdW  Elec       q    Type
REMARK                         _______ _______ _______ _____ _____    ______ ____
ROOT
ATOM      1  S   UNL     1       2.146   6.886  19.227  0.00  0.00    +0.000 S 
ENDROOT
BRANCH   1   2
ATOM      2  C   UNL     1       2.617   5.476  18.281  0.00  0.00    +0.000 A 
ATOM      3  S   UNL     1       1.451   4.330  17.719  0.00  0.00    +0.000 S 
ATOM      4  N   UNL     1       2.589   3.370  16.978  0.00  0.00    +0.000 NA
ATOM      5  N   UNL     1       3.811   3.850  17.089  0.00  0.00    +0.000 NA
ATOM      6  C   UNL     1       3.859   5.046  17.811  0.00  0.00    +0.000 A 
BRANCH   6   7
ATOM      7  C   UNL     1       5.154   5.705  18.001  0.00  0.00    +0.000 A 
ATOM      8  C   UNL     1       5.587   6.761  17.181  0.00  0.00    +0.000 A 
ATOM      9  C   UNL     1       6.838   7.355  17.375  0.00  0.00    +0.000 A 
ATOM     10  C   UNL     1       7.686   6.870  18.361  0.00  0.00    +0.000 A 
ATOM     11  F   UNL     1       8.892   7.426  18.525  0.00  0.00    +0.000 F 
ATOM     12  C   UNL     1       7.302   5.811  19.168  0.00  0.00    +0.000 A 
ATOM     13  C   UNL     1       6.041   5.245  18.989  0.00  0.00    +0.000 A 
ATOM     14  F   UNL     1       5.699   4.237  19.807  0.00  0.00    +0.000 F 
ENDBRANCH   6   7
ENDBRANCH   1   2
BRANCH   1  15
ATOM     15  C   UNL     1       2.139   8.158  17.943  0.00  0.00    +0.000 C 
BRANCH  15  17
ATOM     16  O   UNL     1       2.177  10.529  17.992  0.00  0.00    +0.000 OA
ATOM     17  C   UNL     1       1.629   9.509  18.418  0.00  0.00    +0.000 C 
ATOM     18  N   UNL     1       0.518   9.489  19.240  0.00  0.00    +0.000 N 
ATOM     19  H   UNL     1       0.303   8.614  19.708  0.00  0.00    +0.000 HD
BRANCH  18  20
ATOM     20  C   UNL     1      -0.280  10.603  19.613  0.00  0.00    +0.000 A 
ATOM     21  C   UNL     1       0.009  11.381  20.740  0.00  0.00    +0.000 A 
ATOM     22  C   UNL     1      -0.761  12.502  21.063  0.00  0.00    +0.000 A 
ATOM     23  C   UNL     1      -1.834  12.869  20.259  0.00  0.00    +0.000 A 
ATOM     24  C   UNL     1      -2.143  12.107  19.134  0.00  0.00    +0.000 A 
ATOM     25  C   UNL     1      -1.375  10.980  18.815  0.00  0.00    +0.000 A 
ATOM     26 BR   UNL     1      -1.877   9.972  17.283  0.00  0.00    +0.000 Br
ENDBRANCH  18  20
ENDBRANCH  15  17
ENDBRANCH   1  15
TORSDOF 5
ENDMDL
