MODEL 1
REMARK VINA RESULT:      -8.0      0.000      0.000
REMARK  Name = 
REMARK  7 active torsions:
REMARK  status: ('A' for Active; 'I' for Inactive)
REMARK    1  A    between atoms: C_2  and  C_3
REMARK    2  A    between atoms: C_8  and  N_9
REMARK    3  A    between atoms: C_11  and  C_12
REMARK    4  A    between atoms: N_16  and  C_17
REMARK    5  A    between atoms: C_20  and  C_21
REMARK    6  A    between atoms: C_21  and  O_22
REMARK    7  A    between atoms: C_21  and  C_23
REMARK                            x       y       z     vdW  Elec       q    Type
REMARK                         _______ _______ _______ _____ _____    ______ ____
ROOT
ATOM      1  N   UNL     1       4.299   5.419  19.197  0.00  0.00    +0.000 N 
ATOM      2  C   UNL     1       3.855   4.253  19.740  0.00  0.00    +0.000 A 
ATOM      3  C   UNL     1       2.648   4.547  20.360  0.00  0.00    +0.000 A 
ATOM      4  C   UNL     1       2.464   5.948  20.136  0.00  0.00    +0.000 A 
ATOM      5  N   UNL     1       1.447   6.684  20.657  0.00  0.00    +0.000 N 
ATOM      6  N   UNL     1       3.470   6.439  19.412  0.00  0.00    +0.000 NA
ATOM      7  H   UNL     1       0.725   6.182  21.176  0.00  0.00    +0.000 HD
ENDROOT
BRANCH   1  13
ATOM      8  C   UNL     1       5.489   6.859  17.560  0.00  0.00    +0.000 C 
ATOM      9  C   UNL     1       4.788   6.535  16.232  0.00  0.00    +0.000 C 
ATOM     10  C   UNL     1       5.300   5.262  15.561  0.00  0.00    +0.000 C 
ATOM     11  C   UNL     1       5.395   4.062  16.500  0.00  0.00    +0.000 C 
ATOM     12  C   UNL     1       6.100   4.382  17.814  0.00  0.00    +0.000 C 
ATOM     13  C   UNL     1       5.572   5.649  18.516  0.00  0.00    +0.000 C 
BRANCH   8  15
ATOM     14  N   UNL     1       7.912   7.802  17.115  0.00  0.00    +0.000 NA
ATOM     15  C   UNL     1       6.851   7.369  17.306  0.00  0.00    +0.000 C 
ENDBRANCH   8  15
ENDBRANCH   1  13
BRANCH   5  16
ATOM     16  C   UNL     1       1.346   8.092  20.764  0.00  0.00    +0.000 A 
ATOM     17  C   UNL     1       1.132   8.869  19.622  0.00  0.00    +0.000 A 
ATOM     18  C   UNL     1       0.902  10.248  19.724  0.00  0.00    +0.000 A 
ATOM     19  C   UNL     1       0.892  10.842  20.982  0.00  0.00    +0.000 A 
ATOM     20  N   UNL     1       1.112  10.129  22.114  0.00  0.00    +0.000 NA
ATOM     21  C   UNL     1       1.330   8.792  21.972  0.00  0.00    +0.000 A 
BRANCH  19  22
ATOM     22  C   UNL     1       0.610  12.320  21.171  0.00  0.00    +0.000 C 
BRANCH  22  23
ATOM     23  C   UNL     1      -0.803  12.524  21.721  0.00  0.00    +0.000 C 
ATOM     24  F   UNL     1      -1.644  11.578  21.225  0.00  0.00    +0.000 F 
ATOM     25  F   UNL     1      -0.805  12.340  23.071  0.00  0.00    +0.000 F 
ENDBRANCH  22  23
BRANCH  22  26
ATOM     26  O   UNL     1       0.755  12.983  19.895  0.00  0.00    +0.000 OA
ATOM     27  H   UNL     1       0.775  12.261  19.232  0.00  0.00    +0.000 HD
ENDBRANCH  22  26
ENDBRANCH  19  22
ENDBRANCH   5  16
BRANCH   3  28
ATOM     28  C   UNL     1       1.799   3.639  21.103  0.00  0.00    +0.000 C 
ATOM     29  N   UNL     1       0.636   3.263  20.488  0.00  0.00    +0.000 N 
ATOM     30  O   UNL     1       2.095   3.201  22.211  0.00  0.00    +0.000 OA
ATOM     31  H   UNL     1       0.425   3.490  19.529  0.00  0.00    +0.000 HD
ATOM     32  H   UNL     1       0.050   2.588  20.959  0.00  0.00    +0.000 HD
ENDBRANCH   3  28
TORSDOF 7
ENDMDL
MODEL 2
REMARK VINA RESULT:      -7.9      6.040      9.060
REMARK  Name = 
REMARK  7 active torsions:
REMARK  status: ('A' for Active; 'I' for Inactive)
REMARK    1  A    between atoms: C_2  and  C_3
REMARK    2  A    between atoms: C_8  and  N_9
REMARK    3  A    between atoms: C_11  and  C_12
REMARK    4  A    between atoms: N_16  and  C_17
REMARK    5  A    between atoms: C_20  and  C_21
REMARK    6  A    between atoms: C_21  and  O_22
REMARK    7  A    between atoms: C_21  and  C_23
REMARK                            x       y       z     vdW  Elec       q    Type
REMARK                         _______ _______ _______ _____ _____    ______ ____
ROOT
ATOM      1  N   UNL     1       4.469   4.960  18.967  0.00  0.00    +0.000 N 
ATOM      2  C   UNL     1       5.524   5.338  19.739  0.00  0.00    +0.000 A 
ATOM      3  C   UNL     1       6.553   5.653  18.864  0.00  0.00    +0.000 A 
ATOM      4  C   UNL     1       6.005   5.411  17.565  0.00  0.00    +0.000 A 
ATOM      5  N   UNL     1       6.705   5.499  16.403  0.00  0.00    +0.000 N 
ATOM      6  N   UNL     1       4.736   5.013  17.664  0.00  0.00    +0.000 NA
ATOM      7  H   UNL     1       7.666   5.840  16.462  0.00  0.00    +0.000 HD
ENDROOT
BRANCH   1  13
ATOM      8  C   UNL     1       3.320   3.050  20.063  0.00  0.00    +0.000 C 
ATOM      9  C   UNL     1       3.448   1.922  19.029  0.00  0.00    +0.000 C 
ATOM     10  C   UNL     1       2.398   1.982  17.920  0.00  0.00    +0.000 C 
ATOM     11  C   UNL     1       2.243   3.363  17.289  0.00  0.00    +0.000 C 
ATOM     12  C   UNL     1       2.106   4.482  18.317  0.00  0.00    +0.000 C 
ATOM     13  C   UNL     1       3.177   4.449  19.424  0.00  0.00    +0.000 C 
BRANCH   8  15
ATOM     14  N   UNL     1       1.272   2.618  21.670  0.00  0.00    +0.000 NA
ATOM     15  C   UNL     1       2.164   2.802  20.947  0.00  0.00    +0.000 C 
ENDBRANCH   8  15
ENDBRANCH   1  13
BRANCH   5  16
ATOM     16  C   UNL     1       6.363   4.986  15.129  0.00  0.00    +0.000 A 
ATOM     17  C   UNL     1       7.333   4.890  14.128  0.00  0.00    +0.000 A 
ATOM     18  C   UNL     1       7.045   4.268  12.905  0.00  0.00    +0.000 A 
ATOM     19  C   UNL     1       5.773   3.744  12.695  0.00  0.00    +0.000 A 
ATOM     20  N   UNL     1       4.797   3.830  13.632  0.00  0.00    +0.000 NA
ATOM     21  C   UNL     1       5.119   4.442  14.806  0.00  0.00    +0.000 A 
BRANCH  19  22
ATOM     22  C   UNL     1       5.402   3.022  11.414  0.00  0.00    +0.000 C 
BRANCH  22  23
ATOM     23  C   UNL     1       3.912   3.195  11.119  0.00  0.00    +0.000 C 
ATOM     24  F   UNL     1       3.709   4.291  10.340  0.00  0.00    +0.000 F 
ATOM     25  F   UNL     1       3.459   2.140  10.386  0.00  0.00    +0.000 F 
ENDBRANCH  22  23
BRANCH  22  26
ATOM     26  O   UNL     1       5.727   1.621  11.565  0.00  0.00    +0.000 OA
ATOM     27  H   UNL     1       5.611   1.233  10.671  0.00  0.00    +0.000 HD
ENDBRANCH  22  26
ENDBRANCH  19  22
ENDBRANCH   5  16
BRANCH   3  28
ATOM     28  C   UNL     1       7.894   6.084  19.203  0.00  0.00    +0.000 C 
ATOM     29  N   UNL     1       8.544   5.340  20.150  0.00  0.00    +0.000 N 
ATOM     30  O   UNL     1       8.443   7.043  18.670  0.00  0.00    +0.000 OA
ATOM     31  H   UNL     1       8.181   4.470  20.507  0.00  0.00    +0.000 HD
ATOM     32  H   UNL     1       9.500   5.584  20.367  0.00  0.00    +0.000 HD
ENDBRANCH   3  28
TORSDOF 7
ENDMDL
MODEL 3
REMARK VINA RESULT:      -7.9      1.259      1.344
REMARK  Name = 
REMARK  7 active torsions:
REMARK  status: ('A' for Active; 'I' for Inactive)
REMARK    1  A    between atoms: C_2  and  C_3
REMARK    2  A    between atoms: C_8  and  N_9
REMARK    3  A    between atoms: C_11  and  C_12
REMARK    4  A    between atoms: N_16  and  C_17
REMARK    5  A    between atoms: C_20  and  C_21
REMARK    6  A    between atoms: C_21  and  O_22
REMARK    7  A    between atoms: C_21  and  C_23
REMARK                            x       y       z     vdW  Elec       q    Type
REMARK                         _______ _______ _______ _____ _____    ______ ____
ROOT
ATOM      1  N   UNL     1       4.345   5.377  19.156  0.00  0.00    +0.000 N 
ATOM      2  C   UNL     1       3.908   4.228  19.741  0.00  0.00    +0.000 A 
ATOM      3  C   UNL     1       2.705   4.540  20.359  0.00  0.00    +0.000 A 
ATOM      4  C   UNL     1       2.515   5.933  20.090  0.00  0.00    +0.000 A 
ATOM      5  N   UNL     1       1.500   6.684  20.593  0.00  0.00    +0.000 N 
ATOM      6  N   UNL     1       3.515   6.401  19.342  0.00  0.00    +0.000 NA
ATOM      7  H   UNL     1       0.783   6.197  21.133  0.00  0.00    +0.000 HD
ENDROOT
BRANCH   1  13
ATOM      8  C   UNL     1       5.544   6.813  17.522  0.00  0.00    +0.000 C 
ATOM      9  C   UNL     1       4.815   6.525  16.200  0.00  0.00    +0.000 C 
ATOM     10  C   UNL     1       5.286   5.250  15.503  0.00  0.00    +0.000 C 
ATOM     11  C   UNL     1       5.367   4.035  16.422  0.00  0.00    +0.000 C 
ATOM     12  C   UNL     1       6.100   4.319  17.730  0.00  0.00    +0.000 C 
ATOM     13  C   UNL     1       5.613   5.587  18.458  0.00  0.00    +0.000 C 
BRANCH   8  15
ATOM     14  N   UNL     1       8.004   7.649  17.065  0.00  0.00    +0.000 NA
ATOM     15  C   UNL     1       6.914   7.294  17.254  0.00  0.00    +0.000 C 
ENDBRANCH   8  15
ENDBRANCH   1  13
BRANCH   5  16
ATOM     16  C   UNL     1       1.396   8.093  20.653  0.00  0.00    +0.000 A 
ATOM     17  C   UNL     1       1.238   8.836  19.479  0.00  0.00    +0.000 A 
ATOM     18  C   UNL     1       1.006  10.218  19.529  0.00  0.00    +0.000 A 
ATOM     19  C   UNL     1       0.936  10.849  20.767  0.00  0.00    +0.000 A 
ATOM     20  N   UNL     1       1.100  10.170  21.929  0.00  0.00    +0.000 NA
ATOM     21  C   UNL     1       1.323   8.829  21.837  0.00  0.00    +0.000 A 
BRANCH  19  22
ATOM     22  C   UNL     1       0.647  12.332  20.899  0.00  0.00    +0.000 C 
BRANCH  22  23
ATOM     23  C   UNL     1       1.937  13.139  20.752  0.00  0.00    +0.000 C 
ATOM     24  F   UNL     1       2.241  13.310  19.437  0.00  0.00    +0.000 F 
ATOM     25  F   UNL     1       1.757  14.394  21.250  0.00  0.00    +0.000 F 
ENDBRANCH  22  23
BRANCH  22  26
ATOM     26  O   UNL     1       0.047  12.571  22.192  0.00  0.00    +0.000 OA
ATOM     27  H   UNL     1      -0.883  12.270  22.103  0.00  0.00    +0.000 HD
ENDBRANCH  22  26
ENDBRANCH  19  22
ENDBRANCH   5  16
BRANCH   3  28
ATOM     28  C   UNL     1       1.863   3.656  21.138  0.00  0.00    +0.000 C 
ATOM     29  N   UNL     1       0.678   3.289  20.561  0.00  0.00    +0.000 N 
ATOM     30  O   UNL     1       2.184   3.230  22.244  0.00  0.00    +0.000 OA
ATOM     31  H   UNL     1       0.444   3.505  19.604  0.00  0.00    +0.000 HD
ATOM     32  H   UNL     1       0.097   2.629  21.057  0.00  0.00    +0.000 HD
ENDBRANCH   3  28
TORSDOF 7
ENDMDL
MODEL 4
REMARK VINA RESULT:      -7.7      2.854      4.815
REMARK  Name = 
REMARK  7 active torsions:
REMARK  status: ('A' for Active; 'I' for Inactive)
REMARK    1  A    between atoms: C_2  and  C_3
REMARK    2  A    between atoms: C_8  and  N_9
REMARK    3  A    between atoms: C_11  and  C_12
REMARK    4  A    between atoms: N_16  and  C_17
REMARK    5  A    between atoms: C_20  and  C_21
REMARK    6  A    between atoms: C_21  and  O_22
REMARK    7  A    between atoms: C_21  and  C_23
REMARK                            x       y       z     vdW  Elec       q    Type
REMARK                         _______ _______ _______ _____ _____    ______ ____
ROOT
ATOM      1  N   UNL     1       2.824   5.425  18.669  0.00  0.00    +0.000 N 
ATOM      2  C   UNL     1       3.918   5.275  17.872  0.00  0.00    +0.000 A 
ATOM      3  C   UNL     1       4.211   6.536  17.374  0.00  0.00    +0.000 A 
ATOM      4  C   UNL     1       3.204   7.385  17.933  0.00  0.00    +0.000 A 
ATOM      5  N   UNL     1       3.052   8.702  17.631  0.00  0.00    +0.000 N 
ATOM      6  N   UNL     1       2.395   6.684  18.728  0.00  0.00    +0.000 NA
ATOM      7  H   UNL     1       3.756   9.126  17.026  0.00  0.00    +0.000 HD
ENDROOT
BRANCH   1  13
ATOM      8  C   UNL     1       2.963   3.626  20.376  0.00  0.00    +0.000 C 
ATOM      9  C   UNL     1       3.904   2.599  19.729  0.00  0.00    +0.000 C 
ATOM     10  C   UNL     1       3.210   1.671  18.734  0.00  0.00    +0.000 C 
ATOM     11  C   UNL     1       2.324   2.396  17.724  0.00  0.00    +0.000 C 
ATOM     12  C   UNL     1       1.383   3.409  18.369  0.00  0.00    +0.000 C 
ATOM     13  C   UNL     1       2.077   4.370  19.353  0.00  0.00    +0.000 C 
BRANCH   8  15
ATOM     14  N   UNL     1       1.446   2.430  22.173  0.00  0.00    +0.000 NA
ATOM     15  C   UNL     1       2.099   2.967  21.375  0.00  0.00    +0.000 C 
ENDBRANCH   8  15
ENDBRANCH   1  13
BRANCH   5  16
ATOM     16  C   UNL     1       1.932   9.533  17.869  0.00  0.00    +0.000 A 
ATOM     17  C   UNL     1       0.641   9.064  17.605  0.00  0.00    +0.000 A 
ATOM     18  C   UNL     1      -0.484   9.824  17.954  0.00  0.00    +0.000 A 
ATOM     19  C   UNL     1      -0.304  11.059  18.569  0.00  0.00    +0.000 A 
ATOM     20  N   UNL     1       0.929  11.559  18.828  0.00  0.00    +0.000 NA
ATOM     21  C   UNL     1       1.996  10.790  18.474  0.00  0.00    +0.000 A 
BRANCH  19  22
ATOM     22  C   UNL     1      -1.475  11.916  19.011  0.00  0.00    +0.000 C 
BRANCH  22  23
ATOM     23  C   UNL     1      -2.783  11.358  18.448  0.00  0.00    +0.000 C 
ATOM     24  F   UNL     1      -3.843  11.839  19.150  0.00  0.00    +0.000 F 
ATOM     25  F   UNL     1      -2.962  11.799  17.171  0.00  0.00    +0.000 F 
ENDBRANCH  22  23
BRANCH  22  26
ATOM     26  O   UNL     1      -1.260  13.266  18.543  0.00  0.00    +0.000 OA
ATOM     27  H   UNL     1      -1.166  13.807  19.356  0.00  0.00    +0.000 HD
ENDBRANCH  22  26
ENDBRANCH  19  22
ENDBRANCH   5  16
BRANCH   3  28
ATOM     28  C   UNL     1       5.274   6.891  16.455  0.00  0.00    +0.000 C 
ATOM     29  N   UNL     1       6.445   7.311  17.024  0.00  0.00    +0.000 N 
ATOM     30  O   UNL     1       5.160   6.807  15.236  0.00  0.00    +0.000 OA
ATOM     31  H   UNL     1       6.622   7.261  18.015  0.00  0.00    +0.000 HD
ATOM     32  H   UNL     1       7.221   7.512  16.410  0.00  0.00    +0.000 HD
ENDBRANCH   3  28
TORSDOF 7
ENDMDL
MODEL 5
REMARK VINA RESULT:      -7.7      0.985      1.042
REMARK  Name = 
REMARK  7 active torsions:
REMARK  status: ('A' for Active; 'I' for Inactive)
REMARK    1  A    between atoms: C_2  and  C_3
REMARK    2  A    between atoms: C_8  and  N_9
REMARK    3  A    between atoms: C_11  and  C_12
REMARK    4  A    between atoms: N_16  and  C_17
REMARK    5  A    between atoms: C_20  and  C_21
REMARK    6  A    between atoms: C_21  and  O_22
REMARK    7  A    between atoms: C_21  and  C_23
REMARK                            x       y       z     vdW  Elec       q    Type
REMARK                         _______ _______ _______ _____ _____    ______ ____
ROOT
ATOM      1  N   UNL     1       4.371   5.340  19.094  0.00  0.00    +0.000 N 
ATOM      2  C   UNL     1       3.919   4.168  19.620  0.00  0.00    +0.000 A 
ATOM      3  C   UNL     1       2.710   4.459  20.234  0.00  0.00    +0.000 A 
ATOM      4  C   UNL     1       2.532   5.863  20.026  0.00  0.00    +0.000 A 
ATOM      5  N   UNL     1       1.513   6.597  20.548  0.00  0.00    +0.000 N 
ATOM      6  N   UNL     1       3.545   6.360  19.315  0.00  0.00    +0.000 NA
ATOM      7  H   UNL     1       0.786   6.091  21.055  0.00  0.00    +0.000 HD
ENDROOT
BRANCH   1  13
ATOM      8  C   UNL     1       5.590   6.817  17.512  0.00  0.00    +0.000 C 
ATOM      9  C   UNL     1       4.888   6.550  16.171  0.00  0.00    +0.000 C 
ATOM     10  C   UNL     1       5.383   5.293  15.458  0.00  0.00    +0.000 C 
ATOM     11  C   UNL     1       5.457   4.060  16.354  0.00  0.00    +0.000 C 
ATOM     12  C   UNL     1       6.162   4.324  17.682  0.00  0.00    +0.000 C 
ATOM     13  C   UNL     1       5.651   5.573  18.425  0.00  0.00    +0.000 C 
BRANCH   8  15
ATOM     14  N   UNL     1       8.029   7.717  17.066  0.00  0.00    +0.000 NA
ATOM     15  C   UNL     1       6.960   7.314  17.279  0.00  0.00    +0.000 C 
ENDBRANCH   8  15
ENDBRANCH   1  13
BRANCH   5  16
ATOM     16  C   UNL     1       1.417   8.003  20.672  0.00  0.00    +0.000 A 
ATOM     17  C   UNL     1       1.307   8.802  19.529  0.00  0.00    +0.000 A 
ATOM     18  C   UNL     1       1.082  10.182  19.636  0.00  0.00    +0.000 A 
ATOM     19  C   UNL     1       0.970  10.754  20.899  0.00  0.00    +0.000 A 
ATOM     20  N   UNL     1       1.087  10.020  22.033  0.00  0.00    +0.000 NA
ATOM     21  C   UNL     1       1.305   8.683  21.886  0.00  0.00    +0.000 A 
BRANCH  19  22
ATOM     22  C   UNL     1       0.686  12.232  21.090  0.00  0.00    +0.000 C 
BRANCH  22  23
ATOM     23  C   UNL     1      -0.228  12.744  19.977  0.00  0.00    +0.000 C 
ATOM     24  F   UNL     1      -1.462  12.182  20.082  0.00  0.00    +0.000 F 
ATOM     25  F   UNL     1      -0.427  14.085  20.122  0.00  0.00    +0.000 F 
ENDBRANCH  22  23
BRANCH  22  26
ATOM     26  O   UNL     1       1.943  12.947  21.080  0.00  0.00    +0.000 OA
ATOM     27  H   UNL     1       2.597  12.310  20.722  0.00  0.00    +0.000 HD
ENDBRANCH  22  26
ENDBRANCH  19  22
ENDBRANCH   5  16
BRANCH   3  28
ATOM     28  C   UNL     1       1.851   3.545  20.960  0.00  0.00    +0.000 C 
ATOM     29  N   UNL     1       2.434   2.868  21.996  0.00  0.00    +0.000 N 
ATOM     30  O   UNL     1       0.664   3.389  20.693  0.00  0.00    +0.000 OA
ATOM     31  H   UNL     1       3.363   3.071  22.331  0.00  0.00    +0.000 HD
ATOM     32  H   UNL     1       1.846   2.266  22.555  0.00  0.00    +0.000 HD
ENDBRANCH   3  28
TORSDOF 7
ENDMDL
MODEL 6
REMARK VINA RESULT:      -7.6      1.516      1.780
REMARK  Name = 
REMARK  7 active torsions:
REMARK  status: ('A' for Active; 'I' for Inactive)
REMARK    1  A    between atoms: C_2  and  C_3
REMARK    2  A    between atoms: C_8  and  N_9
REMARK    3  A    between atoms: C_11  and  C_12
REMARK    4  A    between atoms: N_16  and  C_17
REMARK    5  A    between atoms: C_20  and  C_21
REMARK    6  A    between atoms: C_21  and  O_22
REMARK    7  A    between atoms: C_21  and  C_23
REMARK                            x       y       z     vdW  Elec       q    Type
REMARK                         _______ _______ _______ _____ _____    ______ ____
ROOT
ATOM      1  N   UNL     1       4.317   5.396  19.176  0.00  0.00    +0.000 N 
ATOM      2  C   UNL     1       3.924   4.249  19.796  0.00  0.00    +0.000 A 
ATOM      3  C   UNL     1       2.685   4.518  20.361  0.00  0.00    +0.000 A 
ATOM      4  C   UNL     1       2.428   5.885  20.026  0.00  0.00    +0.000 A 
ATOM      5  N   UNL     1       1.356   6.597  20.463  0.00  0.00    +0.000 N 
ATOM      6  N   UNL     1       3.426   6.378  19.292  0.00  0.00    +0.000 NA
ATOM      7  H   UNL     1       0.649   6.094  21.001  0.00  0.00    +0.000 HD
ENDROOT
BRANCH   1  13
ATOM      8  C   UNL     1       5.502   6.854  17.553  0.00  0.00    +0.000 C 
ATOM      9  C   UNL     1       4.825   6.516  16.216  0.00  0.00    +0.000 C 
ATOM     10  C   UNL     1       5.369   5.251  15.554  0.00  0.00    +0.000 C 
ATOM     11  C   UNL     1       5.474   4.055  16.496  0.00  0.00    +0.000 C 
ATOM     12  C   UNL     1       6.156   4.390  17.819  0.00  0.00    +0.000 C 
ATOM     13  C   UNL     1       5.595   5.647  18.511  0.00  0.00    +0.000 C 
BRANCH   8  15
ATOM     14  N   UNL     1       7.911   7.841  17.125  0.00  0.00    +0.000 NA
ATOM     15  C   UNL     1       6.858   7.389  17.316  0.00  0.00    +0.000 C 
ENDBRANCH   8  15
ENDBRANCH   1  13
BRANCH   5  16
ATOM     16  C   UNL     1       1.173   8.000  20.459  0.00  0.00    +0.000 A 
ATOM     17  C   UNL     1       1.024   8.691  21.666  0.00  0.00    +0.000 A 
ATOM     18  C   UNL     1       0.971  10.092  21.689  0.00  0.00    +0.000 A 
ATOM     19  C   UNL     1       1.066  10.794  20.491  0.00  0.00    +0.000 A 
ATOM     20  N   UNL     1       1.195  10.164  19.298  0.00  0.00    +0.000 NA
ATOM     21  C   UNL     1       1.244   8.802  19.319  0.00  0.00    +0.000 A 
BRANCH  19  22
ATOM     22  C   UNL     1       1.057  12.310  20.445  0.00  0.00    +0.000 C 
BRANCH  22  23
ATOM     23  C   UNL     1       1.371  12.799  19.030  0.00  0.00    +0.000 C 
ATOM     24  F   UNL     1       0.858  14.044  18.836  0.00  0.00    +0.000 F 
ATOM     25  F   UNL     1       2.718  12.933  18.875  0.00  0.00    +0.000 F 
ENDBRANCH  22  23
BRANCH  22  26
ATOM     26  O   UNL     1       2.043  12.805  21.379  0.00  0.00    +0.000 OA
ATOM     27  H   UNL     1       2.424  12.004  21.798  0.00  0.00    +0.000 HD
ENDBRANCH  22  26
ENDBRANCH  19  22
ENDBRANCH   5  16
BRANCH   3  28
ATOM     28  C   UNL     1       1.867   3.620  21.150  0.00  0.00    +0.000 C 
ATOM     29  N   UNL     1       0.711   3.185  20.562  0.00  0.00    +0.000 N 
ATOM     30  O   UNL     1       2.184   3.241  22.274  0.00  0.00    +0.000 OA
ATOM     31  H   UNL     1       0.487   3.363  19.595  0.00  0.00    +0.000 HD
ATOM     32  H   UNL     1       0.149   2.515  21.067  0.00  0.00    +0.000 HD
ENDBRANCH   3  28
TORSDOF 7
ENDMDL
MODEL 7
REMARK VINA RESULT:      -7.5      0.915      1.259
REMARK  Name = 
REMARK  7 active torsions:
REMARK  status: ('A' for Active; 'I' for Inactive)
REMARK    1  A    between atoms: C_2  and  C_3
REMARK    2  A    between atoms: C_8  and  N_9
REMARK    3  A    between atoms: C_11  and  C_12
REMARK    4  A    between atoms: N_16  and  C_17
REMARK    5  A    between atoms: C_20  and  C_21
REMARK    6  A    between atoms: C_21  and  O_22
REMARK    7  A    between atoms: C_21  and  C_23
REMARK                            x       y       z     vdW  Elec       q    Type
REMARK                         _______ _______ _______ _____ _____    ______ ____
ROOT
ATOM      1  N   UNL     1       4.297   5.411  19.186  0.00  0.00    +0.000 N 
ATOM      2  C   UNL     1       3.906   4.248  19.777  0.00  0.00    +0.000 A 
ATOM      3  C   UNL     1       2.669   4.502  20.352  0.00  0.00    +0.000 A 
ATOM      4  C   UNL     1       2.411   5.877  20.054  0.00  0.00    +0.000 A 
ATOM      5  N   UNL     1       1.340   6.578  20.513  0.00  0.00    +0.000 N 
ATOM      6  N   UNL     1       3.407   6.390  19.330  0.00  0.00    +0.000 NA
ATOM      7  H   UNL     1       0.634   6.060  21.039  0.00  0.00    +0.000 HD
ENDROOT
BRANCH   1  13
ATOM      8  C   UNL     1       5.463   6.877  17.555  0.00  0.00    +0.000 C 
ATOM      9  C   UNL     1       4.797   6.515  16.219  0.00  0.00    +0.000 C 
ATOM     10  C   UNL     1       5.367   5.255  15.570  0.00  0.00    +0.000 C 
ATOM     11  C   UNL     1       5.489   4.069  16.521  0.00  0.00    +0.000 C 
ATOM     12  C   UNL     1       6.159   4.427  17.845  0.00  0.00    +0.000 C 
ATOM     13  C   UNL     1       5.573   5.680  18.524  0.00  0.00    +0.000 C 
BRANCH   8  15
ATOM     14  N   UNL     1       7.880   7.858  17.163  0.00  0.00    +0.000 NA
ATOM     15  C   UNL     1       6.809   7.435  17.319  0.00  0.00    +0.000 C 
ENDBRANCH   8  15
ENDBRANCH   1  13
BRANCH   5  16
ATOM     16  C   UNL     1       1.157   7.980  20.546  0.00  0.00    +0.000 A 
ATOM     17  C   UNL     1       0.989   8.637  21.770  0.00  0.00    +0.000 A 
ATOM     18  C   UNL     1       0.935  10.036  21.833  0.00  0.00    +0.000 A 
ATOM     19  C   UNL     1       1.049  10.772  20.657  0.00  0.00    +0.000 A 
ATOM     20  N   UNL     1       1.196  10.176  19.448  0.00  0.00    +0.000 NA
ATOM     21  C   UNL     1       1.245   8.815  19.431  0.00  0.00    +0.000 A 
BRANCH  19  22
ATOM     22  C   UNL     1       1.041  12.289  20.654  0.00  0.00    +0.000 C 
BRANCH  22  23
ATOM     23  C   UNL     1      -0.315  12.810  20.175  0.00  0.00    +0.000 C 
ATOM     24  F   UNL     1      -0.340  12.884  18.817  0.00  0.00    +0.000 F 
ATOM     25  F   UNL     1      -1.295  11.925  20.509  0.00  0.00    +0.000 F 
ENDBRANCH  22  23
BRANCH  22  26
ATOM     26  O   UNL     1       2.096  12.753  19.783  0.00  0.00    +0.000 OA
ATOM     27  H   UNL     1       1.910  13.705  19.639  0.00  0.00    +0.000 HD
ENDBRANCH  22  26
ENDBRANCH  19  22
ENDBRANCH   5  16
BRANCH   3  28
ATOM     28  C   UNL     1       1.853   3.583  21.120  0.00  0.00    +0.000 C 
ATOM     29  N   UNL     1       0.694   3.165  20.524  0.00  0.00    +0.000 N 
ATOM     30  O   UNL     1       2.173   3.173  22.231  0.00  0.00    +0.000 OA
ATOM     31  H   UNL     1       0.467   3.370  19.564  0.00  0.00    +0.000 HD
ATOM     32  H   UNL     1       0.133   2.482  21.013  0.00  0.00    +0.000 HD
ENDBRANCH   3  28
TORSDOF 7
ENDMDL
MODEL 8
REMARK VINA RESULT:      -7.5      2.753      4.733
REMARK  Name = 
REMARK  7 active torsions:
REMARK  status: ('A' for Active; 'I' for Inactive)
REMARK    1  A    between atoms: C_2  and  C_3
REMARK    2  A    between atoms: C_8  and  N_9
REMARK    3  A    between atoms: C_11  and  C_12
REMARK    4  A    between atoms: N_16  and  C_17
REMARK    5  A    between atoms: C_20  and  C_21
REMARK    6  A    between atoms: C_21  and  O_22
REMARK    7  A    between atoms: C_21  and  C_23
REMARK                            x       y       z     vdW  Elec       q    Type
REMARK                         _______ _______ _______ _____ _____    ______ ____
ROOT
ATOM      1  N   UNL     1       2.810   5.398  18.664  0.00  0.00    +0.000 N 
ATOM      2  C   UNL     1       3.864   5.251  17.815  0.00  0.00    +0.000 A 
ATOM      3  C   UNL     1       4.156   6.519  17.334  0.00  0.00    +0.000 A 
ATOM      4  C   UNL     1       3.190   7.370  17.960  0.00  0.00    +0.000 A 
ATOM      5  N   UNL     1       3.047   8.696  17.698  0.00  0.00    +0.000 N 
ATOM      6  N   UNL     1       2.406   6.662  18.773  0.00  0.00    +0.000 NA
ATOM      7  H   UNL     1       3.730   9.125  17.072  0.00  0.00    +0.000 HD
ENDROOT
BRANCH   1  13
ATOM      8  C   UNL     1       2.975   3.603  20.373  0.00  0.00    +0.000 C 
ATOM      9  C   UNL     1       3.920   2.583  19.720  0.00  0.00    +0.000 C 
ATOM     10  C   UNL     1       3.226   1.647  18.731  0.00  0.00    +0.000 C 
ATOM     11  C   UNL     1       2.327   2.363  17.727  0.00  0.00    +0.000 C 
ATOM     12  C   UNL     1       1.383   3.370  18.378  0.00  0.00    +0.000 C 
ATOM     13  C   UNL     1       2.076   4.338  19.355  0.00  0.00    +0.000 C 
BRANCH   8  15
ATOM     14  N   UNL     1       1.426   2.431  22.157  0.00  0.00    +0.000 NA
ATOM     15  C   UNL     1       2.124   2.938  21.379  0.00  0.00    +0.000 C 
ENDBRANCH   8  15
ENDBRANCH   1  13
BRANCH   5  16
ATOM     16  C   UNL     1       1.954   9.539  18.008  0.00  0.00    +0.000 A 
ATOM     17  C   UNL     1       2.179  10.847  18.450  0.00  0.00    +0.000 A 
ATOM     18  C   UNL     1       1.112  11.736  18.638  0.00  0.00    +0.000 A 
ATOM     19  C   UNL     1      -0.185  11.302  18.380  0.00  0.00    +0.000 A 
ATOM     20  N   UNL     1      -0.450  10.038  17.966  0.00  0.00    +0.000 NA
ATOM     21  C   UNL     1       0.615   9.206  17.795  0.00  0.00    +0.000 A 
BRANCH  19  22
ATOM     22  C   UNL     1      -1.383  12.220  18.522  0.00  0.00    +0.000 C 
BRANCH  22  23
ATOM     23  C   UNL     1      -2.179  11.864  19.778  0.00  0.00    +0.000 C 
ATOM     24  F   UNL     1      -1.400  12.001  20.885  0.00  0.00    +0.000 F 
ATOM     25  F   UNL     1      -3.203  12.747  19.943  0.00  0.00    +0.000 F 
ENDBRANCH  22  23
BRANCH  22  26
ATOM     26  O   UNL     1      -2.211  12.082  17.345  0.00  0.00    +0.000 OA
ATOM     27  H   UNL     1      -1.946  12.821  16.756  0.00  0.00    +0.000 HD
ENDBRANCH  22  26
ENDBRANCH  19  22
ENDBRANCH   5  16
BRANCH   3  28
ATOM     28  C   UNL     1       5.182   6.881  16.377  0.00  0.00    +0.000 C 
ATOM     29  N   UNL     1       6.409   7.190  16.899  0.00  0.00    +0.000 N 
ATOM     30  O   UNL     1       4.991   6.893  15.165  0.00  0.00    +0.000 OA
ATOM     31  H   UNL     1       6.640   7.058  17.871  0.00  0.00    +0.000 HD
ATOM     32  H   UNL     1       7.158   7.392  16.252  0.00  0.00    +0.000 HD
ENDBRANCH   3  28
TORSDOF 7
ENDMDL
MODEL 9
REMARK VINA RESULT:      -7.4      2.673      4.637
REMARK  Name = 
REMARK  7 active torsions:
REMARK  status: ('A' for Active; 'I' for Inactive)
REMARK    1  A    between atoms: C_2  and  C_3
REMARK    2  A    between atoms: C_8  and  N_9
REMARK    3  A    between atoms: C_11  and  C_12
REMARK    4  A    between atoms: N_16  and  C_17
REMARK    5  A    between atoms: C_20  and  C_21
REMARK    6  A    between atoms: C_21  and  O_22
REMARK    7  A    between atoms: C_21  and  C_23
REMARK                            x       y       z     vdW  Elec       q    Type
REMARK                         _______ _______ _______ _____ _____    ______ ____
ROOT
ATOM      1  N   UNL     1       2.822   5.442  18.673  0.00  0.00    +0.000 N 
ATOM      2  C   UNL     1       3.900   5.281  17.857  0.00  0.00    +0.000 A 
ATOM      3  C   UNL     1       4.198   6.539  17.353  0.00  0.00    +0.000 A 
ATOM      4  C   UNL     1       3.210   7.398  17.930  0.00  0.00    +0.000 A 
ATOM      5  N   UNL     1       3.065   8.716  17.632  0.00  0.00    +0.000 N 
ATOM      6  N   UNL     1       2.408   6.705  18.739  0.00  0.00    +0.000 NA
ATOM      7  H   UNL     1       3.763   9.134  17.014  0.00  0.00    +0.000 HD
ENDROOT
BRANCH   1  13
ATOM      8  C   UNL     1       2.968   3.652  20.389  0.00  0.00    +0.000 C 
ATOM      9  C   UNL     1       3.899   2.617  19.739  0.00  0.00    +0.000 C 
ATOM     10  C   UNL     1       3.192   1.686  18.755  0.00  0.00    +0.000 C 
ATOM     11  C   UNL     1       2.301   2.409  17.750  0.00  0.00    +0.000 C 
ATOM     12  C   UNL     1       1.370   3.430  18.397  0.00  0.00    +0.000 C 
ATOM     13  C   UNL     1       2.077   4.394  19.369  0.00  0.00    +0.000 C 
BRANCH   8  15
ATOM     14  N   UNL     1       1.444   2.460  22.182  0.00  0.00    +0.000 NA
ATOM     15  C   UNL     1       2.109   3.002  21.399  0.00  0.00    +0.000 C 
ENDBRANCH   8  15
ENDBRANCH   1  13
BRANCH   5  16
ATOM     16  C   UNL     1       1.958   9.559  17.889  0.00  0.00    +0.000 A 
ATOM     17  C   UNL     1       0.657   9.087  17.692  0.00  0.00    +0.000 A 
ATOM     18  C   UNL     1      -0.452   9.861  18.063  0.00  0.00    +0.000 A 
ATOM     19  C   UNL     1      -0.243  11.114  18.632  0.00  0.00    +0.000 A 
ATOM     20  N   UNL     1       1.000  11.618  18.824  0.00  0.00    +0.000 NA
ATOM     21  C   UNL     1       2.050  10.833  18.452  0.00  0.00    +0.000 A 
BRANCH  19  22
ATOM     22  C   UNL     1      -1.393  11.989  19.094  0.00  0.00    +0.000 C 
BRANCH  22  23
ATOM     23  C   UNL     1      -1.422  12.063  20.621  0.00  0.00    +0.000 C 
ATOM     24  F   UNL     1      -2.693  12.264  21.061  0.00  0.00    +0.000 F 
ATOM     25  F   UNL     1      -1.040  10.867  21.150  0.00  0.00    +0.000 F 
ENDBRANCH  22  23
BRANCH  22  26
ATOM     26  O   UNL     1      -2.628  11.428  18.593  0.00  0.00    +0.000 OA
ATOM     27  H   UNL     1      -2.508  11.372  17.621  0.00  0.00    +0.000 HD
ENDBRANCH  22  26
ENDBRANCH  19  22
ENDBRANCH   5  16
BRANCH   3  28
ATOM     28  C   UNL     1       5.248   6.884  16.417  0.00  0.00    +0.000 C 
ATOM     29  N   UNL     1       6.457   7.218  16.964  0.00  0.00    +0.000 N 
ATOM     30  O   UNL     1       5.092   6.862  15.199  0.00  0.00    +0.000 OA
ATOM     31  H   UNL     1       6.661   7.114  17.946  0.00  0.00    +0.000 HD
ATOM     32  H   UNL     1       7.222   7.409  16.334  0.00  0.00    +0.000 HD
ENDBRANCH   3  28
TORSDOF 7
ENDMDL
