MODEL 1
REMARK VINA RESULT:      -7.7      0.000      0.000
REMARK  Name = 
REMARK  6 active torsions:
REMARK  status: ('A' for Active; 'I' for Inactive)
REMARK    1  A    between atoms: C_2  and  C_3
REMARK    2  A    between atoms: C_3  and  N_4
REMARK    3  A    between atoms: N_15  and  CA_16
REMARK    4  A    between atoms: CA_16  and  C_17
REMARK    5  A    between atoms: CA_16  and  C_20
REMARK    6  A    between atoms: C_17  and  OXT_19
REMARK                            x       y       z     vdW  Elec       q    Type
REMARK                         _______ _______ _______ _____ _____    ______ ____
ROOT
ATOM      1  O   UNL     1       6.227   6.267  15.701  0.00  0.00    +0.000 OA
ATOM      2  C   UNL     1       6.694   5.134  15.763  0.00  0.00    +0.000 C 
ATOM      3  N   UNL     1       7.156   4.454  14.651  0.00  0.00    +0.000 N 
ATOM      4  H   UNL     1       7.243   3.452  14.816  0.00  0.00    +0.000 HD
ENDROOT
BRANCH   2   5
ATOM      5  C   UNL     1       7.012   4.440  17.095  0.00  0.00    +0.000 C 
BRANCH   5   6
ATOM      6  N   UNL     1       5.824   4.314  17.948  0.00  0.00    +0.000 N 
ATOM      7  N   UNL     1       4.761   3.595  17.433  0.00  0.00    +0.000 NA
ATOM      8  C   UNL     1       3.665   3.542  18.126  0.00  0.00    +0.000 A 
ATOM      9  C   UNL     1       3.490   4.160  19.461  0.00  0.00    +0.000 A 
ATOM     10  C   UNL     1       4.511   4.901  19.902  0.00  0.00    +0.000 A 
ATOM     11  C   UNL     1       5.749   5.061  19.115  0.00  0.00    +0.000 A 
ATOM     12  O   UNL     1       6.624   5.816  19.527  0.00  0.00    +0.000 OA
ATOM     13  C   UNL     1       2.219   3.963  20.227  0.00  0.00    +0.000 C 
ATOM     14  C   UNL     1       1.023   3.675  19.328  0.00  0.00    +0.000 C 
ATOM     15  C   UNL     1       1.343   2.531  18.375  0.00  0.00    +0.000 C 
ATOM     16  C   UNL     1       2.466   2.922  17.434  0.00  0.00    +0.000 C 
ENDBRANCH   5   6
ENDBRANCH   2   5
BRANCH   3  17
ATOM     17  CA  UNL     1       6.906   4.918  13.287  0.00  0.00    +0.000 C 
BRANCH  17  18
ATOM     18  C   UNL     1       6.589   3.722  12.412  0.00  0.00    +0.000 A 
ATOM     19  C   UNL     1       5.247   3.373  12.175  0.00  0.00    +0.000 A 
ATOM     20  C   UNL     1       4.932   2.257  11.402  0.00  0.00    +0.000 A 
ATOM     21  C   UNL     1       5.947   1.470  10.867  0.00  0.00    +0.000 A 
ATOM     22  C   UNL     1       7.280   1.791  11.105  0.00  0.00    +0.000 A 
ATOM     23  C   UNL     1       7.598   2.906  11.880  0.00  0.00    +0.000 A 
ENDBRANCH  17  18
BRANCH  17  24
ATOM     24  C   UNL     1       8.105   5.740  12.758  0.00  0.00    +0.000 C 
ATOM     25  O   UNL     1       9.187   5.846  13.316  0.00  0.00    +0.000 OA
BRANCH  24  26
ATOM     26  OXT UNL     1       7.848   6.377  11.581  0.00  0.00    +0.000 OA
ATOM     27  HXT UNL     1       7.624   5.726  10.883  0.00  0.00    +0.000 HD
ENDBRANCH  24  26
ENDBRANCH  17  24
ENDBRANCH   3  17
TORSDOF 6
ENDMDL
MODEL 2
REMARK VINA RESULT:      -7.6      6.094      8.448
REMARK  Name = 
REMARK  6 active torsions:
REMARK  status: ('A' for Active; 'I' for Inactive)
REMARK    1  A    between atoms: C_2  and  C_3
REMARK    2  A    between atoms: C_3  and  N_4
REMARK    3  A    between atoms: N_15  and  CA_16
REMARK    4  A    between atoms: CA_16  and  C_17
REMARK    5  A    between atoms: CA_16  and  C_20
REMARK    6  A    between atoms: C_17  and  OXT_19
REMARK                            x       y       z     vdW  Elec       q    Type
REMARK                         _______ _______ _______ _____ _____    ______ ____
ROOT
ATOM      1  O   UNL     1       2.213   9.054  17.255  0.00  0.00    +0.000 OA
ATOM      2  C   UNL     1       1.932   8.773  18.416  0.00  0.00    +0.000 C 
ATOM      3  N   UNL     1       2.168   7.525  18.962  0.00  0.00    +0.000 N 
ATOM      4  H   UNL     1       1.636   7.367  19.817  0.00  0.00    +0.000 HD
ENDROOT
BRANCH   2   5
ATOM      5  C   UNL     1       1.493   9.829  19.441  0.00  0.00    +0.000 C 
BRANCH   5   6
ATOM      6  N   UNL     1       0.127  10.304  19.192  0.00  0.00    +0.000 N 
ATOM      7  N   UNL     1      -0.501   9.826  18.057  0.00  0.00    +0.000 NA
ATOM      8  C   UNL     1      -1.674  10.296  17.763  0.00  0.00    +0.000 A 
ATOM      9  C   UNL     1      -2.414  11.277  18.592  0.00  0.00    +0.000 A 
ATOM     10  C   UNL     1      -1.754  11.767  19.647  0.00  0.00    +0.000 A 
ATOM     11  C   UNL     1      -0.385  11.327  19.978  0.00  0.00    +0.000 A 
ATOM     12  O   UNL     1       0.205  11.866  20.908  0.00  0.00    +0.000 OA
ATOM     13  C   UNL     1      -3.805  11.687  18.222  0.00  0.00    +0.000 C 
ATOM     14  C   UNL     1      -4.090  11.540  16.732  0.00  0.00    +0.000 C 
ATOM     15  C   UNL     1      -3.723  10.138  16.261  0.00  0.00    +0.000 C 
ATOM     16  C   UNL     1      -2.232   9.902  16.409  0.00  0.00    +0.000 C 
ENDBRANCH   5   6
ENDBRANCH   2   5
BRANCH   3  17
ATOM     17  CA  UNL     1       2.538   6.369  18.147  0.00  0.00    +0.000 C 
BRANCH  17  18
ATOM     18  C   UNL     1       1.962   5.118  18.778  0.00  0.00    +0.000 A 
ATOM     19  C   UNL     1       1.762   5.074  20.170  0.00  0.00    +0.000 A 
ATOM     20  C   UNL     1       1.266   3.921  20.776  0.00  0.00    +0.000 A 
ATOM     21  C   UNL     1       0.977   2.797  20.008  0.00  0.00    +0.000 A 
ATOM     22  C   UNL     1       1.186   2.818  18.632  0.00  0.00    +0.000 A 
ATOM     23  C   UNL     1       1.684   3.970  18.022  0.00  0.00    +0.000 A 
ENDBRANCH  17  18
BRANCH  17  24
ATOM     24  C   UNL     1       4.074   6.292  17.969  0.00  0.00    +0.000 C 
ATOM     25  O   UNL     1       4.846   5.752  18.747  0.00  0.00    +0.000 OA
BRANCH  24  26
ATOM     26  OXT UNL     1       4.520   6.910  16.840  0.00  0.00    +0.000 OA
ATOM     27  HXT UNL     1       4.407   6.324  16.062  0.00  0.00    +0.000 HD
ENDBRANCH  24  26
ENDBRANCH  17  24
ENDBRANCH   3  17
TORSDOF 6
ENDMDL
MODEL 3
REMARK VINA RESULT:      -7.6      2.368      3.722
REMARK  Name = 
REMARK  6 active torsions:
REMARK  status: ('A' for Active; 'I' for Inactive)
REMARK    1  A    between atoms: C_2  and  C_3
REMARK    2  A    between atoms: C_3  and  N_4
REMARK    3  A    between atoms: N_15  and  CA_16
REMARK    4  A    between atoms: CA_16  and  C_17
REMARK    5  A    between atoms: CA_16  and  C_20
REMARK    6  A    between atoms: C_17  and  OXT_19
REMARK                            x       y       z     vdW  Elec       q    Type
REMARK                         _______ _______ _______ _____ _____    ______ ____
ROOT
ATOM      1  O   UNL     1       5.085   7.495  15.718  0.00  0.00    +0.000 OA
ATOM      2  C   UNL     1       4.812   7.084  16.841  0.00  0.00    +0.000 C 
ATOM      3  N   UNL     1       5.696   6.341  17.601  0.00  0.00    +0.000 N 
ATOM      4  H   UNL     1       5.235   5.847  18.365  0.00  0.00    +0.000 HD
ENDROOT
BRANCH   2   5
ATOM      5  C   UNL     1       3.556   7.528  17.604  0.00  0.00    +0.000 C 
BRANCH   5   6
ATOM      6  N   UNL     1       2.986   6.441  18.408  0.00  0.00    +0.000 N 
ATOM      7  N   UNL     1       2.978   5.182  17.837  0.00  0.00    +0.000 NA
ATOM      8  C   UNL     1       2.400   4.219  18.487  0.00  0.00    +0.000 A 
ATOM      9  C   UNL     1       1.789   4.364  19.830  0.00  0.00    +0.000 A 
ATOM     10  C   UNL     1       1.756   5.605  20.326  0.00  0.00    +0.000 A 
ATOM     11  C   UNL     1       2.326   6.750  19.589  0.00  0.00    +0.000 A 
ATOM     12  O   UNL     1       2.199   7.879  20.052  0.00  0.00    +0.000 OA
ATOM     13  C   UNL     1       1.232   3.173  20.543  0.00  0.00    +0.000 C 
ATOM     14  C   UNL     1       0.793   2.065  19.592  0.00  0.00    +0.000 C 
ATOM     15  C   UNL     1       1.918   1.723  18.625  0.00  0.00    +0.000 C 
ATOM     16  C   UNL     1       2.233   2.911  17.736  0.00  0.00    +0.000 C 
ENDBRANCH   5   6
ENDBRANCH   2   5
BRANCH   3  17
ATOM     17  CA  UNL     1       6.925   5.774  17.046  0.00  0.00    +0.000 C 
BRANCH  17  18
ATOM     18  C   UNL     1       6.585   5.000  15.788  0.00  0.00    +0.000 A 
ATOM     19  C   UNL     1       7.285   5.270  14.598  0.00  0.00    +0.000 A 
ATOM     20  C   UNL     1       6.966   4.595  13.421  0.00  0.00    +0.000 A 
ATOM     21  C   UNL     1       5.939   3.655  13.412  0.00  0.00    +0.000 A 
ATOM     22  C   UNL     1       5.225   3.389  14.577  0.00  0.00    +0.000 A 
ATOM     23  C   UNL     1       5.541   4.064  15.755  0.00  0.00    +0.000 A 
ENDBRANCH  17  18
BRANCH  17  24
ATOM     24  C   UNL     1       7.654   4.905  18.098  0.00  0.00    +0.000 C 
ATOM     25  O   UNL     1       8.484   4.044  17.847  0.00  0.00    +0.000 OA
BRANCH  24  26
ATOM     26  OXT UNL     1       7.273   5.171  19.379  0.00  0.00    +0.000 OA
ATOM     27  HXT UNL     1       7.130   6.134  19.499  0.00  0.00    +0.000 HD
ENDBRANCH  24  26
ENDBRANCH  17  24
ENDBRANCH   3  17
TORSDOF 6
ENDMDL
MODEL 4
REMARK VINA RESULT:      -7.6      0.196      1.173
REMARK  Name = 
REMARK  6 active torsions:
REMARK  status: ('A' for Active; 'I' for Inactive)
REMARK    1  A    between atoms: C_2  and  C_3
REMARK    2  A    between atoms: C_3  and  N_4
REMARK    3  A    between atoms: N_15  and  CA_16
REMARK    4  A    between atoms: CA_16  and  C_17
REMARK    5  A    between atoms: CA_16  and  C_20
REMARK    6  A    between atoms: C_17  and  OXT_19
REMARK                            x       y       z     vdW  Elec       q    Type
REMARK                         _______ _______ _______ _____ _____    ______ ____
ROOT
ATOM      1  O   UNL     1       6.169   6.335  15.620  0.00  0.00    +0.000 OA
ATOM      2  C   UNL     1       6.694   5.230  15.703  0.00  0.00    +0.000 C 
ATOM      3  N   UNL     1       7.149   4.534  14.599  0.00  0.00    +0.000 N 
ATOM      4  H   UNL     1       7.293   3.543  14.794  0.00  0.00    +0.000 HD
ENDROOT
BRANCH   2   5
ATOM      5  C   UNL     1       7.095   4.601  17.045  0.00  0.00    +0.000 C 
BRANCH   5   6
ATOM      6  N   UNL     1       5.936   4.377  17.917  0.00  0.00    +0.000 N 
ATOM      7  N   UNL     1       4.819   3.808  17.333  0.00  0.00    +0.000 NA
ATOM      8  C   UNL     1       3.749   3.681  18.056  0.00  0.00    +0.000 A 
ATOM      9  C   UNL     1       3.657   4.057  19.487  0.00  0.00    +0.000 A 
ATOM     10  C   UNL     1       4.732   4.662  20.004  0.00  0.00    +0.000 A 
ATOM     11  C   UNL     1       5.945   4.906  19.200  0.00  0.00    +0.000 A 
ATOM     12  O   UNL     1       6.873   5.536  19.698  0.00  0.00    +0.000 OA
ATOM     13  C   UNL     1       2.409   3.781  20.265  0.00  0.00    +0.000 C 
ATOM     14  C   UNL     1       1.165   3.712  19.386  0.00  0.00    +0.000 C 
ATOM     15  C   UNL     1       1.389   2.744  18.232  0.00  0.00    +0.000 C 
ATOM     16  C   UNL     1       2.494   3.247  17.323  0.00  0.00    +0.000 C 
ENDBRANCH   5   6
ENDBRANCH   2   5
BRANCH   3  17
ATOM     17  CA  UNL     1       6.826   4.935  13.230  0.00  0.00    +0.000 C 
BRANCH  17  18
ATOM     18  C   UNL     1       6.509   3.696  12.417  0.00  0.00    +0.000 A 
ATOM     19  C   UNL     1       7.561   2.930  11.883  0.00  0.00    +0.000 A 
ATOM     20  C   UNL     1       7.293   1.806  11.103  0.00  0.00    +0.000 A 
ATOM     21  C   UNL     1       5.977   1.441  10.835  0.00  0.00    +0.000 A 
ATOM     22  C   UNL     1       4.924   2.197  11.341  0.00  0.00    +0.000 A 
ATOM     23  C   UNL     1       5.190   3.323  12.120  0.00  0.00    +0.000 A 
ENDBRANCH  17  18
BRANCH  17  24
ATOM     24  C   UNL     1       7.975   5.769  12.616  0.00  0.00    +0.000 C 
ATOM     25  O   UNL     1       7.926   6.351  11.542  0.00  0.00    +0.000 OA
BRANCH  24  26
ATOM     26  OXT UNL     1       9.098   5.794  13.386  0.00  0.00    +0.000 OA
ATOM     27  HXT UNL     1       9.803   6.314  12.946  0.00  0.00    +0.000 HD
ENDBRANCH  24  26
ENDBRANCH  17  24
ENDBRANCH   3  17
TORSDOF 6
ENDMDL
MODEL 5
REMARK VINA RESULT:      -7.5      6.117      8.491
REMARK  Name = 
REMARK  6 active torsions:
REMARK  status: ('A' for Active; 'I' for Inactive)
REMARK    1  A    between atoms: C_2  and  C_3
REMARK    2  A    between atoms: C_3  and  N_4
REMARK    3  A    between atoms: N_15  and  CA_16
REMARK    4  A    between atoms: CA_16  and  C_17
REMARK    5  A    between atoms: CA_16  and  C_20
REMARK    6  A    between atoms: C_17  and  OXT_19
REMARK                            x       y       z     vdW  Elec       q    Type
REMARK                         _______ _______ _______ _____ _____    ______ ____
ROOT
ATOM      1  O   UNL     1       2.117   9.058  17.188  0.00  0.00    +0.000 OA
ATOM      2  C   UNL     1       1.879   8.791  18.361  0.00  0.00    +0.000 C 
ATOM      3  N   UNL     1       2.188   7.568  18.927  0.00  0.00    +0.000 N 
ATOM      4  H   UNL     1       1.686   7.404  19.799  0.00  0.00    +0.000 HD
ENDROOT
BRANCH   2   5
ATOM      5  C   UNL     1       1.417   9.848  19.374  0.00  0.00    +0.000 C 
BRANCH   5   6
ATOM      6  N   UNL     1       0.042  10.292  19.118  0.00  0.00    +0.000 N 
ATOM      7  N   UNL     1      -0.548   9.848  17.949  0.00  0.00    +0.000 NA
ATOM      8  C   UNL     1      -1.729  10.297  17.651  0.00  0.00    +0.000 A 
ATOM      9  C   UNL     1      -2.515  11.217  18.507  0.00  0.00    +0.000 A 
ATOM     10  C   UNL     1      -1.892  11.677  19.597  0.00  0.00    +0.000 A 
ATOM     11  C   UNL     1      -0.517  11.263  19.937  0.00  0.00    +0.000 A 
ATOM     12  O   UNL     1       0.037  11.776  20.904  0.00  0.00    +0.000 OA
ATOM     13  C   UNL     1      -3.910  11.602  18.126  0.00  0.00    +0.000 C 
ATOM     14  C   UNL     1      -4.160  11.514  16.625  0.00  0.00    +0.000 C 
ATOM     15  C   UNL     1      -3.741  10.148  16.099  0.00  0.00    +0.000 C 
ATOM     16  C   UNL     1      -2.247   9.948  16.269  0.00  0.00    +0.000 C 
ENDBRANCH   5   6
ENDBRANCH   2   5
BRANCH   3  17
ATOM     17  CA  UNL     1       2.592   6.412  18.127  0.00  0.00    +0.000 C 
BRANCH  17  18
ATOM     18  C   UNL     1       2.038   5.154  18.766  0.00  0.00    +0.000 A 
ATOM     19  C   UNL     1       1.751   4.037  17.960  0.00  0.00    +0.000 A 
ATOM     20  C   UNL     1       1.209   2.882  18.520  0.00  0.00    +0.000 A 
ATOM     21  C   UNL     1       0.934   2.830  19.883  0.00  0.00    +0.000 A 
ATOM     22  C   UNL     1       1.196   3.933  20.692  0.00  0.00    +0.000 A 
ATOM     23  C   UNL     1       1.737   5.091  20.134  0.00  0.00    +0.000 A 
ENDBRANCH  17  18
BRANCH  17  24
ATOM     24  C   UNL     1       4.130   6.367  17.965  0.00  0.00    +0.000 C 
ATOM     25  O   UNL     1       4.758   6.892  17.057  0.00  0.00    +0.000 OA
BRANCH  24  26
ATOM     26  OXT UNL     1       4.757   5.655  18.942  0.00  0.00    +0.000 OA
ATOM     27  HXT UNL     1       4.106   5.131  19.454  0.00  0.00    +0.000 HD
ENDBRANCH  24  26
ENDBRANCH  17  24
ENDBRANCH   3  17
TORSDOF 6
ENDMDL
MODEL 6
REMARK VINA RESULT:      -7.3      5.980      8.805
REMARK  Name = 
REMARK  6 active torsions:
REMARK  status: ('A' for Active; 'I' for Inactive)
REMARK    1  A    between atoms: C_2  and  C_3
REMARK    2  A    between atoms: C_3  and  N_4
REMARK    3  A    between atoms: N_15  and  CA_16
REMARK    4  A    between atoms: CA_16  and  C_17
REMARK    5  A    between atoms: CA_16  and  C_20
REMARK    6  A    between atoms: C_17  and  OXT_19
REMARK                            x       y       z     vdW  Elec       q    Type
REMARK                         _______ _______ _______ _____ _____    ______ ____
ROOT
ATOM      1  O   UNL     1       1.721   8.958  19.848  0.00  0.00    +0.000 OA
ATOM      2  C   UNL     1       1.552   8.940  18.633  0.00  0.00    +0.000 C 
ATOM      3  N   UNL     1       0.633   9.751  17.994  0.00  0.00    +0.000 N 
ATOM      4  H   UNL     1       0.415   9.426  17.052  0.00  0.00    +0.000 HD
ENDROOT
BRANCH   2   5
ATOM      5  C   UNL     1       2.482   8.178  17.678  0.00  0.00    +0.000 C 
BRANCH   5   6
ATOM      6  N   UNL     1       2.803   6.835  18.175  0.00  0.00    +0.000 N 
ATOM      7  N   UNL     1       1.856   6.226  18.978  0.00  0.00    +0.000 NA
ATOM      8  C   UNL     1       2.149   5.077  19.506  0.00  0.00    +0.000 A 
ATOM      9  C   UNL     1       3.415   4.344  19.265  0.00  0.00    +0.000 A 
ATOM     10  C   UNL     1       4.334   4.987  18.537  0.00  0.00    +0.000 A 
ATOM     11  C   UNL     1       4.082   6.332  17.983  0.00  0.00    +0.000 A 
ATOM     12  O   UNL     1       4.987   6.911  17.390  0.00  0.00    +0.000 OA
ATOM     13  C   UNL     1       3.622   2.979  19.840  0.00  0.00    +0.000 C 
ATOM     14  C   UNL     1       2.795   2.733  21.097  0.00  0.00    +0.000 C 
ATOM     15  C   UNL     1       1.332   3.069  20.840  0.00  0.00    +0.000 C 
ATOM     16  C   UNL     1       1.172   4.547  20.538  0.00  0.00    +0.000 C 
ENDBRANCH   5   6
ENDBRANCH   2   5
BRANCH   3  17
ATOM     17  CA  UNL     1      -0.379  10.515  18.721  0.00  0.00    +0.000 C 
BRANCH  17  18
ATOM     18  C   UNL     1      -1.630  10.608  17.870  0.00  0.00    +0.000 A 
ATOM     19  C   UNL     1      -2.674  11.465  18.265  0.00  0.00    +0.000 A 
ATOM     20  C   UNL     1      -3.847  11.541  17.517  0.00  0.00    +0.000 A 
ATOM     21  C   UNL     1      -4.000  10.757  16.376  0.00  0.00    +0.000 A 
ATOM     22  C   UNL     1      -2.984   9.892  15.981  0.00  0.00    +0.000 A 
ATOM     23  C   UNL     1      -1.809   9.813  16.729  0.00  0.00    +0.000 A 
ENDBRANCH  17  18
BRANCH  17  24
ATOM     24  C   UNL     1       0.167  11.905  19.127  0.00  0.00    +0.000 C 
ATOM     25  O   UNL     1       0.140  12.369  20.257  0.00  0.00    +0.000 OA
BRANCH  24  26
ATOM     26  OXT UNL     1       0.687  12.609  18.083  0.00  0.00    +0.000 OA
ATOM     27  HXT UNL     1      -0.016  12.829  17.436  0.00  0.00    +0.000 HD
ENDBRANCH  24  26
ENDBRANCH  17  24
ENDBRANCH   3  17
TORSDOF 6
ENDMDL
MODEL 7
REMARK VINA RESULT:      -7.2      5.621      8.802
REMARK  Name = 
REMARK  6 active torsions:
REMARK  status: ('A' for Active; 'I' for Inactive)
REMARK    1  A    between atoms: C_2  and  C_3
REMARK    2  A    between atoms: C_3  and  N_4
REMARK    3  A    between atoms: N_15  and  CA_16
REMARK    4  A    between atoms: CA_16  and  C_17
REMARK    5  A    between atoms: CA_16  and  C_20
REMARK    6  A    between atoms: C_17  and  OXT_19
REMARK                            x       y       z     vdW  Elec       q    Type
REMARK                         _______ _______ _______ _____ _____    ______ ____
ROOT
ATOM      1  O   UNL     1       1.993   7.958  19.985  0.00  0.00    +0.000 OA
ATOM      2  C   UNL     1       1.978   8.503  18.886  0.00  0.00    +0.000 C 
ATOM      3  N   UNL     1       1.241   9.643  18.627  0.00  0.00    +0.000 N 
ATOM      4  H   UNL     1       1.110   9.804  17.628  0.00  0.00    +0.000 HD
ENDROOT
BRANCH   2   5
ATOM      5  C   UNL     1       2.934   8.107  17.752  0.00  0.00    +0.000 C 
BRANCH   5   6
ATOM      6  N   UNL     1       3.161   6.658  17.703  0.00  0.00    +0.000 N 
ATOM      7  N   UNL     1       2.135   5.852  18.162  0.00  0.00    +0.000 NA
ATOM      8  C   UNL     1       2.340   4.571  18.215  0.00  0.00    +0.000 A 
ATOM      9  C   UNL     1       3.586   3.904  17.767  0.00  0.00    +0.000 A 
ATOM     10  C   UNL     1       4.580   4.715  17.389  0.00  0.00    +0.000 A 
ATOM     11  C   UNL     1       4.426   6.183  17.390  0.00  0.00    +0.000 A 
ATOM     12  O   UNL     1       5.395   6.883  17.111  0.00  0.00    +0.000 OA
ATOM     13  C   UNL     1       3.693   2.412  17.776  0.00  0.00    +0.000 C 
ATOM     14  C   UNL     1       2.772   1.757  18.799  0.00  0.00    +0.000 C 
ATOM     15  C   UNL     1       1.346   2.264  18.626  0.00  0.00    +0.000 C 
ATOM     16  C   UNL     1       1.273   3.751  18.915  0.00  0.00    +0.000 C 
ENDBRANCH   5   6
ENDBRANCH   2   5
BRANCH   3  17
ATOM     17  CA  UNL     1       0.233  10.155  19.554  0.00  0.00    +0.000 C 
BRANCH  17  18
ATOM     18  C   UNL     1      -1.007  10.535  18.771  0.00  0.00    +0.000 A 
ATOM     19  C   UNL     1      -1.916  11.458  19.319  0.00  0.00    +0.000 A 
ATOM     20  C   UNL     1      -3.081  11.797  18.632  0.00  0.00    +0.000 A 
ATOM     21  C   UNL     1      -3.360  11.212  17.401  0.00  0.00    +0.000 A 
ATOM     22  C   UNL     1      -2.479  10.284  16.852  0.00  0.00    +0.000 A 
ATOM     23  C   UNL     1      -1.314   9.942  17.538  0.00  0.00    +0.000 A 
ENDBRANCH  17  18
BRANCH  17  24
ATOM     24  C   UNL     1       0.796  11.334  20.383  0.00  0.00    +0.000 C 
ATOM     25  O   UNL     1       0.724  11.438  21.598  0.00  0.00    +0.000 OA
BRANCH  24  26
ATOM     26  OXT UNL     1       1.389  12.296  19.622  0.00  0.00    +0.000 OA
ATOM     27  HXT UNL     1       0.835  13.105  19.602  0.00  0.00    +0.000 HD
ENDBRANCH  24  26
ENDBRANCH  17  24
ENDBRANCH   3  17
TORSDOF 6
ENDMDL
MODEL 8
REMARK VINA RESULT:      -7.2      2.970      5.163
REMARK  Name = 
REMARK  6 active torsions:
REMARK  status: ('A' for Active; 'I' for Inactive)
REMARK    1  A    between atoms: C_2  and  C_3
REMARK    2  A    between atoms: C_3  and  N_4
REMARK    3  A    between atoms: N_15  and  CA_16
REMARK    4  A    between atoms: CA_16  and  C_17
REMARK    5  A    between atoms: CA_16  and  C_20
REMARK    6  A    between atoms: C_17  and  OXT_19
REMARK                            x       y       z     vdW  Elec       q    Type
REMARK                         _______ _______ _______ _____ _____    ______ ____
ROOT
ATOM      1  O   UNL     1       4.866   2.597  17.957  0.00  0.00    +0.000 OA
ATOM      2  C   UNL     1       4.228   3.395  17.278  0.00  0.00    +0.000 C 
ATOM      3  N   UNL     1       4.790   4.101  16.230  0.00  0.00    +0.000 N 
ATOM      4  H   UNL     1       4.227   4.907  15.958  0.00  0.00    +0.000 HD
ENDROOT
BRANCH   2   5
ATOM      5  C   UNL     1       2.703   3.534  17.377  0.00  0.00    +0.000 C 
BRANCH   5   6
ATOM      6  N   UNL     1       2.305   4.574  18.334  0.00  0.00    +0.000 N 
ATOM      7  N   UNL     1       2.238   5.869  17.854  0.00  0.00    +0.000 NA
ATOM      8  C   UNL     1       1.978   6.821  18.696  0.00  0.00    +0.000 A 
ATOM      9  C   UNL     1       1.694   6.609  20.136  0.00  0.00    +0.000 A 
ATOM     10  C   UNL     1       1.829   5.356  20.581  0.00  0.00    +0.000 A 
ATOM     11  C   UNL     1       2.205   4.250  19.679  0.00  0.00    +0.000 A 
ATOM     12  O   UNL     1       2.394   3.134  20.153  0.00  0.00    +0.000 OA
ATOM     13  C   UNL     1       1.307   7.761  21.009  0.00  0.00    +0.000 C 
ATOM     14  C   UNL     1       1.831   9.097  20.497  0.00  0.00    +0.000 C 
ATOM     15  C   UNL     1       1.450   9.288  19.035  0.00  0.00    +0.000 C 
ATOM     16  C   UNL     1       2.119   8.236  18.170  0.00  0.00    +0.000 C 
ENDBRANCH   5   6
ENDBRANCH   2   5
BRANCH   3  17
ATOM     17  CA  UNL     1       6.232   4.147  15.998  0.00  0.00    +0.000 C 
BRANCH  17  18
ATOM     18  C   UNL     1       6.843   5.202  16.899  0.00  0.00    +0.000 A 
ATOM     19  C   UNL     1       7.595   4.805  18.019  0.00  0.00    +0.000 A 
ATOM     20  C   UNL     1       8.136   5.756  18.881  0.00  0.00    +0.000 A 
ATOM     21  C   UNL     1       7.925   7.112  18.645  0.00  0.00    +0.000 A 
ATOM     22  C   UNL     1       7.169   7.521  17.551  0.00  0.00    +0.000 A 
ATOM     23  C   UNL     1       6.624   6.571  16.688  0.00  0.00    +0.000 A 
ENDBRANCH  17  18
BRANCH  17  24
ATOM     24  C   UNL     1       6.540   4.394  14.501  0.00  0.00    +0.000 C 
ATOM     25  O   UNL     1       5.894   3.945  13.566  0.00  0.00    +0.000 OA
BRANCH  24  26
ATOM     26  OXT UNL     1       7.642   5.168  14.296  0.00  0.00    +0.000 OA
ATOM     27  HXT UNL     1       8.428   4.762  14.718  0.00  0.00    +0.000 HD
ENDBRANCH  24  26
ENDBRANCH  17  24
ENDBRANCH   3  17
TORSDOF 6
ENDMDL
MODEL 9
REMARK VINA RESULT:      -7.1      4.472      8.502
REMARK  Name = 
REMARK  6 active torsions:
REMARK  status: ('A' for Active; 'I' for Inactive)
REMARK    1  A    between atoms: C_2  and  C_3
REMARK    2  A    between atoms: C_3  and  N_4
REMARK    3  A    between atoms: N_15  and  CA_16
REMARK    4  A    between atoms: CA_16  and  C_17
REMARK    5  A    between atoms: CA_16  and  C_20
REMARK    6  A    between atoms: C_17  and  OXT_19
REMARK                            x       y       z     vdW  Elec       q    Type
REMARK                         _______ _______ _______ _____ _____    ______ ____
ROOT
ATOM      1  O   UNL     1       0.396   5.250  20.493  0.00  0.00    +0.000 OA
ATOM      2  C   UNL     1       1.539   5.601  20.770  0.00  0.00    +0.000 C 
ATOM      3  N   UNL     1       1.849   6.885  21.176  0.00  0.00    +0.000 N 
ATOM      4  H   UNL     1       2.844   7.090  21.094  0.00  0.00    +0.000 HD
ENDROOT
BRANCH   2   5
ATOM      5  C   UNL     1       2.702   4.607  20.901  0.00  0.00    +0.000 C 
BRANCH   5   6
ATOM      6  N   UNL     1       3.396   4.399  19.625  0.00  0.00    +0.000 N 
ATOM      7  N   UNL     1       4.092   5.479  19.112  0.00  0.00    +0.000 NA
ATOM      8  C   UNL     1       4.640   5.353  17.943  0.00  0.00    +0.000 A 
ATOM      9  C   UNL     1       4.617   4.108  17.137  0.00  0.00    +0.000 A 
ATOM     10  C   UNL     1       3.884   3.105  17.631  0.00  0.00    +0.000 A 
ATOM     11  C   UNL     1       3.171   3.227  18.918  0.00  0.00    +0.000 A 
ATOM     12  O   UNL     1       2.448   2.307  19.287  0.00  0.00    +0.000 OA
ATOM     13  C   UNL     1       5.362   4.029  15.842  0.00  0.00    +0.000 C 
ATOM     14  C   UNL     1       5.555   5.391  15.185  0.00  0.00    +0.000 C 
ATOM     15  C   UNL     1       6.163   6.374  16.177  0.00  0.00    +0.000 C 
ATOM     16  C   UNL     1       5.211   6.619  17.332  0.00  0.00    +0.000 C 
ENDBRANCH   5   6
ENDBRANCH   2   5
BRANCH   3  17
ATOM     17  CA  UNL     1       0.898   7.991  21.076  0.00  0.00    +0.000 C 
BRANCH  17  18
ATOM     18  C   UNL     1       1.249   8.833  19.866  0.00  0.00    +0.000 A 
ATOM     19  C   UNL     1       1.998   8.264  18.820  0.00  0.00    +0.000 A 
ATOM     20  C   UNL     1       2.362   9.029  17.713  0.00  0.00    +0.000 A 
ATOM     21  C   UNL     1       1.995  10.370  17.641  0.00  0.00    +0.000 A 
ATOM     22  C   UNL     1       1.268  10.953  18.675  0.00  0.00    +0.000 A 
ATOM     23  C   UNL     1       0.905  10.190  19.784  0.00  0.00    +0.000 A 
ENDBRANCH  17  18
BRANCH  17  24
ATOM     24  C   UNL     1       0.875   8.816  22.386  0.00  0.00    +0.000 C 
ATOM     25  O   UNL     1      -0.133   9.137  22.998  0.00  0.00    +0.000 OA
BRANCH  24  26
ATOM     26  OXT UNL     1       2.113   9.187  22.814  0.00  0.00    +0.000 OA
ATOM     27  HXT UNL     1       2.311   8.779  23.683  0.00  0.00    +0.000 HD
ENDBRANCH  24  26
ENDBRANCH  17  24
ENDBRANCH   3  17
TORSDOF 6
ENDMDL
