MODEL 1
REMARK VINA RESULT:      -6.7      0.000      0.000
REMARK  Name = 
REMARK  4 active torsions:
REMARK  status: ('A' for Active; 'I' for Inactive)
REMARK    1  A    between atoms: C_5  and  C_6
REMARK    2  A    between atoms: C_6  and  S_7
REMARK    3  A    between atoms: S_7  and  C_8
REMARK    4  A    between atoms: C_11  and  C_12
REMARK                            x       y       z     vdW  Elec       q    Type
REMARK                         _______ _______ _______ _____ _____    ______ ____
ROOT
ATOM      1  C   UNL     1       7.182   6.172  17.500  0.00  0.00    +0.000 A 
ATOM      2  C   UNL     1       7.954   6.311  18.644  0.00  0.00    +0.000 A 
ATOM      3  C   UNL     1       8.443   7.573  18.981  0.00  0.00    +0.000 A 
ATOM      4  C   UNL     1       8.137   8.653  18.167  0.00  0.00    +0.000 A 
ATOM      5  N   UNL     1       7.351   8.494  17.080  0.00  0.00    +0.000 NA
ATOM      6  N   UNL     1       6.874   7.244  16.744  0.00  0.00    +0.000 NA
ENDROOT
BRANCH   4   7
ATOM      7  C   UNL     1       8.627  10.020  18.382  0.00  0.00    +0.000 A 
ATOM      8  C   UNL     1       8.483  11.127  17.562  0.00  0.00    +0.000 A 
ATOM      9  C   UNL     1       9.138  12.286  18.074  0.00  0.00    +0.000 A 
ATOM     10  C   UNL     1       9.776  12.030  19.265  0.00  0.00    +0.000 A 
ATOM     11  S   UNL     1       9.567  10.411  19.768  0.00  0.00    +0.000 S 
ENDBRANCH   4   7
BRANCH   1  12
ATOM     12  S   UNL     1       6.562   4.570  17.034  0.00  0.00    +0.000 S 
BRANCH  12  13
ATOM     13  C   UNL     1       4.817   4.991  16.728  0.00  0.00    +0.000 C 
BRANCH  13  18
ATOM     14 CL   UNL     1       1.225   2.850  21.081  0.00  0.00    +0.000 Cl
ATOM     15  C   UNL     1       2.244   3.450  19.830  0.00  0.00    +0.000 A 
ATOM     16  C   UNL     1       3.606   3.166  19.853  0.00  0.00    +0.000 A 
ATOM     17  C   UNL     1       4.435   3.659  18.843  0.00  0.00    +0.000 A 
ATOM     18  C   UNL     1       3.908   4.446  17.806  0.00  0.00    +0.000 A 
ATOM     19  C   UNL     1       2.529   4.712  17.790  0.00  0.00    +0.000 A 
ATOM     20  C   UNL     1       1.700   4.217  18.802  0.00  0.00    +0.000 A 
ENDBRANCH  13  18
ENDBRANCH  12  13
ENDBRANCH   1  12
TORSDOF 4
ENDMDL
MODEL 2
REMARK VINA RESULT:      -6.6      0.754      1.435
REMARK  Name = 
REMARK  4 active torsions:
REMARK  status: ('A' for Active; 'I' for Inactive)
REMARK    1  A    between atoms: C_5  and  C_6
REMARK    2  A    between atoms: C_6  and  S_7
REMARK    3  A    between atoms: S_7  and  C_8
REMARK    4  A    between atoms: C_11  and  C_12
REMARK                            x       y       z     vdW  Elec       q    Type
REMARK                         _______ _______ _______ _____ _____    ______ ____
ROOT
ATOM      1  C   UNL     1       7.161   6.055  17.367  0.00  0.00    +0.000 A 
ATOM      2  C   UNL     1       7.869   6.082  18.559  0.00  0.00    +0.000 A 
ATOM      3  C   UNL     1       8.394   7.293  19.007  0.00  0.00    +0.000 A 
ATOM      4  C   UNL     1       8.187   8.438  18.252  0.00  0.00    +0.000 A 
ATOM      5  N   UNL     1       7.460   8.388  17.114  0.00  0.00    +0.000 NA
ATOM      6  N   UNL     1       6.948   7.187  16.668  0.00  0.00    +0.000 NA
ENDROOT
BRANCH   4   7
ATOM      7  C   UNL     1       8.725   9.762  18.585  0.00  0.00    +0.000 A 
ATOM      8  C   UNL     1       9.500  10.130  19.672  0.00  0.00    +0.000 A 
ATOM      9  C   UNL     1       9.798  11.525  19.695  0.00  0.00    +0.000 A 
ATOM     10  C   UNL     1       9.231  12.188  18.631  0.00  0.00    +0.000 A 
ATOM     11  S   UNL     1       8.366  11.130  17.605  0.00  0.00    +0.000 S 
ENDBRANCH   4   7
BRANCH   1  12
ATOM     12  S   UNL     1       6.498   4.518  16.761  0.00  0.00    +0.000 S 
BRANCH  12  13
ATOM     13  C   UNL     1       4.746   4.986  16.587  0.00  0.00    +0.000 C 
BRANCH  13  18
ATOM     14 CL   UNL     1       1.387   3.053  21.216  0.00  0.00    +0.000 Cl
ATOM     15  C   UNL     1       2.354   3.612  19.906  0.00  0.00    +0.000 A 
ATOM     16  C   UNL     1       1.863   4.600  19.058  0.00  0.00    +0.000 A 
ATOM     17  C   UNL     1       2.643   5.049  17.991  0.00  0.00    +0.000 A 
ATOM     18  C   UNL     1       3.917   4.507  17.758  0.00  0.00    +0.000 A 
ATOM     19  C   UNL     1       4.403   3.520  18.631  0.00  0.00    +0.000 A 
ATOM     20  C   UNL     1       3.622   3.072  19.700  0.00  0.00    +0.000 A 
ENDBRANCH  13  18
ENDBRANCH  12  13
ENDBRANCH   1  12
TORSDOF 4
ENDMDL
MODEL 3
REMARK VINA RESULT:      -6.6      5.257      6.585
REMARK  Name = 
REMARK  4 active torsions:
REMARK  status: ('A' for Active; 'I' for Inactive)
REMARK    1  A    between atoms: C_5  and  C_6
REMARK    2  A    between atoms: C_6  and  S_7
REMARK    3  A    between atoms: S_7  and  C_8
REMARK    4  A    between atoms: C_11  and  C_12
REMARK                            x       y       z     vdW  Elec       q    Type
REMARK                         _______ _______ _______ _____ _____    ______ ____
ROOT
ATOM      1  C   UNL     1       2.622   6.853  19.242  0.00  0.00    +0.000 A 
ATOM      2  C   UNL     1       2.781   7.498  18.024  0.00  0.00    +0.000 A 
ATOM      3  C   UNL     1       2.170   8.736  17.829  0.00  0.00    +0.000 A 
ATOM      4  C   UNL     1       1.427   9.290  18.861  0.00  0.00    +0.000 A 
ATOM      5  N   UNL     1       1.321   8.657  20.049  0.00  0.00    +0.000 NA
ATOM      6  N   UNL     1       1.920   7.428  20.237  0.00  0.00    +0.000 NA
ENDROOT
BRANCH   4   7
ATOM      7  C   UNL     1       0.696  10.559  18.769  0.00  0.00    +0.000 A 
ATOM      8  C   UNL     1      -0.665  10.762  18.611  0.00  0.00    +0.000 A 
ATOM      9  C   UNL     1      -1.014  12.142  18.511  0.00  0.00    +0.000 A 
ATOM     10  C   UNL     1       0.093  12.956  18.582  0.00  0.00    +0.000 A 
ATOM     11  S   UNL     1       1.534  12.062  18.789  0.00  0.00    +0.000 S 
ENDBRANCH   4   7
BRANCH   1  12
ATOM     12  S   UNL     1       3.374   5.262  19.510  0.00  0.00    +0.000 S 
BRANCH  12  13
ATOM     13  C   UNL     1       5.099   5.661  19.084  0.00  0.00    +0.000 C 
BRANCH  13  18
ATOM     14 CL   UNL     1       6.460   3.859  13.485  0.00  0.00    +0.000 Cl
ATOM     15  C   UNL     1       6.082   4.363  15.088  0.00  0.00    +0.000 A 
ATOM     16  C   UNL     1       4.904   3.930  15.688  0.00  0.00    +0.000 A 
ATOM     17  C   UNL     1       4.593   4.345  16.985  0.00  0.00    +0.000 A 
ATOM     18  C   UNL     1       5.454   5.201  17.687  0.00  0.00    +0.000 A 
ATOM     19  C   UNL     1       6.646   5.618  17.072  0.00  0.00    +0.000 A 
ATOM     20  C   UNL     1       6.957   5.202  15.774  0.00  0.00    +0.000 A 
ENDBRANCH  13  18
ENDBRANCH  12  13
ENDBRANCH   1  12
TORSDOF 4
ENDMDL
MODEL 4
REMARK VINA RESULT:      -6.6      5.258      6.881
REMARK  Name = 
REMARK  4 active torsions:
REMARK  status: ('A' for Active; 'I' for Inactive)
REMARK    1  A    between atoms: C_5  and  C_6
REMARK    2  A    between atoms: C_6  and  S_7
REMARK    3  A    between atoms: S_7  and  C_8
REMARK    4  A    between atoms: C_11  and  C_12
REMARK                            x       y       z     vdW  Elec       q    Type
REMARK                         _______ _______ _______ _____ _____    ______ ____
ROOT
ATOM      1  C   UNL     1       2.750   5.264  19.336  0.00  0.00    +0.000 A 
ATOM      2  C   UNL     1       2.946   6.424  18.601  0.00  0.00    +0.000 A 
ATOM      3  C   UNL     1       2.391   7.619  19.060  0.00  0.00    +0.000 A 
ATOM      4  C   UNL     1       1.665   7.614  20.242  0.00  0.00    +0.000 A 
ATOM      5  N   UNL     1       1.523   6.476  20.957  0.00  0.00    +0.000 NA
ATOM      6  N   UNL     1       2.066   5.294  20.496  0.00  0.00    +0.000 NA
ENDROOT
BRANCH   4   7
ATOM      7  C   UNL     1       0.991   8.788  20.808  0.00  0.00    +0.000 A 
ATOM      8  C   UNL     1       0.638   9.029  22.125  0.00  0.00    +0.000 A 
ATOM      9  C   UNL     1      -0.054  10.264  22.298  0.00  0.00    +0.000 A 
ATOM     10  C   UNL     1      -0.221  10.929  21.105  0.00  0.00    +0.000 A 
ATOM     11  S   UNL     1       0.469  10.077  19.795  0.00  0.00    +0.000 S 
ENDBRANCH   4   7
BRANCH   1  12
ATOM     12  S   UNL     1       3.428   3.722  18.762  0.00  0.00    +0.000 S 
BRANCH  12  13
ATOM     13  C   UNL     1       5.200   4.145  18.766  0.00  0.00    +0.000 C 
BRANCH  13  18
ATOM     14 CL   UNL     1       7.300   4.950  13.164  0.00  0.00    +0.000 Cl
ATOM     15  C   UNL     1       6.708   4.707  14.763  0.00  0.00    +0.000 A 
ATOM     16  C   UNL     1       5.376   4.357  14.960  0.00  0.00    +0.000 A 
ATOM     17  C   UNL     1       4.893   4.166  16.256  0.00  0.00    +0.000 A 
ATOM     18  C   UNL     1       5.737   4.334  17.365  0.00  0.00    +0.000 A 
ATOM     19  C   UNL     1       7.082   4.674  17.148  0.00  0.00    +0.000 A 
ATOM     20  C   UNL     1       7.565   4.864  15.850  0.00  0.00    +0.000 A 
ENDBRANCH  13  18
ENDBRANCH  12  13
ENDBRANCH   1  12
TORSDOF 4
ENDMDL
MODEL 5
REMARK VINA RESULT:      -6.6      5.412      6.584
REMARK  Name = 
REMARK  4 active torsions:
REMARK  status: ('A' for Active; 'I' for Inactive)
REMARK    1  A    between atoms: C_5  and  C_6
REMARK    2  A    between atoms: C_6  and  S_7
REMARK    3  A    between atoms: S_7  and  C_8
REMARK    4  A    between atoms: C_11  and  C_12
REMARK                            x       y       z     vdW  Elec       q    Type
REMARK                         _______ _______ _______ _____ _____    ______ ____
ROOT
ATOM      1  C   UNL     1       2.449   6.829  19.339  0.00  0.00    +0.000 A 
ATOM      2  C   UNL     1       2.503   7.351  18.055  0.00  0.00    +0.000 A 
ATOM      3  C   UNL     1       1.961   8.613  17.814  0.00  0.00    +0.000 A 
ATOM      4  C   UNL     1       1.390   9.313  18.867  0.00  0.00    +0.000 A 
ATOM      5  N   UNL     1       1.387   8.796  20.115  0.00  0.00    +0.000 NA
ATOM      6  N   UNL     1       1.917   7.543  20.349  0.00  0.00    +0.000 NA
ENDROOT
BRANCH   4   7
ATOM      7  C   UNL     1       0.745  10.625  18.740  0.00  0.00    +0.000 A 
ATOM      8  C   UNL     1       1.315  11.882  18.845  0.00  0.00    +0.000 A 
ATOM      9  C   UNL     1       0.365  12.937  18.713  0.00  0.00    +0.000 A 
ATOM     10  C   UNL     1      -0.910  12.457  18.522  0.00  0.00    +0.000 A 
ATOM     11  S   UNL     1      -0.952  10.750  18.483  0.00  0.00    +0.000 S 
ENDBRANCH   4   7
BRANCH   1  12
ATOM     12  S   UNL     1       3.114   5.212  19.669  0.00  0.00    +0.000 S 
BRANCH  12  13
ATOM     13  C   UNL     1       4.885   5.546  19.402  0.00  0.00    +0.000 C 
BRANCH  13  18
ATOM     14 CL   UNL     1       6.643   4.246  13.775  0.00  0.00    +0.000 Cl
ATOM     15  C   UNL     1       6.131   4.626  15.374  0.00  0.00    +0.000 A 
ATOM     16  C   UNL     1       6.873   5.515  16.144  0.00  0.00    +0.000 A 
ATOM     17  C   UNL     1       6.462   5.818  17.444  0.00  0.00    +0.000 A 
ATOM     18  C   UNL     1       5.310   5.227  17.986  0.00  0.00    +0.000 A 
ATOM     19  C   UNL     1       4.565   4.342  17.191  0.00  0.00    +0.000 A 
ATOM     20  C   UNL     1       4.976   4.039  15.889  0.00  0.00    +0.000 A 
ENDBRANCH  13  18
ENDBRANCH  12  13
ENDBRANCH   1  12
TORSDOF 4
ENDMDL
MODEL 6
REMARK VINA RESULT:      -6.6      5.373      6.497
REMARK  Name = 
REMARK  4 active torsions:
REMARK  status: ('A' for Active; 'I' for Inactive)
REMARK    1  A    between atoms: C_5  and  C_6
REMARK    2  A    between atoms: C_6  and  S_7
REMARK    3  A    between atoms: S_7  and  C_8
REMARK    4  A    between atoms: C_11  and  C_12
REMARK                            x       y       z     vdW  Elec       q    Type
REMARK                         _______ _______ _______ _____ _____    ______ ____
ROOT
ATOM      1  C   UNL     1       2.387   6.776  19.219  0.00  0.00    +0.000 A 
ATOM      2  C   UNL     1       2.592   7.380  17.987  0.00  0.00    +0.000 A 
ATOM      3  C   UNL     1       2.162   8.693  17.797  0.00  0.00    +0.000 A 
ATOM      4  C   UNL     1       1.548   9.359  18.847  0.00  0.00    +0.000 A 
ATOM      5  N   UNL     1       1.397   8.759  20.048  0.00  0.00    +0.000 NA
ATOM      6  N   UNL     1       1.816   7.457  20.231  0.00  0.00    +0.000 NA
ENDROOT
BRANCH   4   7
ATOM      7  C   UNL     1       1.009  10.721  18.765  0.00  0.00    +0.000 A 
ATOM      8  C   UNL     1       1.693  11.911  18.579  0.00  0.00    +0.000 A 
ATOM      9  C   UNL     1       0.838  13.053  18.601  0.00  0.00    +0.000 A 
ATOM     10  C   UNL     1      -0.475  12.706  18.816  0.00  0.00    +0.000 A 
ATOM     11  S   UNL     1      -0.674  11.016  18.969  0.00  0.00    +0.000 S 
ENDBRANCH   4   7
BRANCH   1  12
ATOM     12  S   UNL     1       2.906   5.094  19.482  0.00  0.00    +0.000 S 
BRANCH  12  13
ATOM     13  C   UNL     1       4.713   5.324  19.472  0.00  0.00    +0.000 C 
BRANCH  13  18
ATOM     14 CL   UNL     1       6.966   4.753  13.901  0.00  0.00    +0.000 Cl
ATOM     15  C   UNL     1       6.334   4.906  15.495  0.00  0.00    +0.000 A 
ATOM     16  C   UNL     1       5.178   4.218  15.849  0.00  0.00    +0.000 A 
ATOM     17  C   UNL     1       4.661   4.348  17.140  0.00  0.00    +0.000 A 
ATOM     18  C   UNL     1       5.292   5.174  18.083  0.00  0.00    +0.000 A 
ATOM     19  C   UNL     1       6.465   5.852  17.714  0.00  0.00    +0.000 A 
ATOM     20  C   UNL     1       6.983   5.721  16.422  0.00  0.00    +0.000 A 
ENDBRANCH  13  18
ENDBRANCH  12  13
ENDBRANCH   1  12
TORSDOF 4
ENDMDL
MODEL 7
REMARK VINA RESULT:      -6.5      5.986      8.589
REMARK  Name = 
REMARK  4 active torsions:
REMARK  status: ('A' for Active; 'I' for Inactive)
REMARK    1  A    between atoms: C_5  and  C_6
REMARK    2  A    between atoms: C_6  and  S_7
REMARK    3  A    between atoms: S_7  and  C_8
REMARK    4  A    between atoms: C_11  and  C_12
REMARK                            x       y       z     vdW  Elec       q    Type
REMARK                         _______ _______ _______ _____ _____    ______ ____
ROOT
ATOM      1  C   UNL     1       1.953   8.547  18.760  0.00  0.00    +0.000 A 
ATOM      2  C   UNL     1       1.568   8.296  20.069  0.00  0.00    +0.000 A 
ATOM      3  C   UNL     1       1.788   7.029  20.608  0.00  0.00    +0.000 A 
ATOM      4  C   UNL     1       2.391   6.057  19.821  0.00  0.00    +0.000 A 
ATOM      5  N   UNL     1       2.789   6.342  18.562  0.00  0.00    +0.000 NA
ATOM      6  N   UNL     1       2.564   7.595  18.029  0.00  0.00    +0.000 NA
ENDROOT
BRANCH   4   7
ATOM      7  C   UNL     1       2.634   4.675  20.250  0.00  0.00    +0.000 A 
ATOM      8  C   UNL     1       2.030   3.972  21.278  0.00  0.00    +0.000 A 
ATOM      9  C   UNL     1       2.559   2.656  21.437  0.00  0.00    +0.000 A 
ATOM     10  C   UNL     1       3.561   2.394  20.533  0.00  0.00    +0.000 A 
ATOM     11  S   UNL     1       3.845   3.718  19.491  0.00  0.00    +0.000 S 
ENDBRANCH   4   7
BRANCH   1  12
ATOM     12  S   UNL     1       1.665  10.149  18.040  0.00  0.00    +0.000 S 
BRANCH  12  13
ATOM     13  C   UNL     1       0.548  10.854  19.294  0.00  0.00    +0.000 C 
BRANCH  13  18
ATOM     14 CL   UNL     1      -5.152  11.120  17.324  0.00  0.00    +0.000 Cl
ATOM     15  C   UNL     1      -3.523  11.057  17.879  0.00  0.00    +0.000 A 
ATOM     16  C   UNL     1      -2.628  10.166  17.294  0.00  0.00    +0.000 A 
ATOM     17  C   UNL     1      -1.309  10.110  17.748  0.00  0.00    +0.000 A 
ATOM     18  C   UNL     1      -0.877  10.937  18.796  0.00  0.00    +0.000 A 
ATOM     19  C   UNL     1      -1.789  11.840  19.367  0.00  0.00    +0.000 A 
ATOM     20  C   UNL     1      -3.110  11.897  18.911  0.00  0.00    +0.000 A 
ENDBRANCH  13  18
ENDBRANCH  12  13
ENDBRANCH   1  12
TORSDOF 4
ENDMDL
MODEL 8
REMARK VINA RESULT:      -6.5      5.751      7.559
REMARK  Name = 
REMARK  4 active torsions:
REMARK  status: ('A' for Active; 'I' for Inactive)
REMARK    1  A    between atoms: C_5  and  C_6
REMARK    2  A    between atoms: C_6  and  S_7
REMARK    3  A    between atoms: S_7  and  C_8
REMARK    4  A    between atoms: C_11  and  C_12
REMARK                            x       y       z     vdW  Elec       q    Type
REMARK                         _______ _______ _______ _____ _____    ______ ____
ROOT
ATOM      1  C   UNL     1       2.076   7.829  19.402  0.00  0.00    +0.000 A 
ATOM      2  C   UNL     1       2.453   8.344  18.171  0.00  0.00    +0.000 A 
ATOM      3  C   UNL     1       3.359   7.630  17.386  0.00  0.00    +0.000 A 
ATOM      4  C   UNL     1       3.851   6.422  17.857  0.00  0.00    +0.000 A 
ATOM      5  N   UNL     1       3.437   5.926  19.044  0.00  0.00    +0.000 NA
ATOM      6  N   UNL     1       2.547   6.638  19.822  0.00  0.00    +0.000 NA
ENDROOT
BRANCH   4   7
ATOM      7  C   UNL     1       4.843   5.599  17.155  0.00  0.00    +0.000 A 
ATOM      8  C   UNL     1       4.652   4.401  16.486  0.00  0.00    +0.000 A 
ATOM      9  C   UNL     1       5.863   3.858  15.964  0.00  0.00    +0.000 A 
ATOM     10  C   UNL     1       6.949   4.649  16.259  0.00  0.00    +0.000 A 
ATOM     11  S   UNL     1       6.505   6.043  17.140  0.00  0.00    +0.000 S 
ENDBRANCH   4   7
BRANCH   1  12
ATOM     12  S   UNL     1       0.938   8.729  20.433  0.00  0.00    +0.000 S 
BRANCH  12  13
ATOM     13  C   UNL     1       0.924  10.325  19.554  0.00  0.00    +0.000 C 
BRANCH  13  18
ATOM     14 CL   UNL     1      -4.494  11.435  17.133  0.00  0.00    +0.000 Cl
ATOM     15  C   UNL     1      -2.943  11.132  17.817  0.00  0.00    +0.000 A 
ATOM     16  C   UNL     1      -2.098  10.198  17.227  0.00  0.00    +0.000 A 
ATOM     17  C   UNL     1      -0.843   9.945  17.785  0.00  0.00    +0.000 A 
ATOM     18  C   UNL     1      -0.429  10.619  18.945  0.00  0.00    +0.000 A 
ATOM     19  C   UNL     1      -1.288  11.569  19.521  0.00  0.00    +0.000 A 
ATOM     20  C   UNL     1      -2.543  11.821  18.961  0.00  0.00    +0.000 A 
ENDBRANCH  13  18
ENDBRANCH  12  13
ENDBRANCH   1  12
TORSDOF 4
ENDMDL
MODEL 9
REMARK VINA RESULT:      -6.5      3.708      8.502
REMARK  Name = 
REMARK  4 active torsions:
REMARK  status: ('A' for Active; 'I' for Inactive)
REMARK    1  A    between atoms: C_5  and  C_6
REMARK    2  A    between atoms: C_6  and  S_7
REMARK    3  A    between atoms: S_7  and  C_8
REMARK    4  A    between atoms: C_11  and  C_12
REMARK                            x       y       z     vdW  Elec       q    Type
REMARK                         _______ _______ _______ _____ _____    ______ ____
ROOT
ATOM      1  C   UNL     1       6.675   6.187  18.461  0.00  0.00    +0.000 A 
ATOM      2  C   UNL     1       5.795   6.393  17.408  0.00  0.00    +0.000 A 
ATOM      3  C   UNL     1       4.602   5.671  17.371  0.00  0.00    +0.000 A 
ATOM      4  C   UNL     1       4.327   4.773  18.392  0.00  0.00    +0.000 A 
ATOM      5  N   UNL     1       5.185   4.621  19.425  0.00  0.00    +0.000 NA
ATOM      6  N   UNL     1       6.368   5.331  19.455  0.00  0.00    +0.000 NA
ENDROOT
BRANCH   4   7
ATOM      7  C   UNL     1       3.135   3.919  18.448  0.00  0.00    +0.000 A 
ATOM      8  C   UNL     1       1.805   4.297  18.527  0.00  0.00    +0.000 A 
ATOM      9  C   UNL     1       0.916   3.186  18.614  0.00  0.00    +0.000 A 
ATOM     10  C   UNL     1       1.591   1.987  18.613  0.00  0.00    +0.000 A 
ATOM     11  S   UNL     1       3.281   2.205  18.487  0.00  0.00    +0.000 S 
ENDBRANCH   4   7
BRANCH   1  12
ATOM     12  S   UNL     1       8.214   7.079  18.521  0.00  0.00    +0.000 S 
BRANCH  12  13
ATOM     13  C   UNL     1       7.725   8.596  17.638  0.00  0.00    +0.000 C 
BRANCH  13  18
ATOM     14 CL   UNL     1      10.587  13.443  19.819  0.00  0.00    +0.000 Cl
ATOM     15  C   UNL     1       9.757  12.065  19.203  0.00  0.00    +0.000 A 
ATOM     16  C   UNL     1       9.874  10.841  19.852  0.00  0.00    +0.000 A 
ATOM     17  C   UNL     1       9.208   9.722  19.349  0.00  0.00    +0.000 A 
ATOM     18  C   UNL     1       8.427   9.818  18.187  0.00  0.00    +0.000 A 
ATOM     19  C   UNL     1       8.308  11.064  17.550  0.00  0.00    +0.000 A 
ATOM     20  C   UNL     1       8.975  12.184  18.056  0.00  0.00    +0.000 A 
ENDBRANCH  13  18
ENDBRANCH  12  13
ENDBRANCH   1  12
TORSDOF 4
ENDMDL
