MODEL 1
REMARK VINA RESULT:      -7.1      0.000      0.000
REMARK  Name = 
REMARK  6 active torsions:
REMARK  status: ('A' for Active; 'I' for Inactive)
REMARK    1  A    between atoms: C_1  and  C_2
REMARK    2  A    between atoms: C_2  and  O_3
REMARK    3  A    between atoms: O_3  and  C_4
REMARK    4  A    between atoms: C_4  and  C_6
REMARK    5  A    between atoms: N_10  and  N_11
REMARK    6  A    between atoms: C_16  and  C_17
REMARK                            x       y       z     vdW  Elec       q    Type
REMARK                         _______ _______ _______ _____ _____    ______ ____
ROOT
ATOM      1  C   UNL     1       6.570   5.581  17.655  0.00  0.00    +0.000 A 
ATOM      2  C   UNL     1       6.023   5.668  16.388  0.00  0.00    +0.000 A 
ATOM      3  S   UNL     1       4.902   4.405  16.137  0.00  0.00    +0.000 S 
ATOM      4  C   UNL     1       5.156   3.852  17.752  0.00  0.00    +0.000 A 
ATOM      5  N   UNL     1       4.477   2.756  18.193  0.00  0.00    +0.000 N 
ATOM      6  N   UNL     1       6.038   4.552  18.432  0.00  0.00    +0.000 NA
ATOM      7  H   UNL     1       3.818   2.363  17.528  0.00  0.00    +0.000 HD
ENDROOT
BRANCH   5   8
ATOM      8  N   UNL     1       4.198   2.567  19.507  0.00  0.00    +0.000 NA
ATOM      9  C   UNL     1       3.097   3.057  19.980  0.00  0.00    +0.000 C 
ATOM     10  C   UNL     1       2.821   2.925  21.451  0.00  0.00    +0.000 C 
ATOM     11  C   UNL     1       1.313   2.804  21.432  0.00  0.00    +0.000 C 
ATOM     12  C   UNL     1       0.849   3.744  20.321  0.00  0.00    +0.000 C 
ATOM     13  C   UNL     1       1.982   3.809  19.272  0.00  0.00    +0.000 C 
ATOM     14  C   UNL     1       1.530   3.254  17.931  0.00  0.00    +0.000 C 
ENDBRANCH   5   8
BRANCH   1  15
ATOM     15  C   UNL     1       7.667   6.438  18.104  0.00  0.00    +0.000 C 
ATOM     16  O   UNL     1       8.230   6.285  19.184  0.00  0.00    +0.000 OA
BRANCH  15  17
ATOM     17  O   UNL     1       7.906   7.477  17.253  0.00  0.00    +0.000 OA
BRANCH  17  19
ATOM     18  C   UNL     1       8.640   9.496  18.302  0.00  0.00    +0.000 C 
ATOM     19  C   UNL     1       7.453   8.758  17.706  0.00  0.00    +0.000 C 
ENDBRANCH  17  19
ENDBRANCH  15  17
ENDBRANCH   1  15
TORSDOF 4
ENDMDL
MODEL 2
REMARK VINA RESULT:      -7.1      2.751      3.976
REMARK  Name = 
REMARK  6 active torsions:
REMARK  status: ('A' for Active; 'I' for Inactive)
REMARK    1  A    between atoms: C_1  and  C_2
REMARK    2  A    between atoms: C_2  and  O_3
REMARK    3  A    between atoms: O_3  and  C_4
REMARK    4  A    between atoms: C_4  and  C_6
REMARK    5  A    between atoms: N_10  and  N_11
REMARK    6  A    between atoms: C_16  and  C_17
REMARK                            x       y       z     vdW  Elec       q    Type
REMARK                         _______ _______ _______ _____ _____    ______ ____
ROOT
ATOM      1  C   UNL     1       6.749   4.650  15.787  0.00  0.00    +0.000 A 
ATOM      2  C   UNL     1       7.723   5.219  16.587  0.00  0.00    +0.000 A 
ATOM      3  S   UNL     1       7.213   5.251  18.216  0.00  0.00    +0.000 S 
ATOM      4  C   UNL     1       5.751   4.444  17.778  0.00  0.00    +0.000 A 
ATOM      5  N   UNL     1       4.831   4.165  18.744  0.00  0.00    +0.000 N 
ATOM      6  N   UNL     1       5.639   4.185  16.494  0.00  0.00    +0.000 NA
ATOM      7  H   UNL     1       5.108   4.422  19.687  0.00  0.00    +0.000 HD
ENDROOT
BRANCH   5   8
ATOM      8  N   UNL     1       3.963   3.130  18.627  0.00  0.00    +0.000 NA
ATOM      9  C   UNL     1       2.851   3.180  19.290  0.00  0.00    +0.000 C 
ATOM     10  C   UNL     1       1.922   2.000  19.232  0.00  0.00    +0.000 C 
ATOM     11  C   UNL     1       0.588   2.704  19.343  0.00  0.00    +0.000 C 
ATOM     12  C   UNL     1       0.820   3.854  20.319  0.00  0.00    +0.000 C 
ATOM     13  C   UNL     1       2.302   4.275  20.189  0.00  0.00    +0.000 C 
ATOM     14  C   UNL     1       2.432   5.702  19.683  0.00  0.00    +0.000 C 
ENDBRANCH   5   8
BRANCH   1  15
ATOM     15  C   UNL     1       6.841   4.619  14.329  0.00  0.00    +0.000 C 
ATOM     16  O   UNL     1       7.556   5.386  13.691  0.00  0.00    +0.000 OA
BRANCH  15  17
ATOM     17  O   UNL     1       5.969   3.734  13.764  0.00  0.00    +0.000 OA
BRANCH  17  19
ATOM     18  C   UNL     1       4.828   3.168  11.741  0.00  0.00    +0.000 C 
ATOM     19  C   UNL     1       6.176   3.472  12.371  0.00  0.00    +0.000 C 
ENDBRANCH  17  19
ENDBRANCH  15  17
ENDBRANCH   1  15
TORSDOF 4
ENDMDL
MODEL 3
REMARK VINA RESULT:      -7.0      2.819      4.092
REMARK  Name = 
REMARK  6 active torsions:
REMARK  status: ('A' for Active; 'I' for Inactive)
REMARK    1  A    between atoms: C_1  and  C_2
REMARK    2  A    between atoms: C_2  and  O_3
REMARK    3  A    between atoms: O_3  and  C_4
REMARK    4  A    between atoms: C_4  and  C_6
REMARK    5  A    between atoms: N_10  and  N_11
REMARK    6  A    between atoms: C_16  and  C_17
REMARK                            x       y       z     vdW  Elec       q    Type
REMARK                         _______ _______ _______ _____ _____    ______ ____
ROOT
ATOM      1  C   UNL     1       6.433   5.188  15.591  0.00  0.00    +0.000 A 
ATOM      2  C   UNL     1       7.082   5.987  16.514  0.00  0.00    +0.000 A 
ATOM      3  S   UNL     1       6.037   6.371  17.809  0.00  0.00    +0.000 S 
ATOM      4  C   UNL     1       4.799   5.397  17.103  0.00  0.00    +0.000 A 
ATOM      5  N   UNL     1       3.593   5.297  17.731  0.00  0.00    +0.000 N 
ATOM      6  N   UNL     1       5.135   4.837  15.962  0.00  0.00    +0.000 NA
ATOM      7  H   UNL     1       3.531   5.785  18.619  0.00  0.00    +0.000 HD
ENDROOT
BRANCH   5   8
ATOM      8  N   UNL     1       2.793   4.213  17.576  0.00  0.00    +0.000 NA
ATOM      9  C   UNL     1       2.269   3.678  18.633  0.00  0.00    +0.000 C 
ATOM     10  C   UNL     1       1.450   2.428  18.478  0.00  0.00    +0.000 C 
ATOM     11  C   UNL     1       0.441   2.629  19.587  0.00  0.00    +0.000 C 
ATOM     12  C   UNL     1       1.220   3.281  20.726  0.00  0.00    +0.000 C 
ATOM     13  C   UNL     1       2.365   4.102  20.089  0.00  0.00    +0.000 C 
ATOM     14  C   UNL     1       2.212   5.586  20.378  0.00  0.00    +0.000 C 
ENDBRANCH   5   8
BRANCH   1  15
ATOM     15  C   UNL     1       7.027   4.820  14.307  0.00  0.00    +0.000 C 
ATOM     16  O   UNL     1       7.918   5.475  13.775  0.00  0.00    +0.000 OA
BRANCH  15  17
ATOM     17  O   UNL     1       6.406   3.753  13.725  0.00  0.00    +0.000 OA
BRANCH  17  19
ATOM     18  C   UNL     1       5.493   2.707  11.779  0.00  0.00    +0.000 C 
ATOM     19  C   UNL     1       6.559   3.654  12.305  0.00  0.00    +0.000 C 
ENDBRANCH  17  19
ENDBRANCH  15  17
ENDBRANCH   1  15
TORSDOF 4
ENDMDL
MODEL 4
REMARK VINA RESULT:      -6.9      3.571      4.796
REMARK  Name = 
REMARK  6 active torsions:
REMARK  status: ('A' for Active; 'I' for Inactive)
REMARK    1  A    between atoms: C_1  and  C_2
REMARK    2  A    between atoms: C_2  and  O_3
REMARK    3  A    between atoms: O_3  and  C_4
REMARK    4  A    between atoms: C_4  and  C_6
REMARK    5  A    between atoms: N_10  and  N_11
REMARK    6  A    between atoms: C_16  and  C_17
REMARK                            x       y       z     vdW  Elec       q    Type
REMARK                         _______ _______ _______ _____ _____    ______ ____
ROOT
ATOM      1  C   UNL     1       6.095   4.122  14.316  0.00  0.00    +0.000 A 
ATOM      2  C   UNL     1       7.136   4.894  14.799  0.00  0.00    +0.000 A 
ATOM      3  S   UNL     1       6.884   5.272  16.445  0.00  0.00    +0.000 S 
ATOM      4  C   UNL     1       5.436   4.332  16.443  0.00  0.00    +0.000 A 
ATOM      5  N   UNL     1       4.701   4.241  17.587  0.00  0.00    +0.000 N 
ATOM      6  N   UNL     1       5.146   3.786  15.282  0.00  0.00    +0.000 NA
ATOM      7  H   UNL     1       5.101   4.714  18.392  0.00  0.00    +0.000 HD
ENDROOT
BRANCH   5   8
ATOM      8  N   UNL     1       3.905   3.173  17.844  0.00  0.00    +0.000 NA
ATOM      9  C   UNL     1       2.971   3.301  18.732  0.00  0.00    +0.000 C 
ATOM     10  C   UNL     1       2.140   2.098  19.083  0.00  0.00    +0.000 C 
ATOM     11  C   UNL     1       0.818   2.767  19.390  0.00  0.00    +0.000 C 
ATOM     12  C   UNL     1       1.182   4.075  20.088  0.00  0.00    +0.000 C 
ATOM     13  C   UNL     1       2.562   4.515  19.548  0.00  0.00    +0.000 C 
ATOM     14  C   UNL     1       2.472   5.837  18.805  0.00  0.00    +0.000 C 
ENDBRANCH   5   8
BRANCH   1  15
ATOM     15  C   UNL     1       5.962   3.767  12.904  0.00  0.00    +0.000 C 
ATOM     16  O   UNL     1       6.915   3.744  12.132  0.00  0.00    +0.000 OA
BRANCH  15  17
ATOM     17  O   UNL     1       4.663   3.584  12.527  0.00  0.00    +0.000 OA
BRANCH  17  19
ATOM     18  C   UNL     1       3.437   3.660  10.476  0.00  0.00    +0.000 C 
ATOM     19  C   UNL     1       4.477   2.900  11.282  0.00  0.00    +0.000 C 
ENDBRANCH  17  19
ENDBRANCH  15  17
ENDBRANCH   1  15
TORSDOF 4
ENDMDL
MODEL 5
REMARK VINA RESULT:      -6.9      2.305      3.416
REMARK  Name = 
REMARK  6 active torsions:
REMARK  status: ('A' for Active; 'I' for Inactive)
REMARK    1  A    between atoms: C_1  and  C_2
REMARK    2  A    between atoms: C_2  and  O_3
REMARK    3  A    between atoms: O_3  and  C_4
REMARK    4  A    between atoms: C_4  and  C_6
REMARK    5  A    between atoms: N_10  and  N_11
REMARK    6  A    between atoms: C_16  and  C_17
REMARK                            x       y       z     vdW  Elec       q    Type
REMARK                         _______ _______ _______ _____ _____    ______ ____
ROOT
ATOM      1  C   UNL     1       6.257   5.588  16.632  0.00  0.00    +0.000 A 
ATOM      2  C   UNL     1       7.398   5.959  17.321  0.00  0.00    +0.000 A 
ATOM      3  S   UNL     1       7.302   5.450  18.948  0.00  0.00    +0.000 S 
ATOM      4  C   UNL     1       5.778   4.705  18.630  0.00  0.00    +0.000 A 
ATOM      5  N   UNL     1       5.124   4.071  19.644  0.00  0.00    +0.000 N 
ATOM      6  N   UNL     1       5.355   4.844  17.393  0.00  0.00    +0.000 NA
ATOM      7  H   UNL     1       5.623   4.048  20.528  0.00  0.00    +0.000 HD
ENDROOT
BRANCH   5   8
ATOM      8  N   UNL     1       4.254   3.057  19.411  0.00  0.00    +0.000 NA
ATOM      9  C   UNL     1       3.032   3.187  19.820  0.00  0.00    +0.000 C 
ATOM     10  C   UNL     1       2.084   2.035  19.641  0.00  0.00    +0.000 C 
ATOM     11  C   UNL     1       0.788   2.784  19.424  0.00  0.00    +0.000 C 
ATOM     12  C   UNL     1       0.862   3.992  20.355  0.00  0.00    +0.000 C 
ATOM     13  C   UNL     1       2.356   4.358  20.514  0.00  0.00    +0.000 C 
ATOM     14  C   UNL     1       2.651   5.742  19.959  0.00  0.00    +0.000 C 
ENDBRANCH   5   8
BRANCH   1  15
ATOM     15  C   UNL     1       5.989   6.013  15.260  0.00  0.00    +0.000 C 
ATOM     16  O   UNL     1       5.105   6.815  14.973  0.00  0.00    +0.000 OA
BRANCH  15  17
ATOM     17  O   UNL     1       6.741   5.339  14.342  0.00  0.00    +0.000 OA
BRANCH  17  19
ATOM     18  C   UNL     1       5.858   3.694  12.848  0.00  0.00    +0.000 C 
ATOM     19  C   UNL     1       6.455   3.940  14.224  0.00  0.00    +0.000 C 
ENDBRANCH  17  19
ENDBRANCH  15  17
ENDBRANCH   1  15
TORSDOF 4
ENDMDL
MODEL 6
REMARK VINA RESULT:      -6.9      2.462      3.470
REMARK  Name = 
REMARK  6 active torsions:
REMARK  status: ('A' for Active; 'I' for Inactive)
REMARK    1  A    between atoms: C_1  and  C_2
REMARK    2  A    between atoms: C_2  and  O_3
REMARK    3  A    between atoms: O_3  and  C_4
REMARK    4  A    between atoms: C_4  and  C_6
REMARK    5  A    between atoms: N_10  and  N_11
REMARK    6  A    between atoms: C_16  and  C_17
REMARK                            x       y       z     vdW  Elec       q    Type
REMARK                         _______ _______ _______ _____ _____    ______ ____
ROOT
ATOM      1  C   UNL     1       5.748   5.509  16.447  0.00  0.00    +0.000 A 
ATOM      2  C   UNL     1       5.692   6.840  16.818  0.00  0.00    +0.000 A 
ATOM      3  S   UNL     1       4.167   7.207  17.493  0.00  0.00    +0.000 S 
ATOM      4  C   UNL     1       3.688   5.558  17.316  0.00  0.00    +0.000 A 
ATOM      5  N   UNL     1       2.438   5.183  17.711  0.00  0.00    +0.000 N 
ATOM      6  N   UNL     1       4.599   4.785  16.769  0.00  0.00    +0.000 NA
ATOM      7  H   UNL     1       1.883   5.921  18.135  0.00  0.00    +0.000 HD
ENDROOT
BRANCH   5   8
ATOM      8  N   UNL     1       2.161   3.915  18.102  0.00  0.00    +0.000 NA
ATOM      9  C   UNL     1       2.246   3.626  19.362  0.00  0.00    +0.000 C 
ATOM     10  C   UNL     1       2.023   2.203  19.793  0.00  0.00    +0.000 C 
ATOM     11  C   UNL     1       1.396   2.430  21.151  0.00  0.00    +0.000 C 
ATOM     12  C   UNL     1       2.125   3.638  21.734  0.00  0.00    +0.000 C 
ATOM     13  C   UNL     1       2.576   4.519  20.546  0.00  0.00    +0.000 C 
ATOM     14  C   UNL     1       1.905   5.882  20.580  0.00  0.00    +0.000 C 
ENDBRANCH   5   8
BRANCH   1  15
ATOM     15  C   UNL     1       6.874   4.939  15.710  0.00  0.00    +0.000 C 
ATOM     16  O   UNL     1       7.878   4.503  16.263  0.00  0.00    +0.000 OA
BRANCH  15  17
ATOM     17  O   UNL     1       6.731   5.055  14.357  0.00  0.00    +0.000 OA
BRANCH  17  19
ATOM     18  C   UNL     1       6.801   3.889  12.272  0.00  0.00    +0.000 C 
ATOM     19  C   UNL     1       6.253   3.882  13.688  0.00  0.00    +0.000 C 
ENDBRANCH  17  19
ENDBRANCH  15  17
ENDBRANCH   1  15
TORSDOF 4
ENDMDL
MODEL 7
REMARK VINA RESULT:      -6.8      2.818      4.146
REMARK  Name = 
REMARK  6 active torsions:
REMARK  status: ('A' for Active; 'I' for Inactive)
REMARK    1  A    between atoms: C_1  and  C_2
REMARK    2  A    between atoms: C_2  and  O_3
REMARK    3  A    between atoms: O_3  and  C_4
REMARK    4  A    between atoms: C_4  and  C_6
REMARK    5  A    between atoms: N_10  and  N_11
REMARK    6  A    between atoms: C_16  and  C_17
REMARK                            x       y       z     vdW  Elec       q    Type
REMARK                         _______ _______ _______ _____ _____    ______ ____
ROOT
ATOM      1  C   UNL     1       6.550   4.834  15.960  0.00  0.00    +0.000 A 
ATOM      2  C   UNL     1       7.527   4.606  16.912  0.00  0.00    +0.000 A 
ATOM      3  S   UNL     1       6.904   4.867  18.480  0.00  0.00    +0.000 S 
ATOM      4  C   UNL     1       5.349   5.204  17.809  0.00  0.00    +0.000 A 
ATOM      5  N   UNL     1       4.320   5.523  18.645  0.00  0.00    +0.000 N 
ATOM      6  N   UNL     1       5.301   5.146  16.497  0.00  0.00    +0.000 NA
ATOM      7  H   UNL     1       4.546   5.492  19.635  0.00  0.00    +0.000 HD
ENDROOT
BRANCH   5   8
ATOM      8  N   UNL     1       3.027   5.288  18.310  0.00  0.00    +0.000 NA
ATOM      9  C   UNL     1       2.582   4.074  18.383  0.00  0.00    +0.000 C 
ATOM     10  C   UNL     1       1.176   3.792  17.934  0.00  0.00    +0.000 C 
ATOM     11  C   UNL     1       0.811   2.671  18.881  0.00  0.00    +0.000 C 
ATOM     12  C   UNL     1       2.086   1.846  19.037  0.00  0.00    +0.000 C 
ATOM     13  C   UNL     1       3.282   2.807  18.844  0.00  0.00    +0.000 C 
ATOM     14  C   UNL     1       4.119   2.911  20.108  0.00  0.00    +0.000 C 
ENDBRANCH   5   8
BRANCH   1  15
ATOM     15  C   UNL     1       6.828   4.831  14.525  0.00  0.00    +0.000 C 
ATOM     16  O   UNL     1       7.767   5.445  14.028  0.00  0.00    +0.000 OA
BRANCH  15  17
ATOM     17  O   UNL     1       5.871   4.176  13.804  0.00  0.00    +0.000 OA
BRANCH  17  19
ATOM     18  C   UNL     1       5.115   3.123  11.796  0.00  0.00    +0.000 C 
ATOM     19  C   UNL     1       6.331   3.554  12.599  0.00  0.00    +0.000 C 
ENDBRANCH  17  19
ENDBRANCH  15  17
ENDBRANCH   1  15
TORSDOF 4
ENDMDL
MODEL 8
REMARK VINA RESULT:      -6.6      2.416      3.315
REMARK  Name = 
REMARK  6 active torsions:
REMARK  status: ('A' for Active; 'I' for Inactive)
REMARK    1  A    between atoms: C_1  and  C_2
REMARK    2  A    between atoms: C_2  and  O_3
REMARK    3  A    between atoms: O_3  and  C_4
REMARK    4  A    between atoms: C_4  and  C_6
REMARK    5  A    between atoms: N_10  and  N_11
REMARK    6  A    between atoms: C_16  and  C_17
REMARK                            x       y       z     vdW  Elec       q    Type
REMARK                         _______ _______ _______ _____ _____    ______ ____
ROOT
ATOM      1  C   UNL     1       5.786   5.385  16.818  0.00  0.00    +0.000 A 
ATOM      2  C   UNL     1       5.588   6.641  16.274  0.00  0.00    +0.000 A 
ATOM      3  S   UNL     1       4.270   7.418  17.031  0.00  0.00    +0.000 S 
ATOM      4  C   UNL     1       4.077   6.067  18.089  0.00  0.00    +0.000 A 
ATOM      5  N   UNL     1       3.079   6.088  19.017  0.00  0.00    +0.000 N 
ATOM      6  N   UNL     1       4.928   5.088  17.877  0.00  0.00    +0.000 NA
ATOM      7  H   UNL     1       2.536   6.946  19.044  0.00  0.00    +0.000 HD
ENDROOT
BRANCH   5   8
ATOM      8  N   UNL     1       3.163   5.386  20.174  0.00  0.00    +0.000 NA
ATOM      9  C   UNL     1       2.282   4.464  20.401  0.00  0.00    +0.000 C 
ATOM     10  C   UNL     1       2.318   3.740  21.718  0.00  0.00    +0.000 C 
ATOM     11  C   UNL     1       1.826   2.376  21.286  0.00  0.00    +0.000 C 
ATOM     12  C   UNL     1       0.760   2.649  20.228  0.00  0.00    +0.000 C 
ATOM     13  C   UNL     1       1.135   3.977  19.531  0.00  0.00    +0.000 C 
ATOM     14  C   UNL     1       1.439   3.765  18.058  0.00  0.00    +0.000 C 
ENDBRANCH   5   8
BRANCH   1  15
ATOM     15  C   UNL     1       6.748   4.429  16.274  0.00  0.00    +0.000 C 
ATOM     16  O   UNL     1       7.897   4.330  16.694  0.00  0.00    +0.000 OA
BRANCH  15  17
ATOM     17  O   UNL     1       6.266   3.755  15.189  0.00  0.00    +0.000 OA
BRANCH  17  19
ATOM     18  C   UNL     1       5.913   3.560  12.833  0.00  0.00    +0.000 C 
ATOM     19  C   UNL     1       6.751   4.211  13.920  0.00  0.00    +0.000 C 
ENDBRANCH  17  19
ENDBRANCH  15  17
ENDBRANCH   1  15
TORSDOF 4
ENDMDL
MODEL 9
REMARK VINA RESULT:      -6.6      4.648      6.387
REMARK  Name = 
REMARK  6 active torsions:
REMARK  status: ('A' for Active; 'I' for Inactive)
REMARK    1  A    between atoms: C_1  and  C_2
REMARK    2  A    between atoms: C_2  and  O_3
REMARK    3  A    between atoms: O_3  and  C_4
REMARK    4  A    between atoms: C_4  and  C_6
REMARK    5  A    between atoms: N_10  and  N_11
REMARK    6  A    between atoms: C_16  and  C_17
REMARK                            x       y       z     vdW  Elec       q    Type
REMARK                         _______ _______ _______ _____ _____    ______ ____
ROOT
ATOM      1  C   UNL     1       6.352   3.753  12.529  0.00  0.00    +0.000 A 
ATOM      2  C   UNL     1       7.344   4.426  11.841  0.00  0.00    +0.000 A 
ATOM      3  S   UNL     1       8.207   5.455  12.897  0.00  0.00    +0.000 S 
ATOM      4  C   UNL     1       7.255   4.896  14.224  0.00  0.00    +0.000 A 
ATOM      5  N   UNL     1       7.486   5.405  15.468  0.00  0.00    +0.000 N 
ATOM      6  N   UNL     1       6.337   4.014  13.899  0.00  0.00    +0.000 NA
ATOM      7  H   UNL     1       8.258   6.063  15.525  0.00  0.00    +0.000 HD
ENDROOT
BRANCH   5   8
ATOM      8  N   UNL     1       7.202   4.703  16.593  0.00  0.00    +0.000 NA
ATOM      9  C   UNL     1       6.313   5.176  17.406  0.00  0.00    +0.000 C 
ATOM     10  C   UNL     1       6.053   4.447  18.695  0.00  0.00    +0.000 C 
ATOM     11  C   UNL     1       4.579   4.735  18.874  0.00  0.00    +0.000 C 
ATOM     12  C   UNL     1       4.386   6.166  18.379  0.00  0.00    +0.000 C 
ATOM     13  C   UNL     1       5.455   6.425  17.293  0.00  0.00    +0.000 C 
ATOM     14  C   UNL     1       4.818   6.695  15.940  0.00  0.00    +0.000 C 
ENDBRANCH   5   8
BRANCH   1  15
ATOM     15  C   UNL     1       5.358   2.913  11.862  0.00  0.00    +0.000 C 
ATOM     16  O   UNL     1       5.608   1.782  11.456  0.00  0.00    +0.000 OA
BRANCH  15  17
ATOM     17  O   UNL     1       4.178   3.563  11.645  0.00  0.00    +0.000 OA
BRANCH  17  19
ATOM     18  C   UNL     1       2.984   4.169   9.664  0.00  0.00    +0.000 C 
ATOM     19  C   UNL     1       3.368   3.029  10.591  0.00  0.00    +0.000 C 
ENDBRANCH  17  19
ENDBRANCH  15  17
ENDBRANCH   1  15
TORSDOF 4
ENDMDL
