MODEL 1
REMARK VINA RESULT:      -5.8      0.000      0.000
REMARK  Name = 
REMARK  7 active torsions:
REMARK  status: ('A' for Active; 'I' for Inactive)
REMARK    1  A    between atoms: C_1  and  S_2
REMARK    2  A    between atoms: S_2  and  C_5
REMARK    3  A    between atoms: C_5  and  C_6
REMARK    4  A    between atoms: C_6  and  N_7
REMARK    5  A    between atoms: N_7  and  N_8
REMARK    6  A    between atoms: N_12  and  C_13
REMARK    7  A    between atoms: C_13  and  C_14
REMARK                            x       y       z     vdW  Elec       q    Type
REMARK                         _______ _______ _______ _____ _____    ______ ____
ROOT
ATOM      1  N   UNL     1       4.648   5.669  18.400  0.00  0.00    +0.000 N 
ATOM      2  C   UNL     1       3.323   5.707  18.840  0.00  0.00    +0.000 C 
ATOM      3  O   UNL     1       2.391   6.049  18.111  0.00  0.00    +0.000 OA
ATOM      4  N   UNL     1       3.105   5.389  20.163  0.00  0.00    +0.000 N 
ATOM      5  H   UNL     1       3.812   4.846  20.646  0.00  0.00    +0.000 HD
ENDROOT
BRANCH   1   6
ATOM      6  N   UNL     1       5.654   5.235  19.273  0.00  0.00    +0.000 NA
ATOM      7  O   UNL     1       5.811   4.012  19.321  0.00  0.00    +0.000 OA
ENDBRANCH   1   6
BRANCH   1   8
ATOM      8  C   UNL     1       4.952   6.019  17.006  0.00  0.00    +0.000 C 
BRANCH   8   9
ATOM      9  C   UNL     1       6.432   6.307  16.780  0.00  0.00    +0.000 C 
BRANCH   9  11
ATOM     10  C   UNL     1       5.831   3.844  15.620  0.00  0.00    +0.000 C 
ATOM     11  S   UNL     1       7.199   4.924  15.970  0.00  0.00    +0.000 S 
ATOM     12  O   UNL     1       8.054   4.251  16.931  0.00  0.00    +0.000 OA
ATOM     13  O   UNL     1       7.727   5.386  14.703  0.00  0.00    +0.000 OA
ENDBRANCH   9  11
ENDBRANCH   8   9
ENDBRANCH   1   8
BRANCH   4  14
ATOM     14  C   UNL     1       1.770   5.367  20.739  0.00  0.00    +0.000 C 
BRANCH  14  15
ATOM     15  C   UNL     1       1.116   3.987  20.717  0.00  0.00    +0.000 C 
ATOM     16 CL   UNL     1       2.149   2.780  21.530  0.00  0.00    +0.000 Cl
ENDBRANCH  14  15
ENDBRANCH   4  14
TORSDOF 6
ENDMDL
MODEL 2
REMARK VINA RESULT:      -5.6      2.083      2.728
REMARK  Name = 
REMARK  7 active torsions:
REMARK  status: ('A' for Active; 'I' for Inactive)
REMARK    1  A    between atoms: C_1  and  S_2
REMARK    2  A    between atoms: S_2  and  C_5
REMARK    3  A    between atoms: C_5  and  C_6
REMARK    4  A    between atoms: C_6  and  N_7
REMARK    5  A    between atoms: N_7  and  N_8
REMARK    6  A    between atoms: N_12  and  C_13
REMARK    7  A    between atoms: C_13  and  C_14
REMARK                            x       y       z     vdW  Elec       q    Type
REMARK                         _______ _______ _______ _____ _____    ______ ____
ROOT
ATOM      1  N   UNL     1       3.805   3.341  17.392  0.00  0.00    +0.000 N 
ATOM      2  C   UNL     1       4.029   3.169  18.760  0.00  0.00    +0.000 C 
ATOM      3  O   UNL     1       5.135   3.334  19.277  0.00  0.00    +0.000 OA
ATOM      4  N   UNL     1       2.954   2.748  19.511  0.00  0.00    +0.000 N 
ATOM      5  H   UNL     1       2.023   2.899  19.139  0.00  0.00    +0.000 HD
ENDROOT
BRANCH   1   6
ATOM      6  N   UNL     1       2.513   3.170  16.876  0.00  0.00    +0.000 NA
ATOM      7  O   UNL     1       1.677   3.980  17.287  0.00  0.00    +0.000 OA
ENDBRANCH   1   6
BRANCH   1   8
ATOM      8  C   UNL     1       4.915   3.767  16.529  0.00  0.00    +0.000 C 
BRANCH   8   9
ATOM      9  C   UNL     1       5.420   5.166  16.865  0.00  0.00    +0.000 C 
BRANCH   9  11
ATOM     10  C   UNL     1       7.065   4.872  14.634  0.00  0.00    +0.000 C 
ATOM     11  S   UNL     1       7.112   5.336  16.349  0.00  0.00    +0.000 S 
ATOM     12  O   UNL     1       7.903   4.342  17.051  0.00  0.00    +0.000 OA
ATOM     13  O   UNL     1       7.459   6.741  16.414  0.00  0.00    +0.000 OA
ENDBRANCH   9  11
ENDBRANCH   8   9
ENDBRANCH   1   8
BRANCH   4  14
ATOM     14  C   UNL     1       3.049   2.554  20.949  0.00  0.00    +0.000 C 
BRANCH  14  15
ATOM     15  C   UNL     1       2.019   3.354  21.745  0.00  0.00    +0.000 C 
ATOM     16 CL   UNL     1       1.012   4.352  20.659  0.00  0.00    +0.000 Cl
ENDBRANCH  14  15
ENDBRANCH   4  14
TORSDOF 6
ENDMDL
MODEL 3
REMARK VINA RESULT:      -5.6      1.332      2.096
REMARK  Name = 
REMARK  7 active torsions:
REMARK  status: ('A' for Active; 'I' for Inactive)
REMARK    1  A    between atoms: C_1  and  S_2
REMARK    2  A    between atoms: S_2  and  C_5
REMARK    3  A    between atoms: C_5  and  C_6
REMARK    4  A    between atoms: C_6  and  N_7
REMARK    5  A    between atoms: N_7  and  N_8
REMARK    6  A    between atoms: N_12  and  C_13
REMARK    7  A    between atoms: C_13  and  C_14
REMARK                            x       y       z     vdW  Elec       q    Type
REMARK                         _______ _______ _______ _____ _____    ______ ____
ROOT
ATOM      1  N   UNL     1       4.611   5.559  18.350  0.00  0.00    +0.000 N 
ATOM      2  C   UNL     1       4.605   4.404  19.136  0.00  0.00    +0.000 C 
ATOM      3  O   UNL     1       5.637   3.810  19.453  0.00  0.00    +0.000 OA
ATOM      4  N   UNL     1       3.369   3.918  19.505  0.00  0.00    +0.000 N 
ATOM      5  H   UNL     1       2.582   4.556  19.489  0.00  0.00    +0.000 HD
ENDROOT
BRANCH   1   6
ATOM      6  N   UNL     1       3.402   6.203  18.058  0.00  0.00    +0.000 NA
ATOM      7  O   UNL     1       2.907   6.833  18.996  0.00  0.00    +0.000 OA
ENDBRANCH   1   6
BRANCH   1   8
ATOM      8  C   UNL     1       5.895   6.116  17.903  0.00  0.00    +0.000 C 
BRANCH   8   9
ATOM      9  C   UNL     1       6.000   6.209  16.385  0.00  0.00    +0.000 C 
BRANCH   9  11
ATOM     10  C   UNL     1       5.926   3.621  15.349  0.00  0.00    +0.000 C 
ATOM     11  S   UNL     1       7.062   4.920  15.776  0.00  0.00    +0.000 S 
ATOM     12  O   UNL     1       7.878   4.444  16.878  0.00  0.00    +0.000 OA
ATOM     13  O   UNL     1       7.673   5.388  14.549  0.00  0.00    +0.000 OA
ENDBRANCH   9  11
ENDBRANCH   8   9
ENDBRANCH   1   8
BRANCH   4  14
ATOM     14  C   UNL     1       3.226   2.737  20.342  0.00  0.00    +0.000 C 
BRANCH  14  15
ATOM     15  C   UNL     1       1.857   2.624  21.011  0.00  0.00    +0.000 C 
ATOM     16 CL   UNL     1       0.746   3.883  20.405  0.00  0.00    +0.000 Cl
ENDBRANCH  14  15
ENDBRANCH   4  14
TORSDOF 6
ENDMDL
MODEL 4
REMARK VINA RESULT:      -5.4      4.176      5.853
REMARK  Name = 
REMARK  7 active torsions:
REMARK  status: ('A' for Active; 'I' for Inactive)
REMARK    1  A    between atoms: C_1  and  S_2
REMARK    2  A    between atoms: S_2  and  C_5
REMARK    3  A    between atoms: C_5  and  C_6
REMARK    4  A    between atoms: C_6  and  N_7
REMARK    5  A    between atoms: N_7  and  N_8
REMARK    6  A    between atoms: N_12  and  C_13
REMARK    7  A    between atoms: C_13  and  C_14
REMARK                            x       y       z     vdW  Elec       q    Type
REMARK                         _______ _______ _______ _____ _____    ______ ____
ROOT
ATOM      1  N   UNL     1       7.298   5.619  18.079  0.00  0.00    +0.000 N 
ATOM      2  C   UNL     1       7.329   6.945  17.641  0.00  0.00    +0.000 C 
ATOM      3  O   UNL     1       6.672   7.342  16.678  0.00  0.00    +0.000 OA
ATOM      4  N   UNL     1       8.183   7.794  18.312  0.00  0.00    +0.000 N 
ATOM      5  H   UNL     1       8.477   7.534  19.246  0.00  0.00    +0.000 HD
ENDROOT
BRANCH   1   6
ATOM      6  N   UNL     1       8.045   5.244  19.204  0.00  0.00    +0.000 NA
ATOM      7  O   UNL     1       7.506   5.480  20.289  0.00  0.00    +0.000 OA
ENDBRANCH   1   6
BRANCH   1   8
ATOM      8  C   UNL     1       6.426   4.656  17.393  0.00  0.00    +0.000 C 
BRANCH   8   9
ATOM      9  C   UNL     1       4.947   5.001  17.526  0.00  0.00    +0.000 C 
BRANCH   9  11
ATOM     10  C   UNL     1       2.877   3.293  18.286  0.00  0.00    +0.000 C 
ATOM     11  S   UNL     1       4.264   4.185  18.950  0.00  0.00    +0.000 S 
ATOM     12  O   UNL     1       3.744   5.199  19.849  0.00  0.00    +0.000 OA
ATOM     13  O   UNL     1       5.231   3.210  19.411  0.00  0.00    +0.000 OA
ENDBRANCH   9  11
ENDBRANCH   8   9
ENDBRANCH   1   8
BRANCH   4  14
ATOM     14  C   UNL     1       8.291   9.203  17.970  0.00  0.00    +0.000 C 
BRANCH  14  15
ATOM     15  C   UNL     1       9.129  10.010  18.960  0.00  0.00    +0.000 C 
ATOM     16 CL   UNL     1      10.103  11.243  18.112  0.00  0.00    +0.000 Cl
ENDBRANCH  14  15
ENDBRANCH   4  14
TORSDOF 6
ENDMDL
MODEL 5
REMARK VINA RESULT:      -5.4      1.242      1.744
REMARK  Name = 
REMARK  7 active torsions:
REMARK  status: ('A' for Active; 'I' for Inactive)
REMARK    1  A    between atoms: C_1  and  S_2
REMARK    2  A    between atoms: S_2  and  C_5
REMARK    3  A    between atoms: C_5  and  C_6
REMARK    4  A    between atoms: C_6  and  N_7
REMARK    5  A    between atoms: N_7  and  N_8
REMARK    6  A    between atoms: N_12  and  C_13
REMARK    7  A    between atoms: C_13  and  C_14
REMARK                            x       y       z     vdW  Elec       q    Type
REMARK                         _______ _______ _______ _____ _____    ______ ____
ROOT
ATOM      1  N   UNL     1       4.631   4.154  18.116  0.00  0.00    +0.000 N 
ATOM      2  C   UNL     1       3.365   4.549  18.554  0.00  0.00    +0.000 C 
ATOM      3  O   UNL     1       2.439   4.788  17.778  0.00  0.00    +0.000 OA
ATOM      4  N   UNL     1       3.208   4.712  19.913  0.00  0.00    +0.000 N 
ATOM      5  H   UNL     1       3.862   4.244  20.529  0.00  0.00    +0.000 HD
ENDROOT
BRANCH   1   6
ATOM      6  N   UNL     1       5.629   3.864  19.057  0.00  0.00    +0.000 NA
ATOM      7  O   UNL     1       6.043   4.837  19.694  0.00  0.00    +0.000 OA
ENDBRANCH   1   6
BRANCH   1   8
ATOM      8  C   UNL     1       4.873   3.983  16.677  0.00  0.00    +0.000 C 
BRANCH   8   9
ATOM      9  C   UNL     1       6.351   4.078  16.313  0.00  0.00    +0.000 C 
BRANCH   9  11
ATOM     10  C   UNL     1       7.292   6.586  17.085  0.00  0.00    +0.000 C 
ATOM     11  S   UNL     1       6.708   5.693  15.663  0.00  0.00    +0.000 S 
ATOM     12  O   UNL     1       5.458   6.302  15.246  0.00  0.00    +0.000 OA
ATOM     13  O   UNL     1       7.816   5.567  14.739  0.00  0.00    +0.000 OA
ENDBRANCH   9  11
ENDBRANCH   8   9
ENDBRANCH   1   8
BRANCH   4  14
ATOM     14  C   UNL     1       1.933   5.097  20.499  0.00  0.00    +0.000 C 
BRANCH  14  15
ATOM     15  C   UNL     1       0.912   3.961  20.543  0.00  0.00    +0.000 C 
ATOM     16 CL   UNL     1       1.433   2.681  21.671  0.00  0.00    +0.000 Cl
ENDBRANCH  14  15
ENDBRANCH   4  14
TORSDOF 6
ENDMDL
MODEL 6
REMARK VINA RESULT:      -5.3      1.619      2.367
REMARK  Name = 
REMARK  7 active torsions:
REMARK  status: ('A' for Active; 'I' for Inactive)
REMARK    1  A    between atoms: C_1  and  S_2
REMARK    2  A    between atoms: S_2  and  C_5
REMARK    3  A    between atoms: C_5  and  C_6
REMARK    4  A    between atoms: C_6  and  N_7
REMARK    5  A    between atoms: N_7  and  N_8
REMARK    6  A    between atoms: N_12  and  C_13
REMARK    7  A    between atoms: C_13  and  C_14
REMARK                            x       y       z     vdW  Elec       q    Type
REMARK                         _______ _______ _______ _____ _____    ______ ____
ROOT
ATOM      1  N   UNL     1       4.491   5.597  18.227  0.00  0.00    +0.000 N 
ATOM      2  C   UNL     1       4.641   4.459  19.024  0.00  0.00    +0.000 C 
ATOM      3  O   UNL     1       5.736   3.934  19.231  0.00  0.00    +0.000 OA
ATOM      4  N   UNL     1       3.485   3.909  19.535  0.00  0.00    +0.000 N 
ATOM      5  H   UNL     1       2.664   4.499  19.598  0.00  0.00    +0.000 HD
ENDROOT
BRANCH   1   6
ATOM      6  N   UNL     1       3.220   6.163  18.063  0.00  0.00    +0.000 NA
ATOM      7  O   UNL     1       2.833   6.859  19.005  0.00  0.00    +0.000 OA
ENDBRANCH   1   6
BRANCH   1   8
ATOM      8  C   UNL     1       5.681   6.220  17.632  0.00  0.00    +0.000 C 
BRANCH   8   9
ATOM      9  C   UNL     1       5.748   6.037  16.120  0.00  0.00    +0.000 C 
BRANCH   9  11
ATOM     10  C   UNL     1       7.207   4.857  14.058  0.00  0.00    +0.000 C 
ATOM     11  S   UNL     1       6.678   4.573  15.731  0.00  0.00    +0.000 S 
ATOM     12  O   UNL     1       5.764   3.445  15.717  0.00  0.00    +0.000 OA
ATOM     13  O   UNL     1       7.860   4.560  16.568  0.00  0.00    +0.000 OA
ENDBRANCH   9  11
ENDBRANCH   8   9
ENDBRANCH   1   8
BRANCH   4  14
ATOM     14  C   UNL     1       3.507   2.739  20.398  0.00  0.00    +0.000 C 
BRANCH  14  15
ATOM     15  C   UNL     1       2.334   2.678  21.375  0.00  0.00    +0.000 C 
ATOM     16 CL   UNL     1       0.967   3.667  20.792  0.00  0.00    +0.000 Cl
ENDBRANCH  14  15
ENDBRANCH   4  14
TORSDOF 6
ENDMDL
MODEL 7
REMARK VINA RESULT:      -5.3      1.696      1.872
REMARK  Name = 
REMARK  7 active torsions:
REMARK  status: ('A' for Active; 'I' for Inactive)
REMARK    1  A    between atoms: C_1  and  S_2
REMARK    2  A    between atoms: S_2  and  C_5
REMARK    3  A    between atoms: C_5  and  C_6
REMARK    4  A    between atoms: C_6  and  N_7
REMARK    5  A    between atoms: N_7  and  N_8
REMARK    6  A    between atoms: N_12  and  C_13
REMARK    7  A    between atoms: C_13  and  C_14
REMARK                            x       y       z     vdW  Elec       q    Type
REMARK                         _______ _______ _______ _____ _____    ______ ____
ROOT
ATOM      1  N   UNL     1       5.779   5.734  18.822  0.00  0.00    +0.000 N 
ATOM      2  C   UNL     1       4.394   5.895  18.889  0.00  0.00    +0.000 C 
ATOM      3  O   UNL     1       3.762   6.559  18.066  0.00  0.00    +0.000 OA
ATOM      4  N   UNL     1       3.758   5.313  19.964  0.00  0.00    +0.000 N 
ATOM      5  H   UNL     1       4.231   4.556  20.444  0.00  0.00    +0.000 HD
ENDROOT
BRANCH   1   6
ATOM      6  N   UNL     1       6.430   4.936  19.772  0.00  0.00    +0.000 NA
ATOM      7  O   UNL     1       7.507   5.381  20.177  0.00  0.00    +0.000 OA
ENDBRANCH   1   6
BRANCH   1   8
ATOM      8  C   UNL     1       6.521   6.350  17.713  0.00  0.00    +0.000 C 
BRANCH   8   9
ATOM      9  C   UNL     1       6.993   5.330  16.682  0.00  0.00    +0.000 C 
BRANCH   9  11
ATOM     10  C   UNL     1       6.689   4.516  14.032  0.00  0.00    +0.000 C 
ATOM     11  S   UNL     1       5.762   5.142  15.414  0.00  0.00    +0.000 S 
ATOM     12  O   UNL     1       5.275   6.461  15.055  0.00  0.00    +0.000 OA
ATOM     13  O   UNL     1       4.845   4.102  15.833  0.00  0.00    +0.000 OA
ENDBRANCH   9  11
ENDBRANCH   8   9
ENDBRANCH   1   8
BRANCH   4  14
ATOM     14  C   UNL     1       2.316   5.386  20.138  0.00  0.00    +0.000 C 
BRANCH  14  15
ATOM     15  C   UNL     1       1.582   4.117  19.707  0.00  0.00    +0.000 C 
ATOM     16 CL   UNL     1       1.231   3.077  21.114  0.00  0.00    +0.000 Cl
ENDBRANCH  14  15
ENDBRANCH   4  14
TORSDOF 6
ENDMDL
MODEL 8
REMARK VINA RESULT:      -5.3      1.550      1.641
REMARK  Name = 
REMARK  7 active torsions:
REMARK  status: ('A' for Active; 'I' for Inactive)
REMARK    1  A    between atoms: C_1  and  S_2
REMARK    2  A    between atoms: S_2  and  C_5
REMARK    3  A    between atoms: C_5  and  C_6
REMARK    4  A    between atoms: C_6  and  N_7
REMARK    5  A    between atoms: N_7  and  N_8
REMARK    6  A    between atoms: N_12  and  C_13
REMARK    7  A    between atoms: C_13  and  C_14
REMARK                            x       y       z     vdW  Elec       q    Type
REMARK                         _______ _______ _______ _____ _____    ______ ____
ROOT
ATOM      1  N   UNL     1       4.475   4.629  17.851  0.00  0.00    +0.000 N 
ATOM      2  C   UNL     1       3.359   3.807  18.024  0.00  0.00    +0.000 C 
ATOM      3  O   UNL     1       2.499   3.666  17.153  0.00  0.00    +0.000 OA
ATOM      4  N   UNL     1       3.231   3.192  19.250  0.00  0.00    +0.000 N 
ATOM      5  H   UNL     1       4.063   3.088  19.820  0.00  0.00    +0.000 HD
ENDROOT
BRANCH   1   6
ATOM      6  N   UNL     1       5.433   4.717  18.870  0.00  0.00    +0.000 NA
ATOM      7  O   UNL     1       5.142   5.480  19.795  0.00  0.00    +0.000 OA
ENDBRANCH   1   6
BRANCH   1   8
ATOM      8  C   UNL     1       4.659   5.333  16.575  0.00  0.00    +0.000 C 
BRANCH   8   9
ATOM      9  C   UNL     1       6.030   5.991  16.457  0.00  0.00    +0.000 C 
BRANCH   9  11
ATOM     10  C   UNL     1       6.079   3.699  14.870  0.00  0.00    +0.000 C 
ATOM     11  S   UNL     1       7.155   4.892  15.630  0.00  0.00    +0.000 S 
ATOM     12  O   UNL     1       7.937   4.199  16.638  0.00  0.00    +0.000 OA
ATOM     13  O   UNL     1       7.805   5.635  14.569  0.00  0.00    +0.000 OA
ENDBRANCH   9  11
ENDBRANCH   8   9
ENDBRANCH   1   8
BRANCH   4  14
ATOM     14  C   UNL     1       2.128   2.293  19.548  0.00  0.00    +0.000 C 
BRANCH  14  15
ATOM     15  C   UNL     1       1.077   2.901  20.476  0.00  0.00    +0.000 C 
ATOM     16 CL   UNL     1       1.359   4.650  20.697  0.00  0.00    +0.000 Cl
ENDBRANCH  14  15
ENDBRANCH   4  14
TORSDOF 6
ENDMDL
MODEL 9
REMARK VINA RESULT:      -5.3      3.658      5.950
REMARK  Name = 
REMARK  7 active torsions:
REMARK  status: ('A' for Active; 'I' for Inactive)
REMARK    1  A    between atoms: C_1  and  S_2
REMARK    2  A    between atoms: S_2  and  C_5
REMARK    3  A    between atoms: C_5  and  C_6
REMARK    4  A    between atoms: C_6  and  N_7
REMARK    5  A    between atoms: N_7  and  N_8
REMARK    6  A    between atoms: N_12  and  C_13
REMARK    7  A    between atoms: C_13  and  C_14
REMARK                            x       y       z     vdW  Elec       q    Type
REMARK                         _______ _______ _______ _____ _____    ______ ____
ROOT
ATOM      1  N   UNL     1       3.082   2.950  17.996  0.00  0.00    +0.000 N 
ATOM      2  C   UNL     1       4.290   3.645  18.098  0.00  0.00    +0.000 C 
ATOM      3  O   UNL     1       5.124   3.400  18.971  0.00  0.00    +0.000 OA
ATOM      4  N   UNL     1       4.489   4.668  17.197  0.00  0.00    +0.000 N 
ATOM      5  H   UNL     1       3.950   4.658  16.339  0.00  0.00    +0.000 HD
ENDROOT
BRANCH   1   6
ATOM      6  N   UNL     1       2.194   3.256  16.956  0.00  0.00    +0.000 NA
ATOM      7  O   UNL     1       1.380   4.147  17.212  0.00  0.00    +0.000 OA
ENDBRANCH   1   6
BRANCH   1   8
ATOM      8  C   UNL     1       2.797   1.861  18.941  0.00  0.00    +0.000 C 
BRANCH   8   9
ATOM      9  C   UNL     1       1.606   2.162  19.844  0.00  0.00    +0.000 C 
BRANCH   9  11
ATOM     10  C   UNL     1       2.215   4.548  21.151  0.00  0.00    +0.000 C 
ATOM     11  S   UNL     1       2.177   2.789  21.406  0.00  0.00    +0.000 S 
ATOM     12  O   UNL     1       3.545   2.344  21.601  0.00  0.00    +0.000 OA
ATOM     13  O   UNL     1       1.158   2.512  22.397  0.00  0.00    +0.000 OA
ENDBRANCH   9  11
ENDBRANCH   8   9
ENDBRANCH   1   8
BRANCH   4  14
ATOM     14  C   UNL     1       5.713   5.452  17.182  0.00  0.00    +0.000 C 
BRANCH  14  15
ATOM     15  C   UNL     1       5.474   6.960  17.150  0.00  0.00    +0.000 C 
ATOM     16 CL   UNL     1       3.774   7.343  17.539  0.00  0.00    +0.000 Cl
ENDBRANCH  14  15
ENDBRANCH   4  14
TORSDOF 6
ENDMDL
