MODEL 1
REMARK VINA RESULT:      -7.2      0.000      0.000
REMARK  Name = 
REMARK  8 active torsions:
REMARK  status: ('A' for Active; 'I' for Inactive)
REMARK    1  A    between atoms: C_1  and  C_2
REMARK    2  A    between atoms: C_2  and  O_3
REMARK    3  A    between atoms: O_3  and  C_4
REMARK    4  A    between atoms: C_7  and  C_8
REMARK    5  A    between atoms: N_10  and  C_11
REMARK    6  A    between atoms: C_11  and  C_12
REMARK    7  A    between atoms: C_12  and  C_13
REMARK    8  A    between atoms: C_12  and  N_18
REMARK                            x       y       z     vdW  Elec       q    Type
REMARK                         _______ _______ _______ _____ _____    ______ ____
ROOT
ATOM      1  C   UNL     1       1.545   8.962  19.103  0.00  0.00    +0.000 C 
ATOM      2  O   UNL     1       1.594   9.633  18.077  0.00  0.00    +0.000 OA
ATOM      3  N   UNL     1       2.209   7.757  19.262  0.00  0.00    +0.000 N 
ATOM      4  H   UNL     1       1.815   7.099  19.924  0.00  0.00    +0.000 HD
ENDROOT
BRANCH   1   8
ATOM      5  C   UNL     1      -0.702  10.499  22.416  0.00  0.00    +0.000 A 
ATOM      6  C   UNL     1      -0.812  11.077  21.152  0.00  0.00    +0.000 A 
ATOM      7  C   UNL     1      -0.098  10.557  20.071  0.00  0.00    +0.000 A 
ATOM      8  C   UNL     1       0.735   9.443  20.249  0.00  0.00    +0.000 A 
ATOM      9  C   UNL     1       0.862   8.876  21.520  0.00  0.00    +0.000 A 
ATOM     10  C   UNL     1       0.153   9.406  22.604  0.00  0.00    +0.000 A 
BRANCH   5  11
ATOM     11  O   UNL     1      -1.446  11.091  23.395  0.00  0.00    +0.000 OA
BRANCH  11  13
ATOM     12  C   UNL     1      -3.402  12.432  23.600  0.00  0.00    +0.000 C 
ATOM     13  C   UNL     1      -1.972  12.383  23.093  0.00  0.00    +0.000 C 
ENDBRANCH  11  13
ENDBRANCH   5  11
ENDBRANCH   1   8
BRANCH   3  14
ATOM     14  C   UNL     1       2.960   7.229  18.124  0.00  0.00    +0.000 C 
BRANCH  14  15
ATOM     15  C   UNL     1       3.686   5.860  18.355  0.00  0.00    +0.000 C 
BRANCH  15  16
ATOM     16  N   UNL     1       4.321   5.330  17.105  0.00  0.00    +0.000 NA
ATOM     17  C   UNL     1       5.295   4.230  17.321  0.00  0.00    +0.000 C 
ATOM     18  C   UNL     1       6.648   4.677  17.903  0.00  0.00    +0.000 C 
ATOM     19  O   UNL     1       7.249   5.720  17.128  0.00  0.00    +0.000 OA
ATOM     20  C   UNL     1       6.349   6.822  16.955  0.00  0.00    +0.000 C 
ATOM     21  C   UNL     1       5.035   6.356  16.309  0.00  0.00    +0.000 C 
ENDBRANCH  15  16
BRANCH  15  22
ATOM     22  C   UNL     1       2.700   4.852  18.910  0.00  0.00    +0.000 A 
ATOM     23  C   UNL     1       1.790   3.998  18.313  0.00  0.00    +0.000 A 
ATOM     24  C   UNL     1       1.023   3.431  19.358  0.00  0.00    +0.000 A 
ATOM     25  C   UNL     1       1.557   3.911  20.529  0.00  0.00    +0.000 A 
ATOM     26  O   UNL     1       2.576   4.768  20.270  0.00  0.00    +0.000 OA
ENDBRANCH  15  22
ENDBRANCH  14  15
ENDBRANCH   3  14
TORSDOF 7
ENDMDL
MODEL 2
REMARK VINA RESULT:      -7.1      1.488      3.487
REMARK  Name = 
REMARK  8 active torsions:
REMARK  status: ('A' for Active; 'I' for Inactive)
REMARK    1  A    between atoms: C_1  and  C_2
REMARK    2  A    between atoms: C_2  and  O_3
REMARK    3  A    between atoms: O_3  and  C_4
REMARK    4  A    between atoms: C_7  and  C_8
REMARK    5  A    between atoms: N_10  and  C_11
REMARK    6  A    between atoms: C_11  and  C_12
REMARK    7  A    between atoms: C_12  and  C_13
REMARK    8  A    between atoms: C_12  and  N_18
REMARK                            x       y       z     vdW  Elec       q    Type
REMARK                         _______ _______ _______ _____ _____    ______ ____
ROOT
ATOM      1  C   UNL     1       2.083   8.267  18.686  0.00  0.00    +0.000 C 
ATOM      2  O   UNL     1       1.998   8.790  17.580  0.00  0.00    +0.000 OA
ATOM      3  N   UNL     1       2.787   7.099  18.930  0.00  0.00    +0.000 N 
ATOM      4  H   UNL     1       2.486   6.536  19.717  0.00  0.00    +0.000 HD
ENDROOT
BRANCH   1   8
ATOM      5  C   UNL     1       0.231  10.209  22.031  0.00  0.00    +0.000 A 
ATOM      6  C   UNL     1       0.248  10.815  20.775  0.00  0.00    +0.000 A 
ATOM      7  C   UNL     1       0.829  10.167  19.684  0.00  0.00    +0.000 A 
ATOM      8  C   UNL     1       1.399   8.896  19.843  0.00  0.00    +0.000 A 
ATOM      9  C   UNL     1       1.401   8.297  21.105  0.00  0.00    +0.000 A 
ATOM     10  C   UNL     1       0.827   8.953  22.200  0.00  0.00    +0.000 A 
BRANCH   5  11
ATOM     11  O   UNL     1      -0.364  10.934  23.022  0.00  0.00    +0.000 OA
BRANCH  11  13
ATOM     12  C   UNL     1      -2.470  12.042  23.077  0.00  0.00    +0.000 C 
ATOM     13  C   UNL     1      -1.028  12.131  22.615  0.00  0.00    +0.000 C 
ENDBRANCH  11  13
ENDBRANCH   5  11
ENDBRANCH   1   8
BRANCH   3  14
ATOM     14  C   UNL     1       3.414   6.424  17.795  0.00  0.00    +0.000 C 
BRANCH  14  15
ATOM     15  C   UNL     1       3.940   4.972  18.063  0.00  0.00    +0.000 C 
BRANCH  15  16
ATOM     16  N   UNL     1       3.337   4.362  19.292  0.00  0.00    +0.000 NA
ATOM     17  C   UNL     1       3.954   3.078  19.714  0.00  0.00    +0.000 C 
ATOM     18  C   UNL     1       3.576   1.868  18.841  0.00  0.00    +0.000 C 
ATOM     19  O   UNL     1       2.157   1.715  18.718  0.00  0.00    +0.000 OA
ATOM     20  C   UNL     1       1.544   2.924  18.253  0.00  0.00    +0.000 C 
ATOM     21  C   UNL     1       1.883   4.099  19.183  0.00  0.00    +0.000 C 
ENDBRANCH  15  16
BRANCH  15  22
ATOM     22  C   UNL     1       5.452   4.996  18.176  0.00  0.00    +0.000 A 
ATOM     23  C   UNL     1       6.321   5.634  19.044  0.00  0.00    +0.000 A 
ATOM     24  C   UNL     1       7.625   5.419  18.539  0.00  0.00    +0.000 A 
ATOM     25  C   UNL     1       7.482   4.604  17.443  0.00  0.00    +0.000 A 
ATOM     26  O   UNL     1       6.171   4.338  17.217  0.00  0.00    +0.000 OA
ENDBRANCH  15  22
ENDBRANCH  14  15
ENDBRANCH   3  14
TORSDOF 7
ENDMDL
MODEL 3
REMARK VINA RESULT:      -7.1      1.564      2.027
REMARK  Name = 
REMARK  8 active torsions:
REMARK  status: ('A' for Active; 'I' for Inactive)
REMARK    1  A    between atoms: C_1  and  C_2
REMARK    2  A    between atoms: C_2  and  O_3
REMARK    3  A    between atoms: O_3  and  C_4
REMARK    4  A    between atoms: C_7  and  C_8
REMARK    5  A    between atoms: N_10  and  C_11
REMARK    6  A    between atoms: C_11  and  C_12
REMARK    7  A    between atoms: C_12  and  C_13
REMARK    8  A    between atoms: C_12  and  N_18
REMARK                            x       y       z     vdW  Elec       q    Type
REMARK                         _______ _______ _______ _____ _____    ______ ____
ROOT
ATOM      1  C   UNL     1       2.193   7.878  18.369  0.00  0.00    +0.000 C 
ATOM      2  O   UNL     1       2.438   8.281  17.237  0.00  0.00    +0.000 OA
ATOM      3  N   UNL     1       2.359   6.561  18.765  0.00  0.00    +0.000 N 
ATOM      4  H   UNL     1       1.780   6.234  19.530  0.00  0.00    +0.000 HD
ENDROOT
BRANCH   1   8
ATOM      5  C   UNL     1       0.579  10.534  21.322  0.00  0.00    +0.000 A 
ATOM      6  C   UNL     1       0.942   9.231  21.659  0.00  0.00    +0.000 A 
ATOM      7  C   UNL     1       1.491   8.379  20.700  0.00  0.00    +0.000 A 
ATOM      8  C   UNL     1       1.685   8.830  19.387  0.00  0.00    +0.000 A 
ATOM      9  C   UNL     1       1.303  10.129  19.043  0.00  0.00    +0.000 A 
ATOM     10  C   UNL     1       0.743  10.978  20.004  0.00  0.00    +0.000 A 
BRANCH   5  11
ATOM     11  O   UNL     1       0.055  11.276  22.340  0.00  0.00    +0.000 OA
BRANCH  11  13
ATOM     12  C   UNL     1      -2.133  11.763  23.142  0.00  0.00    +0.000 C 
ATOM     13  C   UNL     1      -1.054  10.702  23.033  0.00  0.00    +0.000 C 
ENDBRANCH  11  13
ENDBRANCH   5  11
ENDBRANCH   1   8
BRANCH   3  14
ATOM     14  C   UNL     1       2.794   5.589  17.762  0.00  0.00    +0.000 C 
BRANCH  14  15
ATOM     15  C   UNL     1       4.239   5.012  17.945  0.00  0.00    +0.000 C 
BRANCH  15  16
ATOM     16  N   UNL     1       5.061   5.121  16.697  0.00  0.00    +0.000 NA
ATOM     17  C   UNL     1       6.326   4.342  16.717  0.00  0.00    +0.000 C 
ATOM     18  C   UNL     1       7.440   4.952  17.588  0.00  0.00    +0.000 C 
ATOM     19  O   UNL     1       7.706   6.316  17.243  0.00  0.00    +0.000 OA
ATOM     20  C   UNL     1       6.509   7.103  17.275  0.00  0.00    +0.000 C 
ATOM     21  C   UNL     1       5.442   6.509  16.343  0.00  0.00    +0.000 C 
ENDBRANCH  15  16
BRANCH  15  22
ATOM     22  C   UNL     1       4.153   3.566  18.393  0.00  0.00    +0.000 A 
ATOM     23  C   UNL     1       3.437   2.478  17.926  0.00  0.00    +0.000 A 
ATOM     24  C   UNL     1       3.630   1.436  18.865  0.00  0.00    +0.000 A 
ATOM     25  C   UNL     1       4.508   1.923  19.802  0.00  0.00    +0.000 A 
ATOM     26  O   UNL     1       4.835   3.210  19.523  0.00  0.00    +0.000 OA
ENDBRANCH  15  22
ENDBRANCH  14  15
ENDBRANCH   3  14
TORSDOF 7
ENDMDL
MODEL 4
REMARK VINA RESULT:      -7.1      0.586      1.176
REMARK  Name = 
REMARK  8 active torsions:
REMARK  status: ('A' for Active; 'I' for Inactive)
REMARK    1  A    between atoms: C_1  and  C_2
REMARK    2  A    between atoms: C_2  and  O_3
REMARK    3  A    between atoms: O_3  and  C_4
REMARK    4  A    between atoms: C_7  and  C_8
REMARK    5  A    between atoms: N_10  and  C_11
REMARK    6  A    between atoms: C_11  and  C_12
REMARK    7  A    between atoms: C_12  and  C_13
REMARK    8  A    between atoms: C_12  and  N_18
REMARK                            x       y       z     vdW  Elec       q    Type
REMARK                         _______ _______ _______ _____ _____    ______ ____
ROOT
ATOM      1  C   UNL     1       1.742   8.944  18.643  0.00  0.00    +0.000 C 
ATOM      2  O   UNL     1       1.727   9.537  17.570  0.00  0.00    +0.000 OA
ATOM      3  N   UNL     1       2.433   7.762  18.856  0.00  0.00    +0.000 N 
ATOM      4  H   UNL     1       2.083   7.150  19.584  0.00  0.00    +0.000 HD
ENDROOT
BRANCH   1   8
ATOM      5  C   UNL     1      -0.531  10.396  21.976  0.00  0.00    +0.000 A 
ATOM      6  C   UNL     1       0.416   9.387  22.146  0.00  0.00    +0.000 A 
ATOM      7  C   UNL     1       1.171   8.936  21.063  0.00  0.00    +0.000 A 
ATOM      8  C   UNL     1       0.985   9.499  19.793  0.00  0.00    +0.000 A 
ATOM      9  C   UNL     1       0.022  10.496  19.618  0.00  0.00    +0.000 A 
ATOM     10  C   UNL     1      -0.741  10.939  20.703  0.00  0.00    +0.000 A 
BRANCH   5  11
ATOM     11  O   UNL     1      -1.208  10.757  23.105  0.00  0.00    +0.000 OA
BRANCH  11  13
ATOM     12  C   UNL     1      -1.339  13.128  23.262  0.00  0.00    +0.000 C 
ATOM     13  C   UNL     1      -2.112  11.855  22.974  0.00  0.00    +0.000 C 
ENDBRANCH  11  13
ENDBRANCH   5  11
ENDBRANCH   1   8
BRANCH   3  14
ATOM     14  C   UNL     1       3.131   7.159  17.721  0.00  0.00    +0.000 C 
BRANCH  14  15
ATOM     15  C   UNL     1       3.832   5.784  17.996  0.00  0.00    +0.000 C 
BRANCH  15  16
ATOM     16  N   UNL     1       4.628   5.302  16.822  0.00  0.00    +0.000 NA
ATOM     17  C   UNL     1       5.593   4.216  17.130  0.00  0.00    +0.000 C 
ATOM     18  C   UNL     1       6.853   4.673  17.886  0.00  0.00    +0.000 C 
ATOM     19  O   UNL     1       7.520   5.750  17.218  0.00  0.00    +0.000 OA
ATOM     20  C   UNL     1       6.623   6.838  16.962  0.00  0.00    +0.000 C 
ATOM     21  C   UNL     1       5.410   6.364  16.146  0.00  0.00    +0.000 C 
ENDBRANCH  15  16
BRANCH  15  22
ATOM     22  C   UNL     1       2.789   4.754  18.382  0.00  0.00    +0.000 A 
ATOM     23  C   UNL     1       2.079   3.815  17.655  0.00  0.00    +0.000 A 
ATOM     24  C   UNL     1       1.117   3.265  18.536  0.00  0.00    +0.000 A 
ATOM     25  C   UNL     1       1.347   3.842  19.761  0.00  0.00    +0.000 A 
ATOM     26  O   UNL     1       2.359   4.742  19.680  0.00  0.00    +0.000 OA
ENDBRANCH  15  22
ENDBRANCH  14  15
ENDBRANCH   3  14
TORSDOF 7
ENDMDL
MODEL 5
REMARK VINA RESULT:      -7.0      1.466      3.615
REMARK  Name = 
REMARK  8 active torsions:
REMARK  status: ('A' for Active; 'I' for Inactive)
REMARK    1  A    between atoms: C_1  and  C_2
REMARK    2  A    between atoms: C_2  and  O_3
REMARK    3  A    between atoms: O_3  and  C_4
REMARK    4  A    between atoms: C_7  and  C_8
REMARK    5  A    between atoms: N_10  and  C_11
REMARK    6  A    between atoms: C_11  and  C_12
REMARK    7  A    between atoms: C_12  and  C_13
REMARK    8  A    between atoms: C_12  and  N_18
REMARK                            x       y       z     vdW  Elec       q    Type
REMARK                         _______ _______ _______ _____ _____    ______ ____
ROOT
ATOM      1  C   UNL     1       2.140   8.325  18.512  0.00  0.00    +0.000 C 
ATOM      2  O   UNL     1       2.152   8.851  17.404  0.00  0.00    +0.000 OA
ATOM      3  N   UNL     1       2.790   7.137  18.803  0.00  0.00    +0.000 N 
ATOM      4  H   UNL     1       2.416   6.583  19.565  0.00  0.00    +0.000 HD
ENDROOT
BRANCH   1   8
ATOM      5  C   UNL     1      -0.140  10.070  21.696  0.00  0.00    +0.000 A 
ATOM      6  C   UNL     1       0.537   8.866  21.883  0.00  0.00    +0.000 A 
ATOM      7  C   UNL     1       1.299   8.315  20.851  0.00  0.00    +0.000 A 
ATOM      8  C   UNL     1       1.392   8.974  19.617  0.00  0.00    +0.000 A 
ATOM      9  C   UNL     1       0.696  10.170  19.422  0.00  0.00    +0.000 A 
ATOM     10  C   UNL     1      -0.075  10.715  20.454  0.00  0.00    +0.000 A 
BRANCH   5  11
ATOM     11  O   UNL     1      -0.851  10.513  22.773  0.00  0.00    +0.000 OA
BRANCH  11  13
ATOM     12  C   UNL     1      -2.627  12.016  23.276  0.00  0.00    +0.000 C 
ATOM     13  C   UNL     1      -1.201  11.897  22.772  0.00  0.00    +0.000 C 
ENDBRANCH  11  13
ENDBRANCH   5  11
ENDBRANCH   1   8
BRANCH   3  14
ATOM     14  C   UNL     1       3.478   6.444  17.716  0.00  0.00    +0.000 C 
BRANCH  14  15
ATOM     15  C   UNL     1       3.995   5.000  18.038  0.00  0.00    +0.000 C 
BRANCH  15  16
ATOM     16  N   UNL     1       3.350   4.419  19.260  0.00  0.00    +0.000 NA
ATOM     17  C   UNL     1       3.905   3.113  19.695  0.00  0.00    +0.000 C 
ATOM     18  C   UNL     1       3.489   1.916  18.820  0.00  0.00    +0.000 C 
ATOM     19  O   UNL     1       2.067   1.824  18.677  0.00  0.00    +0.000 OA
ATOM     20  C   UNL     1       1.512   3.056  18.200  0.00  0.00    +0.000 C 
ATOM     21  C   UNL     1       1.887   4.219  19.132  0.00  0.00    +0.000 C 
ENDBRANCH  15  16
BRANCH  15  22
ATOM     22  C   UNL     1       5.502   5.027  18.203  0.00  0.00    +0.000 A 
ATOM     23  C   UNL     1       6.339   5.680  19.090  0.00  0.00    +0.000 A 
ATOM     24  C   UNL     1       7.661   5.459  18.634  0.00  0.00    +0.000 A 
ATOM     25  C   UNL     1       7.556   4.626  17.547  0.00  0.00    +0.000 A 
ATOM     26  O   UNL     1       6.254   4.355  17.280  0.00  0.00    +0.000 OA
ENDBRANCH  15  22
ENDBRANCH  14  15
ENDBRANCH   3  14
TORSDOF 7
ENDMDL
MODEL 6
REMARK VINA RESULT:      -7.0      3.162      9.149
REMARK  Name = 
REMARK  8 active torsions:
REMARK  status: ('A' for Active; 'I' for Inactive)
REMARK    1  A    between atoms: C_1  and  C_2
REMARK    2  A    between atoms: C_2  and  O_3
REMARK    3  A    between atoms: O_3  and  C_4
REMARK    4  A    between atoms: C_7  and  C_8
REMARK    5  A    between atoms: N_10  and  C_11
REMARK    6  A    between atoms: C_11  and  C_12
REMARK    7  A    between atoms: C_12  and  C_13
REMARK    8  A    between atoms: C_12  and  N_18
REMARK                            x       y       z     vdW  Elec       q    Type
REMARK                         _______ _______ _______ _____ _____    ______ ____
ROOT
ATOM      1  C   UNL     1       5.897   5.722  16.596  0.00  0.00    +0.000 C 
ATOM      2  O   UNL     1       6.245   6.877  16.816  0.00  0.00    +0.000 OA
ATOM      3  N   UNL     1       5.290   4.912  17.542  0.00  0.00    +0.000 N 
ATOM      4  H   UNL     1       5.406   3.911  17.433  0.00  0.00    +0.000 HD
ENDROOT
BRANCH   1   8
ATOM      5  C   UNL     1       6.577   3.865  12.791  0.00  0.00    +0.000 A 
ATOM      6  C   UNL     1       5.372   3.681  13.469  0.00  0.00    +0.000 A 
ATOM      7  C   UNL     1       5.146   4.308  14.695  0.00  0.00    +0.000 A 
ATOM      8  C   UNL     1       6.131   5.135  15.254  0.00  0.00    +0.000 A 
ATOM      9  C   UNL     1       7.346   5.304  14.586  0.00  0.00    +0.000 A 
ATOM     10  C   UNL     1       7.575   4.665  13.362  0.00  0.00    +0.000 A 
BRANCH   5  11
ATOM     11  O   UNL     1       6.685   3.205  11.602  0.00  0.00    +0.000 OA
BRANCH  11  13
ATOM     12  C   UNL     1       6.454   0.882  11.135  0.00  0.00    +0.000 C 
ATOM     13  C   UNL     1       5.714   2.188  11.355  0.00  0.00    +0.000 C 
ENDBRANCH  11  13
ENDBRANCH   5  11
ENDBRANCH   1   8
BRANCH   3  14
ATOM     14  C   UNL     1       5.109   5.444  18.891  0.00  0.00    +0.000 C 
BRANCH  14  15
ATOM     15  C   UNL     1       3.662   5.345  19.483  0.00  0.00    +0.000 C 
BRANCH  15  16
ATOM     16  N   UNL     1       2.933   4.122  19.012  0.00  0.00    +0.000 NA
ATOM     17  C   UNL     1       1.457   4.180  19.170  0.00  0.00    +0.000 C 
ATOM     18  C   UNL     1       0.961   4.006  20.617  0.00  0.00    +0.000 C 
ATOM     19  O   UNL     1       1.475   2.814  21.222  0.00  0.00    +0.000 OA
ATOM     20  C   UNL     1       2.904   2.763  21.137  0.00  0.00    +0.000 C 
ATOM     21  C   UNL     1       3.366   2.869  19.675  0.00  0.00    +0.000 C 
ENDBRANCH  15  16
BRANCH  15  22
ATOM     22  C   UNL     1       2.881   6.593  19.120  0.00  0.00    +0.000 A 
ATOM     23  C   UNL     1       2.746   7.310  17.945  0.00  0.00    +0.000 A 
ATOM     24  C   UNL     1       2.030   8.486  18.270  0.00  0.00    +0.000 A 
ATOM     25  C   UNL     1       1.705   8.381  19.601  0.00  0.00    +0.000 A 
ATOM     26  O   UNL     1       2.212   7.237  20.124  0.00  0.00    +0.000 OA
ENDBRANCH  15  22
ENDBRANCH  14  15
ENDBRANCH   3  14
TORSDOF 7
ENDMDL
MODEL 7
REMARK VINA RESULT:      -6.9      0.695      1.304
REMARK  Name = 
REMARK  8 active torsions:
REMARK  status: ('A' for Active; 'I' for Inactive)
REMARK    1  A    between atoms: C_1  and  C_2
REMARK    2  A    between atoms: C_2  and  O_3
REMARK    3  A    between atoms: O_3  and  C_4
REMARK    4  A    between atoms: C_7  and  C_8
REMARK    5  A    between atoms: N_10  and  C_11
REMARK    6  A    between atoms: C_11  and  C_12
REMARK    7  A    between atoms: C_12  and  C_13
REMARK    8  A    between atoms: C_12  and  N_18
REMARK                            x       y       z     vdW  Elec       q    Type
REMARK                         _______ _______ _______ _____ _____    ______ ____
ROOT
ATOM      1  C   UNL     1       1.530   8.843  19.026  0.00  0.00    +0.000 C 
ATOM      2  O   UNL     1       1.455   9.312  17.895  0.00  0.00    +0.000 OA
ATOM      3  N   UNL     1       2.194   7.664  19.324  0.00  0.00    +0.000 N 
ATOM      4  H   UNL     1       1.880   7.153  20.141  0.00  0.00    +0.000 HD
ENDROOT
BRANCH   1   8
ATOM      5  C   UNL     1      -0.460  10.767  22.301  0.00  0.00    +0.000 A 
ATOM      6  C   UNL     1       0.294   9.612  22.505  0.00  0.00    +0.000 A 
ATOM      7  C   UNL     1       0.961   9.004  21.441  0.00  0.00    +0.000 A 
ATOM      8  C   UNL     1       0.880   9.555  20.154  0.00  0.00    +0.000 A 
ATOM      9  C   UNL     1       0.108  10.701  19.944  0.00  0.00    +0.000 A 
ATOM     10  C   UNL     1      -0.568  11.302  21.011  0.00  0.00    +0.000 A 
BRANCH   5  11
ATOM     11  O   UNL     1      -1.066  11.273  23.413  0.00  0.00    +0.000 OA
BRANCH  11  13
ATOM     12  C   UNL     1      -3.231  12.256  23.514  0.00  0.00    +0.000 C 
ATOM     13  C   UNL     1      -1.760  12.510  23.246  0.00  0.00    +0.000 C 
ENDBRANCH  11  13
ENDBRANCH   5  11
ENDBRANCH   1   8
BRANCH   3  14
ATOM     14  C   UNL     1       2.786   6.909  18.221  0.00  0.00    +0.000 C 
BRANCH  14  15
ATOM     15  C   UNL     1       3.433   5.532  18.599  0.00  0.00    +0.000 C 
BRANCH  15  16
ATOM     16  N   UNL     1       4.280   4.975  17.494  0.00  0.00    +0.000 NA
ATOM     17  C   UNL     1       5.451   4.184  17.949  0.00  0.00    +0.000 C 
ATOM     18  C   UNL     1       6.613   5.024  18.512  0.00  0.00    +0.000 C 
ATOM     19  O   UNL     1       7.032   6.043  17.597  0.00  0.00    +0.000 OA
ATOM     20  C   UNL     1       5.928   6.860  17.189  0.00  0.00    +0.000 C 
ATOM     21  C   UNL     1       4.815   6.001  16.568  0.00  0.00    +0.000 C 
ENDBRANCH  15  16
BRANCH  15  22
ATOM     22  C   UNL     1       2.344   4.547  18.973  0.00  0.00    +0.000 A 
ATOM     23  C   UNL     1       1.617   4.344  20.133  0.00  0.00    +0.000 A 
ATOM     24  C   UNL     1       0.870   3.158  19.938  0.00  0.00    +0.000 A 
ATOM     25  C   UNL     1       1.124   2.753  18.650  0.00  0.00    +0.000 A 
ATOM     26  O   UNL     1       2.011   3.589  18.056  0.00  0.00    +0.000 OA
ENDBRANCH  15  22
ENDBRANCH  14  15
ENDBRANCH   3  14
TORSDOF 7
ENDMDL
MODEL 8
REMARK VINA RESULT:      -6.9      2.321      4.372
REMARK  Name = 
REMARK  8 active torsions:
REMARK  status: ('A' for Active; 'I' for Inactive)
REMARK    1  A    between atoms: C_1  and  C_2
REMARK    2  A    between atoms: C_2  and  O_3
REMARK    3  A    between atoms: O_3  and  C_4
REMARK    4  A    between atoms: C_7  and  C_8
REMARK    5  A    between atoms: N_10  and  C_11
REMARK    6  A    between atoms: C_11  and  C_12
REMARK    7  A    between atoms: C_12  and  C_13
REMARK    8  A    between atoms: C_12  and  N_18
REMARK                            x       y       z     vdW  Elec       q    Type
REMARK                         _______ _______ _______ _____ _____    ______ ____
ROOT
ATOM      1  C   UNL     1       3.205   7.216  18.667  0.00  0.00    +0.000 C 
ATOM      2  O   UNL     1       3.874   7.296  17.642  0.00  0.00    +0.000 OA
ATOM      3  N   UNL     1       3.391   6.236  19.628  0.00  0.00    +0.000 N 
ATOM      4  H   UNL     1       2.589   5.993  20.198  0.00  0.00    +0.000 HD
ENDROOT
BRANCH   1   8
ATOM      5  C   UNL     1      -0.012   9.951  19.413  0.00  0.00    +0.000 A 
ATOM      6  C   UNL     1       0.537   9.198  20.450  0.00  0.00    +0.000 A 
ATOM      7  C   UNL     1       1.601   8.329  20.206  0.00  0.00    +0.000 A 
ATOM      8  C   UNL     1       2.130   8.209  18.913  0.00  0.00    +0.000 A 
ATOM      9  C   UNL     1       1.567   8.948  17.870  0.00  0.00    +0.000 A 
ATOM     10  C   UNL     1       0.493   9.811  18.114  0.00  0.00    +0.000 A 
BRANCH   5  11
ATOM     11  O   UNL     1      -1.046  10.767  19.768  0.00  0.00    +0.000 OA
BRANCH  11  13
ATOM     12  C   UNL     1      -1.033  13.090  19.250  0.00  0.00    +0.000 C 
ATOM     13  C   UNL     1      -1.469  11.713  18.786  0.00  0.00    +0.000 C 
ENDBRANCH  11  13
ENDBRANCH   5  11
ENDBRANCH   1   8
BRANCH   3  14
ATOM     14  C   UNL     1       4.399   5.207  19.377  0.00  0.00    +0.000 C 
BRANCH  14  15
ATOM     15  C   UNL     1       4.062   4.175  18.247  0.00  0.00    +0.000 C 
BRANCH  15  16
ATOM     16  N   UNL     1       4.010   2.766  18.754  0.00  0.00    +0.000 NA
ATOM     17  C   UNL     1       2.997   1.905  18.093  0.00  0.00    +0.000 C 
ATOM     18  C   UNL     1       1.544   2.186  18.516  0.00  0.00    +0.000 C 
ATOM     19  O   UNL     1       1.378   2.138  19.938  0.00  0.00    +0.000 OA
ATOM     20  C   UNL     1       2.306   3.008  20.598  0.00  0.00    +0.000 C 
ATOM     21  C   UNL     1       3.751   2.658  20.210  0.00  0.00    +0.000 C 
ENDBRANCH  15  16
BRANCH  15  22
ATOM     22  C   UNL     1       5.084   4.295  17.133  0.00  0.00    +0.000 A 
ATOM     23  C   UNL     1       5.002   4.139  15.761  0.00  0.00    +0.000 A 
ATOM     24  C   UNL     1       6.328   4.201  15.269  0.00  0.00    +0.000 A 
ATOM     25  C   UNL     1       7.127   4.467  16.354  0.00  0.00    +0.000 A 
ATOM     26  O   UNL     1       6.383   4.531  17.487  0.00  0.00    +0.000 OA
ENDBRANCH  15  22
ENDBRANCH  14  15
ENDBRANCH   3  14
TORSDOF 7
ENDMDL
MODEL 9
REMARK VINA RESULT:      -6.8      2.310      4.416
REMARK  Name = 
REMARK  8 active torsions:
REMARK  status: ('A' for Active; 'I' for Inactive)
REMARK    1  A    between atoms: C_1  and  C_2
REMARK    2  A    between atoms: C_2  and  O_3
REMARK    3  A    between atoms: O_3  and  C_4
REMARK    4  A    between atoms: C_7  and  C_8
REMARK    5  A    between atoms: N_10  and  C_11
REMARK    6  A    between atoms: C_11  and  C_12
REMARK    7  A    between atoms: C_12  and  C_13
REMARK    8  A    between atoms: C_12  and  N_18
REMARK                            x       y       z     vdW  Elec       q    Type
REMARK                         _______ _______ _______ _____ _____    ______ ____
ROOT
ATOM      1  C   UNL     1       2.332   6.861  19.717  0.00  0.00    +0.000 C 
ATOM      2  O   UNL     1       1.822   6.110  20.542  0.00  0.00    +0.000 OA
ATOM      3  N   UNL     1       3.440   6.525  18.957  0.00  0.00    +0.000 N 
ATOM      4  H   UNL     1       4.021   7.287  18.629  0.00  0.00    +0.000 HD
ENDROOT
BRANCH   1   8
ATOM      5  C   UNL     1       0.820  10.825  19.097  0.00  0.00    +0.000 A 
ATOM      6  C   UNL     1       1.493  10.152  18.078  0.00  0.00    +0.000 A 
ATOM      7  C   UNL     1       1.960   8.853  18.277  0.00  0.00    +0.000 A 
ATOM      8  C   UNL     1       1.752   8.210  19.505  0.00  0.00    +0.000 A 
ATOM      9  C   UNL     1       1.096   8.891  20.534  0.00  0.00    +0.000 A 
ATOM     10  C   UNL     1       0.638  10.198  20.336  0.00  0.00    +0.000 A 
BRANCH   5  11
ATOM     11  O   UNL     1       0.408  12.089  18.789  0.00  0.00    +0.000 OA
BRANCH  11  13
ATOM     12  C   UNL     1      -1.773  11.851  17.866  0.00  0.00    +0.000 C 
ATOM     13  C   UNL     1      -0.968  12.382  19.037  0.00  0.00    +0.000 C 
ENDBRANCH  11  13
ENDBRANCH   5  11
ENDBRANCH   1   8
BRANCH   3  14
ATOM     14  C   UNL     1       4.070   5.227  19.194  0.00  0.00    +0.000 C 
BRANCH  14  15
ATOM     15  C   UNL     1       4.012   4.206  18.007  0.00  0.00    +0.000 C 
BRANCH  15  16
ATOM     16  N   UNL     1       4.089   2.783  18.471  0.00  0.00    +0.000 NA
ATOM     17  C   UNL     1       2.991   1.910  17.981  0.00  0.00    +0.000 C 
ATOM     18  C   UNL     1       1.635   2.137  18.672  0.00  0.00    +0.000 C 
ATOM     19  O   UNL     1       1.736   2.047  20.098  0.00  0.00    +0.000 OA
ATOM     20  C   UNL     1       2.749   2.926  20.603  0.00  0.00    +0.000 C 
ATOM     21  C   UNL     1       4.106   2.629  19.945  0.00  0.00    +0.000 C 
ENDBRANCH  15  16
BRANCH  15  22
ATOM     22  C   UNL     1       5.134   4.502  17.032  0.00  0.00    +0.000 A 
ATOM     23  C   UNL     1       5.587   3.857  15.894  0.00  0.00    +0.000 A 
ATOM     24  C   UNL     1       6.783   4.508  15.511  0.00  0.00    +0.000 A 
ATOM     25  C   UNL     1       6.948   5.553  16.386  0.00  0.00    +0.000 A 
ATOM     26  O   UNL     1       5.953   5.561  17.308  0.00  0.00    +0.000 OA
ENDBRANCH  15  22
ENDBRANCH  14  15
ENDBRANCH   3  14
TORSDOF 7
ENDMDL
