MODEL 1
REMARK VINA RESULT:      -7.4      0.000      0.000
REMARK  Name = 
REMARK  7 active torsions:
REMARK  status: ('A' for Active; 'I' for Inactive)
REMARK    1  A    between atoms: C_1  and  O_2
REMARK    2  A    between atoms: O_2  and  C_3
REMARK    3  A    between atoms: C_6  and  C_7
REMARK    4  A    between atoms: C_8  and  C_9
REMARK    5  A    between atoms: C_9  and  O_11
REMARK    6  A    between atoms: N_14  and  C_15
REMARK    7  A    between atoms: C_15  and  C_16
REMARK                            x       y       z     vdW  Elec       q    Type
REMARK                         _______ _______ _______ _____ _____    ______ ____
ROOT
ATOM      1  C   UNL     1       1.137   8.002  19.899  0.00  0.00    +0.000 A 
ATOM      2  C   UNL     1       1.771   8.607  18.850  0.00  0.00    +0.000 A 
ATOM      3  C   UNL     1       2.702   7.817  17.952  0.00  0.00    +0.000 A 
ATOM      4  O   UNL     1       3.106   8.342  16.913  0.00  0.00    +0.000 OA
ATOM      5  N   UNL     1       3.129   6.562  18.359  0.00  0.00    +0.000 N 
ATOM      6  C   UNL     1       2.540   6.006  19.481  0.00  0.00    +0.000 A 
ATOM      7  C   UNL     1       1.463   6.616  20.091  0.00  0.00    +0.000 A 
ATOM      8  O   UNL     1       0.782   5.619  20.770  0.00  0.00    +0.000 OA
ATOM      9  C   UNL     1       1.571   4.489  20.728  0.00  0.00    +0.000 A 
ATOM     10  C   UNL     1       1.261   3.203  21.165  0.00  0.00    +0.000 A 
ATOM     11  C   UNL     1       2.314   2.271  21.169  0.00  0.00    +0.000 A 
ATOM     12  C   UNL     1       3.612   2.633  20.802  0.00  0.00    +0.000 A 
ATOM     13  C   UNL     1       3.864   3.894  20.261  0.00  0.00    +0.000 A 
ATOM     14  C   UNL     1       2.795   4.799  20.154  0.00  0.00    +0.000 A 
ENDROOT
BRANCH   1  18
ATOM     15  C   UNL     1      -0.601  10.733  22.715  0.00  0.00    +0.000 A 
ATOM     16  C   UNL     1      -1.117  10.636  21.420  0.00  0.00    +0.000 A 
ATOM     17  C   UNL     1      -0.635   9.679  20.518  0.00  0.00    +0.000 A 
ATOM     18  C   UNL     1       0.402   8.819  20.896  0.00  0.00    +0.000 A 
ATOM     19  C   UNL     1       0.880   8.883  22.218  0.00  0.00    +0.000 A 
ATOM     20  C   UNL     1       0.388   9.837  23.120  0.00  0.00    +0.000 A 
BRANCH  15  22
ATOM     21  C   UNL     1      -2.438  12.167  23.184  0.00  0.00    +0.000 C 
ATOM     22  O   UNL     1      -1.102  11.767  23.457  0.00  0.00    +0.000 OA
ENDBRANCH  15  22
ENDBRANCH   1  18
BRANCH   2  23
ATOM     23  C   UNL     1       1.615  10.070  18.539  0.00  0.00    +0.000 C 
ATOM     24  O   UNL     1       2.207  10.985  19.081  0.00  0.00    +0.000 OA
BRANCH  23  25
ATOM     25  O   UNL     1       0.714  10.344  17.562  0.00  0.00    +0.000 OA
ATOM     26  H   UNL     1       0.967  10.013  16.668  0.00  0.00    +0.000 HD
ENDBRANCH  23  25
ENDBRANCH   2  23
BRANCH   5  27
ATOM     27  C   UNL     1       3.797   5.714  17.371  0.00  0.00    +0.000 C 
BRANCH  27  28
ATOM     28  C   UNL     1       5.271   5.479  17.573  0.00  0.00    +0.000 A 
ATOM     29  C   UNL     1       5.946   5.928  18.723  0.00  0.00    +0.000 A 
ATOM     30  C   UNL     1       7.308   5.685  18.885  0.00  0.00    +0.000 A 
ATOM     31  C   UNL     1       8.022   4.987  17.915  0.00  0.00    +0.000 A 
ATOM     32  C   UNL     1       7.372   4.535  16.769  0.00  0.00    +0.000 A 
ATOM     33  C   UNL     1       6.008   4.784  16.597  0.00  0.00    +0.000 A 
ATOM     34 CL   UNL     1       5.274   4.207  15.140  0.00  0.00    +0.000 Cl
ENDBRANCH  27  28
ENDBRANCH   5  27
TORSDOF 6
ENDMDL
MODEL 2
REMARK VINA RESULT:      -7.2      5.831      9.912
REMARK  Name = 
REMARK  7 active torsions:
REMARK  status: ('A' for Active; 'I' for Inactive)
REMARK    1  A    between atoms: C_1  and  O_2
REMARK    2  A    between atoms: O_2  and  C_3
REMARK    3  A    between atoms: C_6  and  C_7
REMARK    4  A    between atoms: C_8  and  C_9
REMARK    5  A    between atoms: C_9  and  O_11
REMARK    6  A    between atoms: N_14  and  C_15
REMARK    7  A    between atoms: C_15  and  C_16
REMARK                            x       y       z     vdW  Elec       q    Type
REMARK                         _______ _______ _______ _____ _____    ______ ____
ROOT
ATOM      1  C   UNL     1       0.872  12.331  19.208  0.00  0.00    +0.000 A 
ATOM      2  C   UNL     1      -0.308  12.851  19.663  0.00  0.00    +0.000 A 
ATOM      3  C   UNL     1      -0.432  14.330  19.966  0.00  0.00    +0.000 A 
ATOM      4  O   UNL     1      -1.551  14.794  20.191  0.00  0.00    +0.000 OA
ATOM      5  N   UNL     1       0.718  15.101  20.052  0.00  0.00    +0.000 N 
ATOM      6  C   UNL     1       1.918  14.524  19.676  0.00  0.00    +0.000 A 
ATOM      7  C   UNL     1       1.950  13.272  19.097  0.00  0.00    +0.000 A 
ATOM      8  O   UNL     1       3.122  13.212  18.359  0.00  0.00    +0.000 OA
ATOM      9  C   UNL     1       3.858  14.334  18.678  0.00  0.00    +0.000 A 
ATOM     10  C   UNL     1       5.048  14.778  18.103  0.00  0.00    +0.000 A 
ATOM     11  C   UNL     1       5.685  15.859  18.737  0.00  0.00    +0.000 A 
ATOM     12  C   UNL     1       5.176  16.423  19.910  0.00  0.00    +0.000 A 
ATOM     13  C   UNL     1       3.926  16.034  20.392  0.00  0.00    +0.000 A 
ATOM     14  C   UNL     1       3.231  15.025  19.704  0.00  0.00    +0.000 A 
ENDROOT
BRANCH   1  18
ATOM     15  C   UNL     1       1.919   8.175  18.997  0.00  0.00    +0.000 A 
ATOM     16  C   UNL     1       1.434   8.717  20.190  0.00  0.00    +0.000 A 
ATOM     17  C   UNL     1       0.988  10.044  20.254  0.00  0.00    +0.000 A 
ATOM     18  C   UNL     1       1.051  10.860  19.120  0.00  0.00    +0.000 A 
ATOM     19  C   UNL     1       1.487  10.293  17.907  0.00  0.00    +0.000 A 
ATOM     20  C   UNL     1       1.924   8.962  17.847  0.00  0.00    +0.000 A 
BRANCH  15  22
ATOM     21  C   UNL     1       2.006   6.152  20.242  0.00  0.00    +0.000 C 
ATOM     22  O   UNL     1       2.401   6.899  19.100  0.00  0.00    +0.000 OA
ENDBRANCH  15  22
ENDBRANCH   1  18
BRANCH   2  23
ATOM     23  C   UNL     1      -1.525  12.006  19.917  0.00  0.00    +0.000 C 
ATOM     24  O   UNL     1      -2.202  11.451  19.071  0.00  0.00    +0.000 OA
BRANCH  23  25
ATOM     25  O   UNL     1      -1.865  11.890  21.226  0.00  0.00    +0.000 OA
ATOM     26  H   UNL     1      -2.205  11.000  21.482  0.00  0.00    +0.000 HD
ENDBRANCH  23  25
ENDBRANCH   2  23
BRANCH   5  27
ATOM     27  C   UNL     1       0.565  16.556  20.074  0.00  0.00    +0.000 C 
BRANCH  27  28
ATOM     28  C   UNL     1       0.536  17.250  18.737  0.00  0.00    +0.000 A 
ATOM     29  C   UNL     1       1.679  17.352  17.925  0.00  0.00    +0.000 A 
ATOM     30  C   UNL     1       1.616  17.990  16.688  0.00  0.00    +0.000 A 
ATOM     31  C   UNL     1       0.418  18.531  16.233  0.00  0.00    +0.000 A 
ATOM     32  C   UNL     1      -0.726  18.441  17.022  0.00  0.00    +0.000 A 
ATOM     33  C   UNL     1      -0.666  17.810  18.267  0.00  0.00    +0.000 A 
ATOM     34 CL   UNL     1      -2.124  17.753  19.199  0.00  0.00    +0.000 Cl
ENDBRANCH  27  28
ENDBRANCH   5  27
TORSDOF 6
ENDMDL
MODEL 3
REMARK VINA RESULT:      -7.1      7.231     10.507
REMARK  Name = 
REMARK  7 active torsions:
REMARK  status: ('A' for Active; 'I' for Inactive)
REMARK    1  A    between atoms: C_1  and  O_2
REMARK    2  A    between atoms: O_2  and  C_3
REMARK    3  A    between atoms: C_6  and  C_7
REMARK    4  A    between atoms: C_8  and  C_9
REMARK    5  A    between atoms: C_9  and  O_11
REMARK    6  A    between atoms: N_14  and  C_15
REMARK    7  A    between atoms: C_15  and  C_16
REMARK                            x       y       z     vdW  Elec       q    Type
REMARK                         _______ _______ _______ _____ _____    ______ ____
ROOT
ATOM      1  C   UNL     1       0.227  13.985  20.225  0.00  0.00    +0.000 A 
ATOM      2  C   UNL     1      -0.228  14.475  21.417  0.00  0.00    +0.000 A 
ATOM      3  C   UNL     1      -1.492  13.923  22.045  0.00  0.00    +0.000 A 
ATOM      4  O   UNL     1      -1.768  14.250  23.200  0.00  0.00    +0.000 OA
ATOM      5  N   UNL     1      -2.334  13.128  21.282  0.00  0.00    +0.000 N 
ATOM      6  C   UNL     1      -1.892  12.721  20.036  0.00  0.00    +0.000 A 
ATOM      7  C   UNL     1      -0.600  12.975  19.625  0.00  0.00    +0.000 A 
ATOM      8  O   UNL     1      -0.300  12.023  18.664  0.00  0.00    +0.000 OA
ATOM      9  C   UNL     1      -1.473  11.360  18.372  0.00  0.00    +0.000 A 
ATOM     10  C   UNL     1      -1.654  10.241  17.560  0.00  0.00    +0.000 A 
ATOM     11  C   UNL     1      -2.983   9.872  17.288  0.00  0.00    +0.000 A 
ATOM     12  C   UNL     1      -4.062  10.619  17.767  0.00  0.00    +0.000 A 
ATOM     13  C   UNL     1      -3.851  11.661  18.670  0.00  0.00    +0.000 A 
ATOM     14  C   UNL     1      -2.529  11.972  19.031  0.00  0.00    +0.000 A 
ENDROOT
BRANCH   1  18
ATOM     15  C   UNL     1       3.435  16.311  18.580  0.00  0.00    +0.000 A 
ATOM     16  C   UNL     1       3.704  15.102  19.226  0.00  0.00    +0.000 A 
ATOM     17  C   UNL     1       2.667  14.276  19.678  0.00  0.00    +0.000 A 
ATOM     18  C   UNL     1       1.335  14.670  19.513  0.00  0.00    +0.000 A 
ATOM     19  C   UNL     1       1.068  15.861  18.812  0.00  0.00    +0.000 A 
ATOM     20  C   UNL     1       2.110  16.680  18.354  0.00  0.00    +0.000 A 
BRANCH  15  22
ATOM     21  C   UNL     1       5.604  17.050  19.214  0.00  0.00    +0.000 C 
ATOM     22  O   UNL     1       4.540  17.057  18.272  0.00  0.00    +0.000 OA
ENDBRANCH  15  22
ENDBRANCH   1  18
BRANCH   2  23
ATOM     23  C   UNL     1       0.461  15.588  22.155  0.00  0.00    +0.000 C 
ATOM     24  O   UNL     1       1.507  15.500  22.772  0.00  0.00    +0.000 OA
BRANCH  23  25
ATOM     25  O   UNL     1      -0.187  16.780  22.106  0.00  0.00    +0.000 OA
ATOM     26  H   UNL     1      -1.133  16.719  21.835  0.00  0.00    +0.000 HD
ENDBRANCH  23  25
ENDBRANCH   2  23
BRANCH   5  27
ATOM     27  C   UNL     1      -3.392  12.391  21.975  0.00  0.00    +0.000 C 
BRANCH  27  28
ATOM     28  C   UNL     1      -4.681  13.133  22.217  0.00  0.00    +0.000 A 
ATOM     29  C   UNL     1      -5.338  13.837  21.192  0.00  0.00    +0.000 A 
ATOM     30  C   UNL     1      -6.535  14.503  21.445  0.00  0.00    +0.000 A 
ATOM     31  C   UNL     1      -7.104  14.477  22.715  0.00  0.00    +0.000 A 
ATOM     32  C   UNL     1      -6.468  13.785  23.743  0.00  0.00    +0.000 A 
ATOM     33  C   UNL     1      -5.263  13.123  23.497  0.00  0.00    +0.000 A 
ATOM     34 CL   UNL     1      -4.523  12.300  24.828  0.00  0.00    +0.000 Cl
ENDBRANCH  27  28
ENDBRANCH   5  27
TORSDOF 6
ENDMDL
MODEL 4
REMARK VINA RESULT:      -7.1      5.438     11.008
REMARK  Name = 
REMARK  7 active torsions:
REMARK  status: ('A' for Active; 'I' for Inactive)
REMARK    1  A    between atoms: C_1  and  O_2
REMARK    2  A    between atoms: O_2  and  C_3
REMARK    3  A    between atoms: C_6  and  C_7
REMARK    4  A    between atoms: C_8  and  C_9
REMARK    5  A    between atoms: C_9  and  O_11
REMARK    6  A    between atoms: N_14  and  C_15
REMARK    7  A    between atoms: C_15  and  C_16
REMARK                            x       y       z     vdW  Elec       q    Type
REMARK                         _______ _______ _______ _____ _____    ______ ____
ROOT
ATOM      1  C   UNL     1      -2.454  11.846  19.273  0.00  0.00    +0.000 A 
ATOM      2  C   UNL     1      -3.264  11.581  18.204  0.00  0.00    +0.000 A 
ATOM      3  C   UNL     1      -4.687  12.101  18.169  0.00  0.00    +0.000 A 
ATOM      4  O   UNL     1      -5.323  12.006  17.117  0.00  0.00    +0.000 OA
ATOM      5  N   UNL     1      -5.254  12.598  19.332  0.00  0.00    +0.000 N 
ATOM      6  C   UNL     1      -4.435  12.770  20.434  0.00  0.00    +0.000 A 
ATOM      7  C   UNL     1      -3.070  12.590  20.336  0.00  0.00    +0.000 A 
ATOM      8  O   UNL     1      -2.503  13.335  21.357  0.00  0.00    +0.000 OA
ATOM      9  C   UNL     1      -3.535  13.769  22.162  0.00  0.00    +0.000 A 
ATOM     10  C   UNL     1      -3.476  14.649  23.241  0.00  0.00    +0.000 A 
ATOM     11  C   UNL     1      -4.649  14.785  24.004  0.00  0.00    +0.000 A 
ATOM     12  C   UNL     1      -5.795  14.037  23.722  0.00  0.00    +0.000 A 
ATOM     13  C   UNL     1      -5.859  13.255  22.569  0.00  0.00    +0.000 A 
ATOM     14  C   UNL     1      -4.725  13.194  21.742  0.00  0.00    +0.000 A 
ENDROOT
BRANCH   1  18
ATOM     15  C   UNL     1       1.104   9.451  19.383  0.00  0.00    +0.000 A 
ATOM     16  C   UNL     1       0.979  10.479  18.446  0.00  0.00    +0.000 A 
ATOM     17  C   UNL     1      -0.127  11.340  18.458  0.00  0.00    +0.000 A 
ATOM     18  C   UNL     1      -1.144  11.160  19.401  0.00  0.00    +0.000 A 
ATOM     19  C   UNL     1      -0.986  10.159  20.378  0.00  0.00    +0.000 A 
ATOM     20  C   UNL     1       0.127   9.306  20.366  0.00  0.00    +0.000 A 
BRANCH  15  22
ATOM     21  C   UNL     1       2.545   8.333  17.858  0.00  0.00    +0.000 C 
ATOM     22  O   UNL     1       2.186   8.634  19.200  0.00  0.00    +0.000 OA
ENDBRANCH  15  22
ENDBRANCH   1  18
BRANCH   2  23
ATOM     23  C   UNL     1      -2.820  10.751  17.032  0.00  0.00    +0.000 C 
ATOM     24  O   UNL     1      -2.777   9.535  16.990  0.00  0.00    +0.000 OA
BRANCH  23  25
ATOM     25  O   UNL     1      -2.433  11.471  15.949  0.00  0.00    +0.000 OA
ATOM     26  H   UNL     1      -2.227  12.416  16.139  0.00  0.00    +0.000 HD
ENDBRANCH  23  25
ENDBRANCH   2  23
BRANCH   5  27
ATOM     27  C   UNL     1      -6.513  13.336  19.218  0.00  0.00    +0.000 C 
BRANCH  27  28
ATOM     28  C   UNL     1      -6.407  14.806  18.908  0.00  0.00    +0.000 A 
ATOM     29  C   UNL     1      -5.845  15.720  19.817  0.00  0.00    +0.000 A 
ATOM     30  C   UNL     1      -5.751  17.072  19.495  0.00  0.00    +0.000 A 
ATOM     31  C   UNL     1      -6.204  17.539  18.265  0.00  0.00    +0.000 A 
ATOM     32  C   UNL     1      -6.763  16.650  17.351  0.00  0.00    +0.000 A 
ATOM     33  C   UNL     1      -6.869  15.295  17.672  0.00  0.00    +0.000 A 
ATOM     34 CL   UNL     1      -7.592  14.254  16.493  0.00  0.00    +0.000 Cl
ENDBRANCH  27  28
ENDBRANCH   5  27
TORSDOF 6
ENDMDL
MODEL 5
REMARK VINA RESULT:      -6.9      5.059     10.975
REMARK  Name = 
REMARK  7 active torsions:
REMARK  status: ('A' for Active; 'I' for Inactive)
REMARK    1  A    between atoms: C_1  and  O_2
REMARK    2  A    between atoms: O_2  and  C_3
REMARK    3  A    between atoms: C_6  and  C_7
REMARK    4  A    between atoms: C_8  and  C_9
REMARK    5  A    between atoms: C_9  and  O_11
REMARK    6  A    between atoms: N_14  and  C_15
REMARK    7  A    between atoms: C_15  and  C_16
REMARK                            x       y       z     vdW  Elec       q    Type
REMARK                         _______ _______ _______ _____ _____    ______ ____
ROOT
ATOM      1  C   UNL     1      -1.491  11.960  20.063  0.00  0.00    +0.000 A 
ATOM      2  C   UNL     1      -2.624  11.855  19.304  0.00  0.00    +0.000 A 
ATOM      3  C   UNL     1      -3.855  12.670  19.641  0.00  0.00    +0.000 A 
ATOM      4  O   UNL     1      -4.786  12.694  18.834  0.00  0.00    +0.000 OA
ATOM      5  N   UNL     1      -3.930  13.304  20.872  0.00  0.00    +0.000 N 
ATOM      6  C   UNL     1      -2.798  13.316  21.668  0.00  0.00    +0.000 A 
ATOM      7  C   UNL     1      -1.593  12.842  21.191  0.00  0.00    +0.000 A 
ATOM      8  O   UNL     1      -0.605  13.468  21.935  0.00  0.00    +0.000 OA
ATOM      9  C   UNL     1      -1.234  14.132  22.966  0.00  0.00    +0.000 A 
ATOM     10  C   UNL     1      -0.675  15.002  23.901  0.00  0.00    +0.000 A 
ATOM     11  C   UNL     1      -1.509  15.405  24.959  0.00  0.00    +0.000 A 
ATOM     12  C   UNL     1      -2.812  14.918  25.089  0.00  0.00    +0.000 A 
ATOM     13  C   UNL     1      -3.378  14.144  24.077  0.00  0.00    +0.000 A 
ATOM     14  C   UNL     1      -2.586  13.822  22.962  0.00  0.00    +0.000 A 
ENDROOT
BRANCH   1  18
ATOM     15  C   UNL     1       1.378   8.860  19.308  0.00  0.00    +0.000 A 
ATOM     16  C   UNL     1       1.220   9.908  18.397  0.00  0.00    +0.000 A 
ATOM     17  C   UNL     1       0.366  10.984  18.672  0.00  0.00    +0.000 A 
ATOM     18  C   UNL     1      -0.370  11.008  19.861  0.00  0.00    +0.000 A 
ATOM     19  C   UNL     1      -0.165   9.980  20.800  0.00  0.00    +0.000 A 
ATOM     20  C   UNL     1       0.698   8.909  20.524  0.00  0.00    +0.000 A 
BRANCH  15  22
ATOM     21  C   UNL     1       3.058   8.119  17.798  0.00  0.00    +0.000 C 
ATOM     22  O   UNL     1       2.173   7.836  18.874  0.00  0.00    +0.000 OA
ENDBRANCH  15  22
ENDBRANCH   1  18
BRANCH   2  23
ATOM     23  C   UNL     1      -2.732  10.923  18.129  0.00  0.00    +0.000 C 
ATOM     24  O   UNL     1      -2.881   9.716  18.182  0.00  0.00    +0.000 OA
BRANCH  23  25
ATOM     25  O   UNL     1      -2.643  11.532  16.920  0.00  0.00    +0.000 OA
ATOM     26  H   UNL     1      -2.486  10.918  16.164  0.00  0.00    +0.000 HD
ENDBRANCH  23  25
ENDBRANCH   2  23
BRANCH   5  27
ATOM     27  C   UNL     1      -4.989  14.294  21.068  0.00  0.00    +0.000 C 
BRANCH  27  28
ATOM     28  C   UNL     1      -6.016  13.983  22.126  0.00  0.00    +0.000 A 
ATOM     29  C   UNL     1      -6.423  12.665  22.403  0.00  0.00    +0.000 A 
ATOM     30  C   UNL     1      -7.367  12.409  23.395  0.00  0.00    +0.000 A 
ATOM     31  C   UNL     1      -7.916  13.452  24.133  0.00  0.00    +0.000 A 
ATOM     32  C   UNL     1      -7.526  14.763  23.874  0.00  0.00    +0.000 A 
ATOM     33  C   UNL     1      -6.588  15.027  22.874  0.00  0.00    +0.000 A 
ATOM     34 CL   UNL     1      -6.167  16.683  22.597  0.00  0.00    +0.000 Cl
ENDBRANCH  27  28
ENDBRANCH   5  27
TORSDOF 6
ENDMDL
MODEL 6
REMARK VINA RESULT:      -6.9      7.175      8.388
REMARK  Name = 
REMARK  7 active torsions:
REMARK  status: ('A' for Active; 'I' for Inactive)
REMARK    1  A    between atoms: C_1  and  O_2
REMARK    2  A    between atoms: O_2  and  C_3
REMARK    3  A    between atoms: C_6  and  C_7
REMARK    4  A    between atoms: C_8  and  C_9
REMARK    5  A    between atoms: C_9  and  O_11
REMARK    6  A    between atoms: N_14  and  C_15
REMARK    7  A    between atoms: C_15  and  C_16
REMARK                            x       y       z     vdW  Elec       q    Type
REMARK                         _______ _______ _______ _____ _____    ______ ____
ROOT
ATOM      1  C   UNL     1       4.428  14.594  20.875  0.00  0.00    +0.000 A 
ATOM      2  C   UNL     1       5.044  15.183  19.806  0.00  0.00    +0.000 A 
ATOM      3  C   UNL     1       6.556  15.224  19.714  0.00  0.00    +0.000 A 
ATOM      4  O   UNL     1       7.073  15.590  18.658  0.00  0.00    +0.000 OA
ATOM      5  N   UNL     1       7.310  14.920  20.838  0.00  0.00    +0.000 N 
ATOM      6  C   UNL     1       6.653  14.413  21.945  0.00  0.00    +0.000 A 
ATOM      7  C   UNL     1       5.314  14.084  21.884  0.00  0.00    +0.000 A 
ATOM      8  O   UNL     1       5.098  13.139  22.875  0.00  0.00    +0.000 OA
ATOM      9  C   UNL     1       6.247  13.081  23.635  0.00  0.00    +0.000 A 
ATOM     10  C   UNL     1       6.556  12.195  24.666  0.00  0.00    +0.000 A 
ATOM     11  C   UNL     1       7.725  12.468  25.397  0.00  0.00    +0.000 A 
ATOM     12  C   UNL     1       8.506  13.596  25.134  0.00  0.00    +0.000 A 
ATOM     13  C   UNL     1       8.235  14.395  24.023  0.00  0.00    +0.000 A 
ATOM     14  C   UNL     1       7.128  14.070  23.222  0.00  0.00    +0.000 A 
ENDROOT
BRANCH   1  18
ATOM     15  C   UNL     1       0.249  14.690  21.842  0.00  0.00    +0.000 A 
ATOM     16  C   UNL     1       1.085  15.742  22.230  0.00  0.00    +0.000 A 
ATOM     17  C   UNL     1       2.428  15.782  21.836  0.00  0.00    +0.000 A 
ATOM     18  C   UNL     1       2.964  14.744  21.066  0.00  0.00    +0.000 A 
ATOM     19  C   UNL     1       2.106  13.717  20.631  0.00  0.00    +0.000 A 
ATOM     20  C   UNL     1       0.759  13.686  21.021  0.00  0.00    +0.000 A 
BRANCH  15  22
ATOM     21  C   UNL     1      -1.264  13.913  23.503  0.00  0.00    +0.000 C 
ATOM     22  O   UNL     1      -1.012  14.734  22.370  0.00  0.00    +0.000 OA
ENDBRANCH  15  22
ENDBRANCH   1  18
BRANCH   2  23
ATOM     23  C   UNL     1       4.283  15.841  18.689  0.00  0.00    +0.000 C 
ATOM     24  O   UNL     1       3.835  16.973  18.696  0.00  0.00    +0.000 OA
BRANCH  23  25
ATOM     25  O   UNL     1       4.097  15.056  17.598  0.00  0.00    +0.000 OA
ATOM     26  H   UNL     1       4.568  15.364  16.788  0.00  0.00    +0.000 HD
ENDBRANCH  23  25
ENDBRANCH   2  23
BRANCH   5  27
ATOM     27  C   UNL     1       8.746  14.703  20.660  0.00  0.00    +0.000 C 
BRANCH  27  28
ATOM     28  C   UNL     1       9.166  13.334  20.191  0.00  0.00    +0.000 A 
ATOM     29  C   UNL     1       9.024  12.193  21.001  0.00  0.00    +0.000 A 
ATOM     30  C   UNL     1       9.412  10.939  20.534  0.00  0.00    +0.000 A 
ATOM     31  C   UNL     1       9.940  10.795  19.255  0.00  0.00    +0.000 A 
ATOM     32  C   UNL     1      10.088  11.912  18.437  0.00  0.00    +0.000 A 
ATOM     33  C   UNL     1       9.710  13.172  18.904  0.00  0.00    +0.000 A 
ATOM     34 CL   UNL     1       9.942  14.516  17.838  0.00  0.00    +0.000 Cl
ENDBRANCH  27  28
ENDBRANCH   5  27
TORSDOF 6
ENDMDL
MODEL 7
REMARK VINA RESULT:      -6.8      6.685      9.357
REMARK  Name = 
REMARK  7 active torsions:
REMARK  status: ('A' for Active; 'I' for Inactive)
REMARK    1  A    between atoms: C_1  and  O_2
REMARK    2  A    between atoms: O_2  and  C_3
REMARK    3  A    between atoms: C_6  and  C_7
REMARK    4  A    between atoms: C_8  and  C_9
REMARK    5  A    between atoms: C_9  and  O_11
REMARK    6  A    between atoms: N_14  and  C_15
REMARK    7  A    between atoms: C_15  and  C_16
REMARK                            x       y       z     vdW  Elec       q    Type
REMARK                         _______ _______ _______ _____ _____    ______ ____
ROOT
ATOM      1  C   UNL     1      -0.384  13.411  19.791  0.00  0.00    +0.000 A 
ATOM      2  C   UNL     1       0.616  12.841  20.528  0.00  0.00    +0.000 A 
ATOM      3  C   UNL     1       1.936  13.559  20.723  0.00  0.00    +0.000 A 
ATOM      4  O   UNL     1       2.738  13.108  21.542  0.00  0.00    +0.000 OA
ATOM      5  N   UNL     1       2.232  14.656  19.928  0.00  0.00    +0.000 N 
ATOM      6  C   UNL     1       1.231  15.161  19.116  0.00  0.00    +0.000 A 
ATOM      7  C   UNL     1      -0.060  14.680  19.202  0.00  0.00    +0.000 A 
ATOM      8  O   UNL     1      -0.885  15.688  18.729  0.00  0.00    +0.000 OA
ATOM      9  C   UNL     1      -0.068  16.655  18.181  0.00  0.00    +0.000 A 
ATOM     10  C   UNL     1      -0.426  17.910  17.692  0.00  0.00    +0.000 A 
ATOM     11  C   UNL     1       0.578  18.631  17.022  0.00  0.00    +0.000 A 
ATOM     12  C   UNL     1       1.851  18.092  16.815  0.00  0.00    +0.000 A 
ATOM     13  C   UNL     1       2.211  16.886  17.417  0.00  0.00    +0.000 A 
ATOM     14  C   UNL     1       1.244  16.207  18.178  0.00  0.00    +0.000 A 
ENDROOT
BRANCH   1  18
ATOM     15  C   UNL     1      -4.035  11.566  18.498  0.00  0.00    +0.000 A 
ATOM     16  C   UNL     1      -2.849  11.345  17.793  0.00  0.00    +0.000 A 
ATOM     17  C   UNL     1      -1.627  11.851  18.256  0.00  0.00    +0.000 A 
ATOM     18  C   UNL     1      -1.584  12.617  19.425  0.00  0.00    +0.000 A 
ATOM     19  C   UNL     1      -2.771  12.790  20.161  0.00  0.00    +0.000 A 
ATOM     20  C   UNL     1      -3.990  12.274  19.698  0.00  0.00    +0.000 A 
BRANCH  15  22
ATOM     21  C   UNL     1      -6.138  10.479  18.723  0.00  0.00    +0.000 C 
ATOM     22  O   UNL     1      -5.164  11.091  17.888  0.00  0.00    +0.000 OA
ENDBRANCH  15  22
ENDBRANCH   1  18
BRANCH   2  23
ATOM     23  C   UNL     1       0.490  11.481  21.156  0.00  0.00    +0.000 C 
ATOM     24  O   UNL     1      -0.038  11.230  22.224  0.00  0.00    +0.000 OA
BRANCH  23  25
ATOM     25  O   UNL     1       1.038  10.474  20.431  0.00  0.00    +0.000 OA
ATOM     26  H   UNL     1       0.384   9.836  20.058  0.00  0.00    +0.000 HD
ENDBRANCH  23  25
ENDBRANCH   2  23
BRANCH   5  27
ATOM     27  C   UNL     1       3.372  15.490  20.310  0.00  0.00    +0.000 C 
BRANCH  27  28
ATOM     28  C   UNL     1       4.669  15.228  19.591  0.00  0.00    +0.000 A 
ATOM     29  C   UNL     1       4.707  14.644  18.312  0.00  0.00    +0.000 A 
ATOM     30  C   UNL     1       5.922  14.425  17.668  0.00  0.00    +0.000 A 
ATOM     31  C   UNL     1       7.120  14.787  18.278  0.00  0.00    +0.000 A 
ATOM     32  C   UNL     1       7.104  15.366  19.544  0.00  0.00    +0.000 A 
ATOM     33  C   UNL     1       5.888  15.580  20.198  0.00  0.00    +0.000 A 
ATOM     34 CL   UNL     1       5.950  16.287  21.777  0.00  0.00    +0.000 Cl
ENDBRANCH  27  28
ENDBRANCH   5  27
TORSDOF 6
ENDMDL
MODEL 8
REMARK VINA RESULT:      -6.8      4.994     10.747
REMARK  Name = 
REMARK  7 active torsions:
REMARK  status: ('A' for Active; 'I' for Inactive)
REMARK    1  A    between atoms: C_1  and  O_2
REMARK    2  A    between atoms: O_2  and  C_3
REMARK    3  A    between atoms: C_6  and  C_7
REMARK    4  A    between atoms: C_8  and  C_9
REMARK    5  A    between atoms: C_9  and  O_11
REMARK    6  A    between atoms: N_14  and  C_15
REMARK    7  A    between atoms: C_15  and  C_16
REMARK                            x       y       z     vdW  Elec       q    Type
REMARK                         _______ _______ _______ _____ _____    ______ ____
ROOT
ATOM      1  C   UNL     1      -1.625  11.919  20.134  0.00  0.00    +0.000 A 
ATOM      2  C   UNL     1      -2.716  11.787  19.321  0.00  0.00    +0.000 A 
ATOM      3  C   UNL     1      -4.003  12.524  19.631  0.00  0.00    +0.000 A 
ATOM      4  O   UNL     1      -4.897  12.533  18.783  0.00  0.00    +0.000 OA
ATOM      5  N   UNL     1      -4.165  13.103  20.881  0.00  0.00    +0.000 N 
ATOM      6  C   UNL     1      -3.072  13.141  21.728  0.00  0.00    +0.000 A 
ATOM      7  C   UNL     1      -1.823  12.748  21.289  0.00  0.00    +0.000 A 
ATOM      8  O   UNL     1      -0.903  13.393  22.101  0.00  0.00    +0.000 OA
ATOM      9  C   UNL     1      -1.612  13.983  23.126  0.00  0.00    +0.000 A 
ATOM     10  C   UNL     1      -1.141  14.841  24.118  0.00  0.00    +0.000 A 
ATOM     11  C   UNL     1      -2.041  15.159  25.151  0.00  0.00    +0.000 A 
ATOM     12  C   UNL     1      -3.321  14.601  25.203  0.00  0.00    +0.000 A 
ATOM     13  C   UNL     1      -3.801  13.840  24.136  0.00  0.00    +0.000 A 
ATOM     14  C   UNL     1      -2.944  13.604  23.048  0.00  0.00    +0.000 A 
ENDROOT
BRANCH   1  18
ATOM     15  C   UNL     1       1.436   9.006  19.387  0.00  0.00    +0.000 A 
ATOM     16  C   UNL     1       1.275  10.093  18.524  0.00  0.00    +0.000 A 
ATOM     17  C   UNL     1       0.353  11.110  18.804  0.00  0.00    +0.000 A 
ATOM     18  C   UNL     1      -0.447  11.034  19.949  0.00  0.00    +0.000 A 
ATOM     19  C   UNL     1      -0.243   9.967  20.844  0.00  0.00    +0.000 A 
ATOM     20  C   UNL     1       0.688   8.956  20.563  0.00  0.00    +0.000 A 
BRANCH  15  22
ATOM     21  C   UNL     1       2.759   8.156  17.605  0.00  0.00    +0.000 C 
ATOM     22  O   UNL     1       2.305   8.046  18.947  0.00  0.00    +0.000 OA
ENDBRANCH  15  22
ENDBRANCH   1  18
BRANCH   2  23
ATOM     23  C   UNL     1      -2.723  10.899  18.107  0.00  0.00    +0.000 C 
ATOM     24  O   UNL     1      -2.815   9.685  18.107  0.00  0.00    +0.000 OA
BRANCH  23  25
ATOM     25  O   UNL     1      -2.606  11.559  16.928  0.00  0.00    +0.000 OA
ATOM     26  H   UNL     1      -3.094  11.145  16.177  0.00  0.00    +0.000 HD
ENDBRANCH  23  25
ENDBRANCH   2  23
BRANCH   5  27
ATOM     27  C   UNL     1      -5.283  14.029  21.065  0.00  0.00    +0.000 C 
BRANCH  27  28
ATOM     28  C   UNL     1      -5.160  15.374  20.397  0.00  0.00    +0.000 A 
ATOM     29  C   UNL     1      -4.085  16.242  20.662  0.00  0.00    +0.000 A 
ATOM     30  C   UNL     1      -3.994  17.474  20.019  0.00  0.00    +0.000 A 
ATOM     31  C   UNL     1      -4.961  17.863  19.098  0.00  0.00    +0.000 A 
ATOM     32  C   UNL     1      -6.033  17.018  18.822  0.00  0.00    +0.000 A 
ATOM     33  C   UNL     1      -6.134  15.786  19.470  0.00  0.00    +0.000 A 
ATOM     34 CL   UNL     1      -7.504  14.798  19.089  0.00  0.00    +0.000 Cl
ENDBRANCH  27  28
ENDBRANCH   5  27
TORSDOF 6
ENDMDL
MODEL 9
REMARK VINA RESULT:      -6.7      7.477      8.622
REMARK  Name = 
REMARK  7 active torsions:
REMARK  status: ('A' for Active; 'I' for Inactive)
REMARK    1  A    between atoms: C_1  and  O_2
REMARK    2  A    between atoms: O_2  and  C_3
REMARK    3  A    between atoms: C_6  and  C_7
REMARK    4  A    between atoms: C_8  and  C_9
REMARK    5  A    between atoms: C_9  and  O_11
REMARK    6  A    between atoms: N_14  and  C_15
REMARK    7  A    between atoms: C_15  and  C_16
REMARK                            x       y       z     vdW  Elec       q    Type
REMARK                         _______ _______ _______ _____ _____    ______ ____
ROOT
ATOM      1  C   UNL     1       4.505  14.787  20.573  0.00  0.00    +0.000 A 
ATOM      2  C   UNL     1       5.180  15.302  19.502  0.00  0.00    +0.000 A 
ATOM      3  C   UNL     1       6.695  15.280  19.464  0.00  0.00    +0.000 A 
ATOM      4  O   UNL     1       7.262  15.577  18.411  0.00  0.00    +0.000 OA
ATOM      5  N   UNL     1       7.397  14.999  20.626  0.00  0.00    +0.000 N 
ATOM      6  C   UNL     1       6.682  14.569  21.730  0.00  0.00    +0.000 A 
ATOM      7  C   UNL     1       5.334  14.290  21.635  0.00  0.00    +0.000 A 
ATOM      8  O   UNL     1       5.046  13.401  22.659  0.00  0.00    +0.000 OA
ATOM      9  C   UNL     1       6.165  13.333  23.462  0.00  0.00    +0.000 A 
ATOM     10  C   UNL     1       6.402  12.484  24.542  0.00  0.00    +0.000 A 
ATOM     11  C   UNL     1       7.556  12.744  25.302  0.00  0.00    +0.000 A 
ATOM     12  C   UNL     1       8.390  13.828  25.017  0.00  0.00    +0.000 A 
ATOM     13  C   UNL     1       8.190  14.585  23.863  0.00  0.00    +0.000 A 
ATOM     14  C   UNL     1       7.098  14.267  23.038  0.00  0.00    +0.000 A 
ENDROOT
BRANCH   1  18
ATOM     15  C   UNL     1       0.326  15.761  20.545  0.00  0.00    +0.000 A 
ATOM     16  C   UNL     1       0.776  14.577  19.953  0.00  0.00    +0.000 A 
ATOM     17  C   UNL     1       2.118  14.188  20.042  0.00  0.00    +0.000 A 
ATOM     18  C   UNL     1       3.042  15.003  20.704  0.00  0.00    +0.000 A 
ATOM     19  C   UNL     1       2.575  16.165  21.346  0.00  0.00    +0.000 A 
ATOM     20  C   UNL     1       1.228  16.546  21.263  0.00  0.00    +0.000 A 
BRANCH  15  22
ATOM     21  C   UNL     1      -1.252  17.059  19.329  0.00  0.00    +0.000 C 
ATOM     22  O   UNL     1      -0.987  16.061  20.306  0.00  0.00    +0.000 OA
ENDBRANCH  15  22
ENDBRANCH   1  18
BRANCH   2  23
ATOM     23  C   UNL     1       4.485  15.937  18.331  0.00  0.00    +0.000 C 
ATOM     24  O   UNL     1       4.108  17.093  18.260  0.00  0.00    +0.000 OA
BRANCH  23  25
ATOM     25  O   UNL     1       4.273  15.101  17.283  0.00  0.00    +0.000 OA
ATOM     26  H   UNL     1       4.782  14.257  17.324  0.00  0.00    +0.000 HD
ENDBRANCH  23  25
ENDBRANCH   2  23
BRANCH   5  27
ATOM     27  C   UNL     1       8.828  14.718  20.510  0.00  0.00    +0.000 C 
BRANCH  27  28
ATOM     28  C   UNL     1       9.208  13.317  20.110  0.00  0.00    +0.000 A 
ATOM     29  C   UNL     1       8.994  12.215  20.958  0.00  0.00    +0.000 A 
ATOM     30  C   UNL     1       9.346  10.930  20.554  0.00  0.00    +0.000 A 
ATOM     31  C   UNL     1       9.910  10.713  19.300  0.00  0.00    +0.000 A 
ATOM     32  C   UNL     1      10.130  11.790  18.445  0.00  0.00    +0.000 A 
ATOM     33  C   UNL     1       9.787  13.082  18.849  0.00  0.00    +0.000 A 
ATOM     34 CL   UNL     1      10.108  14.372  17.740  0.00  0.00    +0.000 Cl
ENDBRANCH  27  28
ENDBRANCH   5  27
TORSDOF 6
ENDMDL
