MODEL 1
REMARK VINA RESULT:      -8.8      0.000      0.000
REMARK  Name = 
REMARK  8 active torsions:
REMARK  status: ('A' for Active; 'I' for Inactive)
REMARK    1  A    between atoms: C_1  and  C_2
REMARK    2  A    between atoms: C_2  and  C_12
REMARK    3  A    between atoms: C_3  and  C_4
REMARK    4  A    between atoms: C_4  and  N_5
REMARK    5  A    between atoms: C_16  and  O_17
REMARK    6  A    between atoms: O_17  and  C_18
REMARK    7  A    between atoms: C_18  and  C_19
REMARK    8  A    between atoms: C_24  and  C_25
REMARK                            x       y       z     vdW  Elec       q    Type
REMARK                         _______ _______ _______ _____ _____    ______ ____
ROOT
ATOM      1  C   UNL     1       1.032   9.067  19.346  0.00  0.00    +0.000 A 
ATOM      2  C   UNL     1       1.098   8.346  20.553  0.00  0.00    +0.000 A 
ATOM      3  C   UNL     1       1.936   7.236  20.705  0.00  0.00    +0.000 A 
ATOM      4  C   UNL     1       2.752   6.827  19.656  0.00  0.00    +0.000 A 
ATOM      5  C   UNL     1       2.734   7.541  18.464  0.00  0.00    +0.000 A 
ATOM      6  C   UNL     1       1.859   8.619  18.305  0.00  0.00    +0.000 A 
ENDROOT
BRANCH   1   8
ATOM      7  C   UNL     1       0.664  11.557  19.846  0.00  0.00    +0.000 C 
ATOM      8  C   UNL     1       0.162  10.284  19.204  0.00  0.00    +0.000 C 
ATOM      9  C   UNL     1      -0.983  10.252  18.485  0.00  0.00    +0.000 C 
BRANCH   9  10
ATOM     10  C   UNL     1      -1.922  11.374  18.161  0.00  0.00    +0.000 C 
BRANCH  10  11
ATOM     11  N   UNL     1      -2.902  10.835  17.243  0.00  0.00    +0.000 N 
ATOM     12  O   UNL     1      -2.382  10.406  15.983  0.00  0.00    +0.000 OA
ATOM     13  C   UNL     1      -3.399  10.564  15.072  0.00  0.00    +0.000 A 
ATOM     14  O   UNL     1      -3.299  10.351  13.879  0.00  0.00    +0.000 OA
ATOM     15  N   UNL     1      -4.481  11.044  15.708  0.00  0.00    +0.000 N 
ATOM     16  C   UNL     1      -4.133  11.393  16.968  0.00  0.00    +0.000 A 
ATOM     17  O   UNL     1      -4.784  12.132  17.689  0.00  0.00    +0.000 OA
ATOM     18  H   UNL     1      -5.300  11.382  15.235  0.00  0.00    +0.000 HD
ENDBRANCH  10  11
ENDBRANCH   9  10
ENDBRANCH   1   8
BRANCH   5  19
ATOM     19  O   UNL     1       3.532   7.306  17.379  0.00  0.00    +0.000 OA
BRANCH  19  20
ATOM     20  C   UNL     1       4.798   6.717  17.683  0.00  0.00    +0.000 C 
BRANCH  20  21
ATOM     21  C   UNL     1       5.211   5.653  16.683  0.00  0.00    +0.000 A 
ATOM     22  C   UNL     1       6.205   5.979  15.729  0.00  0.00    +0.000 A 
ATOM     23  C   UNL     1       6.662   5.047  14.807  0.00  0.00    +0.000 A 
ATOM     24  C   UNL     1       6.116   3.774  14.802  0.00  0.00    +0.000 A 
ATOM     25  C   UNL     1       5.115   3.440  15.722  0.00  0.00    +0.000 A 
ATOM     26  C   UNL     1       4.640   4.348  16.698  0.00  0.00    +0.000 A 
BRANCH  26  27
ATOM     27  C   UNL     1       3.631   3.866  17.702  0.00  0.00    +0.000 A 
ATOM     28  C   UNL     1       4.046   3.340  18.944  0.00  0.00    +0.000 A 
ATOM     29  C   UNL     1       3.132   2.904  19.913  0.00  0.00    +0.000 A 
ATOM     30  C   UNL     1       1.768   3.022  19.689  0.00  0.00    +0.000 A 
ATOM     31  C   UNL     1       1.321   3.526  18.475  0.00  0.00    +0.000 A 
ATOM     32  C   UNL     1       2.242   3.899  17.487  0.00  0.00    +0.000 A 
ENDBRANCH  26  27
ENDBRANCH  20  21
ENDBRANCH  19  20
ENDBRANCH   5  19
TORSDOF 7
ENDMDL
MODEL 2
REMARK VINA RESULT:      -8.7      1.286      3.470
REMARK  Name = 
REMARK  8 active torsions:
REMARK  status: ('A' for Active; 'I' for Inactive)
REMARK    1  A    between atoms: C_1  and  C_2
REMARK    2  A    between atoms: C_2  and  C_12
REMARK    3  A    between atoms: C_3  and  C_4
REMARK    4  A    between atoms: C_4  and  N_5
REMARK    5  A    between atoms: C_16  and  O_17
REMARK    6  A    between atoms: O_17  and  C_18
REMARK    7  A    between atoms: C_18  and  C_19
REMARK    8  A    between atoms: C_24  and  C_25
REMARK                            x       y       z     vdW  Elec       q    Type
REMARK                         _______ _______ _______ _____ _____    ______ ____
ROOT
ATOM      1  C   UNL     1       0.403   9.845  19.877  0.00  0.00    +0.000 A 
ATOM      2  C   UNL     1       0.308   9.722  21.275  0.00  0.00    +0.000 A 
ATOM      3  C   UNL     1       1.002   8.729  21.977  0.00  0.00    +0.000 A 
ATOM      4  C   UNL     1       1.831   7.843  21.299  0.00  0.00    +0.000 A 
ATOM      5  C   UNL     1       1.971   7.963  19.921  0.00  0.00    +0.000 A 
ATOM      6  C   UNL     1       1.238   8.926  19.224  0.00  0.00    +0.000 A 
ENDROOT
BRANCH   1   8
ATOM      7  C   UNL     1       0.504  12.162  18.777  0.00  0.00    +0.000 C 
ATOM      8  C   UNL     1      -0.311  10.940  19.134  0.00  0.00    +0.000 C 
ATOM      9  C   UNL     1      -1.602  10.808  18.754  0.00  0.00    +0.000 C 
BRANCH   9  10
ATOM     10  C   UNL     1      -2.442  11.743  17.938  0.00  0.00    +0.000 C 
BRANCH  10  11
ATOM     11  N   UNL     1      -3.115  10.929  16.948  0.00  0.00    +0.000 N 
ATOM     12  O   UNL     1      -2.278  10.426  15.905  0.00  0.00    +0.000 OA
ATOM     13  C   UNL     1      -3.082  10.289  14.798  0.00  0.00    +0.000 A 
ATOM     14  O   UNL     1      -2.694   9.935  13.701  0.00  0.00    +0.000 OA
ATOM     15  N   UNL     1      -4.331  10.664  15.119  0.00  0.00    +0.000 N 
ATOM     16  C   UNL     1      -4.319  11.233  16.346  0.00  0.00    +0.000 A 
ATOM     17  O   UNL     1      -5.206  11.945  16.791  0.00  0.00    +0.000 OA
ATOM     18  H   UNL     1      -5.063  10.795  14.444  0.00  0.00    +0.000 HD
ENDBRANCH  10  11
ENDBRANCH   9  10
ENDBRANCH   1   8
BRANCH   5  19
ATOM     19  O   UNL     1       2.805   7.218  19.135  0.00  0.00    +0.000 OA
BRANCH  19  20
ATOM     20  C   UNL     1       2.200   6.067  18.543  0.00  0.00    +0.000 C 
BRANCH  20  21
ATOM     21  C   UNL     1       2.340   4.821  19.398  0.00  0.00    +0.000 A 
ATOM     22  C   UNL     1       1.231   4.416  20.180  0.00  0.00    +0.000 A 
ATOM     23  C   UNL     1       1.269   3.266  20.957  0.00  0.00    +0.000 A 
ATOM     24  C   UNL     1       2.428   2.508  20.990  0.00  0.00    +0.000 A 
ATOM     25  C   UNL     1       3.543   2.904  20.242  0.00  0.00    +0.000 A 
ATOM     26  C   UNL     1       3.539   4.052  19.413  0.00  0.00    +0.000 A 
BRANCH  26  27
ATOM     27  C   UNL     1       4.753   4.342  18.577  0.00  0.00    +0.000 A 
ATOM     28  C   UNL     1       4.816   3.925  17.230  0.00  0.00    +0.000 A 
ATOM     29  C   UNL     1       5.922   4.200  16.414  0.00  0.00    +0.000 A 
ATOM     30  C   UNL     1       6.985   4.943  16.907  0.00  0.00    +0.000 A 
ATOM     31  C   UNL     1       6.964   5.363  18.229  0.00  0.00    +0.000 A 
ATOM     32  C   UNL     1       5.883   5.028  19.057  0.00  0.00    +0.000 A 
ENDBRANCH  26  27
ENDBRANCH  20  21
ENDBRANCH  19  20
ENDBRANCH   5  19
TORSDOF 7
ENDMDL
MODEL 3
REMARK VINA RESULT:      -8.6      3.055      4.845
REMARK  Name = 
REMARK  8 active torsions:
REMARK  status: ('A' for Active; 'I' for Inactive)
REMARK    1  A    between atoms: C_1  and  C_2
REMARK    2  A    between atoms: C_2  and  C_12
REMARK    3  A    between atoms: C_3  and  C_4
REMARK    4  A    between atoms: C_4  and  N_5
REMARK    5  A    between atoms: C_16  and  O_17
REMARK    6  A    between atoms: O_17  and  C_18
REMARK    7  A    between atoms: C_18  and  C_19
REMARK    8  A    between atoms: C_24  and  C_25
REMARK                            x       y       z     vdW  Elec       q    Type
REMARK                         _______ _______ _______ _____ _____    ______ ____
ROOT
ATOM      1  C   UNL     1       0.665   9.824  20.541  0.00  0.00    +0.000 A 
ATOM      2  C   UNL     1       0.624  10.536  19.328  0.00  0.00    +0.000 A 
ATOM      3  C   UNL     1       1.257  10.062  18.173  0.00  0.00    +0.000 A 
ATOM      4  C   UNL     1       1.933   8.848  18.193  0.00  0.00    +0.000 A 
ATOM      5  C   UNL     1       1.960   8.106  19.369  0.00  0.00    +0.000 A 
ATOM      6  C   UNL     1       1.366   8.609  20.529  0.00  0.00    +0.000 A 
ENDROOT
BRANCH   1   8
ATOM      7  C   UNL     1       0.028   9.446  22.998  0.00  0.00    +0.000 C 
ATOM      8  C   UNL     1      -0.053  10.316  21.766  0.00  0.00    +0.000 C 
ATOM      9  C   UNL     1      -0.689  11.510  21.777  0.00  0.00    +0.000 C 
BRANCH   9  10
ATOM     10  C   UNL     1      -1.374  12.200  22.918  0.00  0.00    +0.000 C 
BRANCH  10  11
ATOM     11  N   UNL     1      -2.795  12.060  22.687  0.00  0.00    +0.000 N 
ATOM     12  O   UNL     1      -3.238  12.432  21.381  0.00  0.00    +0.000 OA
ATOM     13  C   UNL     1      -4.533  12.868  21.522  0.00  0.00    +0.000 A 
ATOM     14  O   UNL     1      -5.214  13.320  20.620  0.00  0.00    +0.000 OA
ATOM     15  N   UNL     1      -4.887  12.769  22.814  0.00  0.00    +0.000 N 
ATOM     16  C   UNL     1      -3.792  12.471  23.549  0.00  0.00    +0.000 A 
ATOM     17  O   UNL     1      -3.705  12.615  24.758  0.00  0.00    +0.000 OA
ATOM     18  H   UNL     1      -5.729  13.164  23.192  0.00  0.00    +0.000 HD
ENDBRANCH  10  11
ENDBRANCH   9  10
ENDBRANCH   1   8
BRANCH   5  19
ATOM     19  O   UNL     1       2.515   6.866  19.518  0.00  0.00    +0.000 OA
BRANCH  19  20
ATOM     20  C   UNL     1       2.589   6.094  18.318  0.00  0.00    +0.000 C 
BRANCH  20  21
ATOM     21  C   UNL     1       2.436   4.604  18.562  0.00  0.00    +0.000 A 
ATOM     22  C   UNL     1       1.232   4.141  19.145  0.00  0.00    +0.000 A 
ATOM     23  C   UNL     1       1.002   2.789  19.364  0.00  0.00    +0.000 A 
ATOM     24  C   UNL     1       1.984   1.871  19.027  0.00  0.00    +0.000 A 
ATOM     25  C   UNL     1       3.190   2.312  18.471  0.00  0.00    +0.000 A 
ATOM     26  C   UNL     1       3.456   3.677  18.204  0.00  0.00    +0.000 A 
BRANCH  26  27
ATOM     27  C   UNL     1       4.742   4.040  17.518  0.00  0.00    +0.000 A 
ATOM     28  C   UNL     1       4.836   4.029  16.110  0.00  0.00    +0.000 A 
ATOM     29  C   UNL     1       6.012   4.387  15.437  0.00  0.00    +0.000 A 
ATOM     30  C   UNL     1       7.123   4.813  16.152  0.00  0.00    +0.000 A 
ATOM     31  C   UNL     1       7.072   4.829  17.539  0.00  0.00    +0.000 A 
ATOM     32  C   UNL     1       5.913   4.408  18.205  0.00  0.00    +0.000 A 
ENDBRANCH  26  27
ENDBRANCH  20  21
ENDBRANCH  19  20
ENDBRANCH   5  19
TORSDOF 7
ENDMDL
MODEL 4
REMARK VINA RESULT:      -8.6      1.479      3.219
REMARK  Name = 
REMARK  8 active torsions:
REMARK  status: ('A' for Active; 'I' for Inactive)
REMARK    1  A    between atoms: C_1  and  C_2
REMARK    2  A    between atoms: C_2  and  C_12
REMARK    3  A    between atoms: C_3  and  C_4
REMARK    4  A    between atoms: C_4  and  N_5
REMARK    5  A    between atoms: C_16  and  O_17
REMARK    6  A    between atoms: O_17  and  C_18
REMARK    7  A    between atoms: C_18  and  C_19
REMARK    8  A    between atoms: C_24  and  C_25
REMARK                            x       y       z     vdW  Elec       q    Type
REMARK                         _______ _______ _______ _____ _____    ______ ____
ROOT
ATOM      1  C   UNL     1       0.299  10.104  20.144  0.00  0.00    +0.000 A 
ATOM      2  C   UNL     1       0.367  10.147  21.549  0.00  0.00    +0.000 A 
ATOM      3  C   UNL     1       1.045   9.169  22.285  0.00  0.00    +0.000 A 
ATOM      4  C   UNL     1       1.695   8.128  21.633  0.00  0.00    +0.000 A 
ATOM      5  C   UNL     1       1.675   8.080  20.243  0.00  0.00    +0.000 A 
ATOM      6  C   UNL     1       0.956   9.033  19.519  0.00  0.00    +0.000 A 
ENDROOT
BRANCH   1   8
ATOM      7  C   UNL     1       0.332  12.501  19.227  0.00  0.00    +0.000 C 
ATOM      8  C   UNL     1      -0.393  11.181  19.357  0.00  0.00    +0.000 C 
ATOM      9  C   UNL     1      -1.579  10.956  18.746  0.00  0.00    +0.000 C 
BRANCH   9  10
ATOM     10  C   UNL     1      -2.366  11.868  17.855  0.00  0.00    +0.000 C 
BRANCH  10  11
ATOM     11  N   UNL     1      -3.094  11.016  16.939  0.00  0.00    +0.000 N 
ATOM     12  O   UNL     1      -2.311  10.444  15.890  0.00  0.00    +0.000 OA
ATOM     13  C   UNL     1      -3.164  10.263  14.827  0.00  0.00    +0.000 A 
ATOM     14  O   UNL     1      -2.829   9.846  13.734  0.00  0.00    +0.000 OA
ATOM     15  N   UNL     1      -4.392  10.678  15.180  0.00  0.00    +0.000 N 
ATOM     16  C   UNL     1      -4.318  11.310  16.373  0.00  0.00    +0.000 A 
ATOM     17  O   UNL     1      -5.173  12.060  16.818  0.00  0.00    +0.000 OA
ATOM     18  H   UNL     1      -5.150  10.786  14.530  0.00  0.00    +0.000 HD
ENDBRANCH  10  11
ENDBRANCH   9  10
ENDBRANCH   1   8
BRANCH   5  19
ATOM     19  O   UNL     1       2.331   7.166  19.466  0.00  0.00    +0.000 OA
BRANCH  19  20
ATOM     20  C   UNL     1       2.702   5.962  20.140  0.00  0.00    +0.000 C 
BRANCH  20  21
ATOM     21  C   UNL     1       2.693   4.748  19.230  0.00  0.00    +0.000 A 
ATOM     22  C   UNL     1       1.545   3.920  19.228  0.00  0.00    +0.000 A 
ATOM     23  C   UNL     1       1.447   2.813  18.395  0.00  0.00    +0.000 A 
ATOM     24  C   UNL     1       2.507   2.496  17.562  0.00  0.00    +0.000 A 
ATOM     25  C   UNL     1       3.660   3.289  17.566  0.00  0.00    +0.000 A 
ATOM     26  C   UNL     1       3.792   4.442  18.378  0.00  0.00    +0.000 A 
BRANCH  26  27
ATOM     27  C   UNL     1       5.031   5.282  18.241  0.00  0.00    +0.000 A 
ATOM     28  C   UNL     1       6.161   5.035  19.050  0.00  0.00    +0.000 A 
ATOM     29  C   UNL     1       7.341   5.783  18.932  0.00  0.00    +0.000 A 
ATOM     30  C   UNL     1       7.445   6.775  17.967  0.00  0.00    +0.000 A 
ATOM     31  C   UNL     1       6.351   7.052  17.159  0.00  0.00    +0.000 A 
ATOM     32  C   UNL     1       5.154   6.344  17.328  0.00  0.00    +0.000 A 
ENDBRANCH  26  27
ENDBRANCH  20  21
ENDBRANCH  19  20
ENDBRANCH   5  19
TORSDOF 7
ENDMDL
MODEL 5
REMARK VINA RESULT:      -8.6      3.828      9.526
REMARK  Name = 
REMARK  8 active torsions:
REMARK  status: ('A' for Active; 'I' for Inactive)
REMARK    1  A    between atoms: C_1  and  C_2
REMARK    2  A    between atoms: C_2  and  C_12
REMARK    3  A    between atoms: C_3  and  C_4
REMARK    4  A    between atoms: C_4  and  N_5
REMARK    5  A    between atoms: C_16  and  O_17
REMARK    6  A    between atoms: O_17  and  C_18
REMARK    7  A    between atoms: C_18  and  C_19
REMARK    8  A    between atoms: C_24  and  C_25
REMARK                            x       y       z     vdW  Elec       q    Type
REMARK                         _______ _______ _______ _____ _____    ______ ____
ROOT
ATOM      1  C   UNL     1       2.356   6.736  19.396  0.00  0.00    +0.000 A 
ATOM      2  C   UNL     1       1.865   6.780  20.714  0.00  0.00    +0.000 A 
ATOM      3  C   UNL     1       1.208   7.908  21.220  0.00  0.00    +0.000 A 
ATOM      4  C   UNL     1       1.003   9.019  20.411  0.00  0.00    +0.000 A 
ATOM      5  C   UNL     1       1.446   8.991  19.094  0.00  0.00    +0.000 A 
ATOM      6  C   UNL     1       2.142   7.880  18.612  0.00  0.00    +0.000 A 
ENDROOT
BRANCH   1   8
ATOM      7  C   UNL     1       2.213   4.670  17.881  0.00  0.00    +0.000 C 
ATOM      8  C   UNL     1       3.021   5.506  18.846  0.00  0.00    +0.000 C 
ATOM      9  C   UNL     1       4.302   5.201  19.155  0.00  0.00    +0.000 C 
BRANCH   9  10
ATOM     10  C   UNL     1       5.152   4.080  18.638  0.00  0.00    +0.000 C 
BRANCH  10  11
ATOM     11  N   UNL     1       5.950   4.634  17.564  0.00  0.00    +0.000 N 
ATOM     12  O   UNL     1       5.482   4.340  16.247  0.00  0.00    +0.000 OA
ATOM     13  C   UNL     1       6.592   4.328  15.437  0.00  0.00    +0.000 A 
ATOM     14  O   UNL     1       6.582   4.055  14.251  0.00  0.00    +0.000 OA
ATOM     15  N   UNL     1       7.676   4.604  16.182  0.00  0.00    +0.000 N 
ATOM     16  C   UNL     1       7.327   4.595  17.488  0.00  0.00    +0.000 A 
ATOM     17  O   UNL     1       8.113   4.501  18.417  0.00  0.00    +0.000 OA
ATOM     18  H   UNL     1       8.619   4.506  15.849  0.00  0.00    +0.000 HD
ENDBRANCH  10  11
ENDBRANCH   9  10
ENDBRANCH   1   8
BRANCH   5  19
ATOM     19  O   UNL     1       1.247   9.972  18.163  0.00  0.00    +0.000 OA
BRANCH  19  20
ATOM     20  C   UNL     1       0.513  11.104  18.633  0.00  0.00    +0.000 C 
BRANCH  20  21
ATOM     21  C   UNL     1      -0.978  10.991  18.371  0.00  0.00    +0.000 A 
ATOM     22  C   UNL     1      -1.413  10.155  17.315  0.00  0.00    +0.000 A 
ATOM     23  C   UNL     1      -2.761   9.971  17.039  0.00  0.00    +0.000 A 
ATOM     24  C   UNL     1      -3.706  10.641  17.799  0.00  0.00    +0.000 A 
ATOM     25  C   UNL     1      -3.296  11.490  18.833  0.00  0.00    +0.000 A 
ATOM     26  C   UNL     1      -1.934  11.685  19.168  0.00  0.00    +0.000 A 
BRANCH  26  27
ATOM     27  C   UNL     1      -1.598  12.543  20.355  0.00  0.00    +0.000 A 
ATOM     28  C   UNL     1      -1.502  11.981  21.646  0.00  0.00    +0.000 A 
ATOM     29  C   UNL     1      -1.167  12.747  22.771  0.00  0.00    +0.000 A 
ATOM     30  C   UNL     1      -0.871  14.096  22.633  0.00  0.00    +0.000 A 
ATOM     31  C   UNL     1      -0.964  14.687  21.381  0.00  0.00    +0.000 A 
ATOM     32  C   UNL     1      -1.363  13.927  20.273  0.00  0.00    +0.000 A 
ENDBRANCH  26  27
ENDBRANCH  20  21
ENDBRANCH  19  20
ENDBRANCH   5  19
TORSDOF 7
ENDMDL
MODEL 6
REMARK VINA RESULT:      -8.5      3.851      9.582
REMARK  Name = 
REMARK  8 active torsions:
REMARK  status: ('A' for Active; 'I' for Inactive)
REMARK    1  A    between atoms: C_1  and  C_2
REMARK    2  A    between atoms: C_2  and  C_12
REMARK    3  A    between atoms: C_3  and  C_4
REMARK    4  A    between atoms: C_4  and  N_5
REMARK    5  A    between atoms: C_16  and  O_17
REMARK    6  A    between atoms: O_17  and  C_18
REMARK    7  A    between atoms: C_18  and  C_19
REMARK    8  A    between atoms: C_24  and  C_25
REMARK                            x       y       z     vdW  Elec       q    Type
REMARK                         _______ _______ _______ _____ _____    ______ ____
ROOT
ATOM      1  C   UNL     1       0.787   9.400  20.620  0.00  0.00    +0.000 A 
ATOM      2  C   UNL     1       0.245   8.812  21.778  0.00  0.00    +0.000 A 
ATOM      3  C   UNL     1      -0.477   9.558  22.717  0.00  0.00    +0.000 A 
ATOM      4  C   UNL     1      -0.698  10.915  22.511  0.00  0.00    +0.000 A 
ATOM      5  C   UNL     1      -0.205  11.516  21.358  0.00  0.00    +0.000 A 
ATOM      6  C   UNL     1       0.555  10.774  20.451  0.00  0.00    +0.000 A 
ENDROOT
BRANCH   1   8
ATOM      7  C   UNL     1       1.735   9.224  18.242  0.00  0.00    +0.000 C 
ATOM      8  C   UNL     1       1.524   8.585  19.595  0.00  0.00    +0.000 C 
ATOM      9  C   UNL     1       2.024   7.365  19.893  0.00  0.00    +0.000 C 
BRANCH   9  10
ATOM     10  C   UNL     1       2.855   6.455  19.040  0.00  0.00    +0.000 C 
BRANCH  10  11
ATOM     11  N   UNL     1       2.509   5.104  19.425  0.00  0.00    +0.000 N 
ATOM     12  O   UNL     1       1.995   4.963  20.750  0.00  0.00    +0.000 OA
ATOM     13  C   UNL     1       2.340   3.699  21.165  0.00  0.00    +0.000 A 
ATOM     14  O   UNL     1       2.115   3.249  22.273  0.00  0.00    +0.000 OA
ATOM     15  N   UNL     1       3.010   3.085  20.176  0.00  0.00    +0.000 N 
ATOM     16  C   UNL     1       3.286   3.984  19.205  0.00  0.00    +0.000 A 
ATOM     17  O   UNL     1       4.130   3.833  18.336  0.00  0.00    +0.000 OA
ATOM     18  H   UNL     1       3.495   2.212  20.292  0.00  0.00    +0.000 HD
ENDBRANCH  10  11
ENDBRANCH   9  10
ENDBRANCH   1   8
BRANCH   5  19
ATOM     19  O   UNL     1      -0.410  12.815  20.985  0.00  0.00    +0.000 OA
BRANCH  19  20
ATOM     20  C   UNL     1      -1.270  12.986  19.857  0.00  0.00    +0.000 C 
BRANCH  20  21
ATOM     21  C   UNL     1      -2.742  12.932  20.222  0.00  0.00    +0.000 A 
ATOM     22  C   UNL     1      -3.185  13.686  21.335  0.00  0.00    +0.000 A 
ATOM     23  C   UNL     1      -4.522  13.717  21.707  0.00  0.00    +0.000 A 
ATOM     24  C   UNL     1      -5.444  12.974  20.988  0.00  0.00    +0.000 A 
ATOM     25  C   UNL     1      -5.022  12.204  19.898  0.00  0.00    +0.000 A 
ATOM     26  C   UNL     1      -3.674  12.165  19.466  0.00  0.00    +0.000 A 
BRANCH  26  27
ATOM     27  C   UNL     1      -3.336  11.383  18.228  0.00  0.00    +0.000 A 
ATOM     28  C   UNL     1      -4.079  11.555  17.041  0.00  0.00    +0.000 A 
ATOM     29  C   UNL     1      -3.776  10.860  15.862  0.00  0.00    +0.000 A 
ATOM     30  C   UNL     1      -2.686  10.002  15.819  0.00  0.00    +0.000 A 
ATOM     31  C   UNL     1      -1.936   9.800  16.969  0.00  0.00    +0.000 A 
ATOM     32  C   UNL     1      -2.286  10.449  18.160  0.00  0.00    +0.000 A 
ENDBRANCH  26  27
ENDBRANCH  20  21
ENDBRANCH  19  20
ENDBRANCH   5  19
TORSDOF 7
ENDMDL
MODEL 7
REMARK VINA RESULT:      -8.5      1.964      2.592
REMARK  Name = 
REMARK  8 active torsions:
REMARK  status: ('A' for Active; 'I' for Inactive)
REMARK    1  A    between atoms: C_1  and  C_2
REMARK    2  A    between atoms: C_2  and  C_12
REMARK    3  A    between atoms: C_3  and  C_4
REMARK    4  A    between atoms: C_4  and  N_5
REMARK    5  A    between atoms: C_16  and  O_17
REMARK    6  A    between atoms: O_17  and  C_18
REMARK    7  A    between atoms: C_18  and  C_19
REMARK    8  A    between atoms: C_24  and  C_25
REMARK                            x       y       z     vdW  Elec       q    Type
REMARK                         _______ _______ _______ _____ _____    ______ ____
ROOT
ATOM      1  C   UNL     1      -0.370  10.206  18.904  0.00  0.00    +0.000 A 
ATOM      2  C   UNL     1      -0.476   9.853  20.262  0.00  0.00    +0.000 A 
ATOM      3  C   UNL     1       0.468   9.031  20.888  0.00  0.00    +0.000 A 
ATOM      4  C   UNL     1       1.563   8.555  20.175  0.00  0.00    +0.000 A 
ATOM      5  C   UNL     1       1.713   8.917  18.841  0.00  0.00    +0.000 A 
ATOM      6  C   UNL     1       0.740   9.697  18.213  0.00  0.00    +0.000 A 
ENDROOT
BRANCH   1   8
ATOM      7  C   UNL     1      -0.991  12.585  18.173  0.00  0.00    +0.000 C 
ATOM      8  C   UNL     1      -1.364  11.123  18.250  0.00  0.00    +0.000 C 
ATOM      9  C   UNL     1      -2.507  10.649  17.704  0.00  0.00    +0.000 C 
BRANCH   9  10
ATOM     10  C   UNL     1      -3.562  11.390  16.939  0.00  0.00    +0.000 C 
BRANCH  10  11
ATOM     11  N   UNL     1      -4.702  11.506  17.823  0.00  0.00    +0.000 N 
ATOM     12  O   UNL     1      -5.094  10.295  18.470  0.00  0.00    +0.000 OA
ATOM     13  C   UNL     1      -6.447  10.395  18.690  0.00  0.00    +0.000 A 
ATOM     14  O   UNL     1      -7.136   9.518  19.174  0.00  0.00    +0.000 OA
ATOM     15  N   UNL     1      -6.875  11.581  18.227  0.00  0.00    +0.000 N 
ATOM     16  C   UNL     1      -5.876  12.171  17.532  0.00  0.00    +0.000 A 
ATOM     17  O   UNL     1      -6.026  13.087  16.739  0.00  0.00    +0.000 OA
ATOM     18  H   UNL     1      -7.845  11.826  18.137  0.00  0.00    +0.000 HD
ENDBRANCH  10  11
ENDBRANCH   9  10
ENDBRANCH   1   8
BRANCH   5  19
ATOM     19  O   UNL     1       2.772   8.591  18.040  0.00  0.00    +0.000 OA
BRANCH  19  20
ATOM     20  C   UNL     1       2.740   7.263  17.515  0.00  0.00    +0.000 C 
BRANCH  20  21
ATOM     21  C   UNL     1       4.068   6.542  17.650  0.00  0.00    +0.000 A 
ATOM     22  C   UNL     1       5.227   7.165  17.128  0.00  0.00    +0.000 A 
ATOM     23  C   UNL     1       6.482   6.585  17.248  0.00  0.00    +0.000 A 
ATOM     24  C   UNL     1       6.604   5.354  17.872  0.00  0.00    +0.000 A 
ATOM     25  C   UNL     1       5.467   4.711  18.375  0.00  0.00    +0.000 A 
ATOM     26  C   UNL     1       4.172   5.278  18.301  0.00  0.00    +0.000 A 
BRANCH  26  27
ATOM     27  C   UNL     1       3.029   4.554  18.953  0.00  0.00    +0.000 A 
ATOM     28  C   UNL     1       2.668   4.832  20.289  0.00  0.00    +0.000 A 
ATOM     29  C   UNL     1       1.593   4.194  20.921  0.00  0.00    +0.000 A 
ATOM     30  C   UNL     1       0.811   3.286  20.220  0.00  0.00    +0.000 A 
ATOM     31  C   UNL     1       1.139   2.980  18.907  0.00  0.00    +0.000 A 
ATOM     32  C   UNL     1       2.256   3.574  18.304  0.00  0.00    +0.000 A 
ENDBRANCH  26  27
ENDBRANCH  20  21
ENDBRANCH  19  20
ENDBRANCH   5  19
TORSDOF 7
ENDMDL
MODEL 8
REMARK VINA RESULT:      -8.4      2.935      4.677
REMARK  Name = 
REMARK  8 active torsions:
REMARK  status: ('A' for Active; 'I' for Inactive)
REMARK    1  A    between atoms: C_1  and  C_2
REMARK    2  A    between atoms: C_2  and  C_12
REMARK    3  A    between atoms: C_3  and  C_4
REMARK    4  A    between atoms: C_4  and  N_5
REMARK    5  A    between atoms: C_16  and  O_17
REMARK    6  A    between atoms: O_17  and  C_18
REMARK    7  A    between atoms: C_18  and  C_19
REMARK    8  A    between atoms: C_24  and  C_25
REMARK                            x       y       z     vdW  Elec       q    Type
REMARK                         _______ _______ _______ _____ _____    ______ ____
ROOT
ATOM      1  C   UNL     1       0.451  10.239  20.174  0.00  0.00    +0.000 A 
ATOM      2  C   UNL     1       0.687  10.647  18.848  0.00  0.00    +0.000 A 
ATOM      3  C   UNL     1       1.442   9.872  17.960  0.00  0.00    +0.000 A 
ATOM      4  C   UNL     1       1.966   8.651  18.368  0.00  0.00    +0.000 A 
ATOM      5  C   UNL     1       1.719   8.205  19.662  0.00  0.00    +0.000 A 
ATOM      6  C   UNL     1       1.005   9.007  20.555  0.00  0.00    +0.000 A 
ENDROOT
BRANCH   1   8
ATOM      7  C   UNL     1      -0.467  10.588  22.544  0.00  0.00    +0.000 C 
ATOM      8  C   UNL     1      -0.397  11.054  21.109  0.00  0.00    +0.000 C 
ATOM      9  C   UNL     1      -1.015  12.184  20.695  0.00  0.00    +0.000 C 
BRANCH   9  10
ATOM     10  C   UNL     1      -1.817  13.164  21.496  0.00  0.00    +0.000 C 
BRANCH  10  11
ATOM     11  N   UNL     1      -3.130  12.578  21.663  0.00  0.00    +0.000 N 
ATOM     12  O   UNL     1      -4.098  12.971  20.689  0.00  0.00    +0.000 OA
ATOM     13  C   UNL     1      -5.321  12.905  21.312  0.00  0.00    +0.000 A 
ATOM     14  O   UNL     1      -6.377  13.226  20.800  0.00  0.00    +0.000 OA
ATOM     15  N   UNL     1      -5.142  12.493  22.577  0.00  0.00    +0.000 N 
ATOM     16  C   UNL     1      -3.818  12.482  22.855  0.00  0.00    +0.000 A 
ATOM     17  O   UNL     1      -3.343  12.460  23.979  0.00  0.00    +0.000 OA
ATOM     18  H   UNL     1      -5.864  12.509  23.275  0.00  0.00    +0.000 HD
ENDBRANCH  10  11
ENDBRANCH   9  10
ENDBRANCH   1   8
BRANCH   5  19
ATOM     19  O   UNL     1       2.100   6.998  20.177  0.00  0.00    +0.000 OA
BRANCH  19  20
ATOM     20  C   UNL     1       2.942   6.221  19.323  0.00  0.00    +0.000 C 
BRANCH  20  21
ATOM     21  C   UNL     1       2.571   4.750  19.307  0.00  0.00    +0.000 A 
ATOM     22  C   UNL     1       1.381   4.350  19.961  0.00  0.00    +0.000 A 
ATOM     23  C   UNL     1       0.956   3.029  19.956  0.00  0.00    +0.000 A 
ATOM     24  C   UNL     1       1.727   2.071  19.317  0.00  0.00    +0.000 A 
ATOM     25  C   UNL     1       2.918   2.442  18.684  0.00  0.00    +0.000 A 
ATOM     26  C   UNL     1       3.375   3.782  18.639  0.00  0.00    +0.000 A 
BRANCH  26  27
ATOM     27  C   UNL     1       4.618   4.094  17.855  0.00  0.00    +0.000 A 
ATOM     28  C   UNL     1       5.820   4.433  18.512  0.00  0.00    +0.000 A 
ATOM     29  C   UNL     1       7.003   4.706  17.813  0.00  0.00    +0.000 A 
ATOM     30  C   UNL     1       7.035   4.603  16.429  0.00  0.00    +0.000 A 
ATOM     31  C   UNL     1       5.871   4.280  15.746  0.00  0.00    +0.000 A 
ATOM     32  C   UNL     1       4.677   4.073  16.449  0.00  0.00    +0.000 A 
ENDBRANCH  26  27
ENDBRANCH  20  21
ENDBRANCH  19  20
ENDBRANCH   5  19
TORSDOF 7
ENDMDL
MODEL 9
REMARK VINA RESULT:      -8.3      1.440      1.980
REMARK  Name = 
REMARK  8 active torsions:
REMARK  status: ('A' for Active; 'I' for Inactive)
REMARK    1  A    between atoms: C_1  and  C_2
REMARK    2  A    between atoms: C_2  and  C_12
REMARK    3  A    between atoms: C_3  and  C_4
REMARK    4  A    between atoms: C_4  and  N_5
REMARK    5  A    between atoms: C_16  and  O_17
REMARK    6  A    between atoms: O_17  and  C_18
REMARK    7  A    between atoms: C_18  and  C_19
REMARK    8  A    between atoms: C_24  and  C_25
REMARK                            x       y       z     vdW  Elec       q    Type
REMARK                         _______ _______ _______ _____ _____    ______ ____
ROOT
ATOM      1  C   UNL     1       1.368   7.920  20.496  0.00  0.00    +0.000 A 
ATOM      2  C   UNL     1       1.172   6.737  21.233  0.00  0.00    +0.000 A 
ATOM      3  C   UNL     1       1.800   5.537  20.882  0.00  0.00    +0.000 A 
ATOM      4  C   UNL     1       2.664   5.491  19.794  0.00  0.00    +0.000 A 
ATOM      5  C   UNL     1       2.905   6.653  19.070  0.00  0.00    +0.000 A 
ATOM      6  C   UNL     1       2.236   7.835  19.397  0.00  0.00    +0.000 A 
ENDROOT
BRANCH   1   8
ATOM      7  C   UNL     1       0.565   9.459  22.386  0.00  0.00    +0.000 C 
ATOM      8  C   UNL     1       0.723   9.215  20.903  0.00  0.00    +0.000 C 
ATOM      9  C   UNL     1       0.360  10.140  19.986  0.00  0.00    +0.000 C 
BRANCH   9  10
ATOM     10  C   UNL     1      -0.205  11.511  20.206  0.00  0.00    +0.000 C 
BRANCH  10  11
ATOM     11  N   UNL     1      -1.187  11.720  19.163  0.00  0.00    +0.000 N 
ATOM     12  O   UNL     1      -1.722  10.528  18.585  0.00  0.00    +0.000 OA
ATOM     13  C   UNL     1      -2.061  10.845  17.291  0.00  0.00    +0.000 A 
ATOM     14  O   UNL     1      -2.497  10.055  16.476  0.00  0.00    +0.000 OA
ATOM     15  N   UNL     1      -1.775  12.139  17.072  0.00  0.00    +0.000 N 
ATOM     16  C   UNL     1      -1.072  12.619  18.123  0.00  0.00    +0.000 A 
ATOM     17  O   UNL     1      -0.404  13.641  18.104  0.00  0.00    +0.000 OA
ATOM     18  H   UNL     1      -1.793  12.567  16.163  0.00  0.00    +0.000 HD
ENDBRANCH  10  11
ENDBRANCH   9  10
ENDBRANCH   1   8
BRANCH   5  19
ATOM     19  O   UNL     1       3.783   6.779  18.030  0.00  0.00    +0.000 OA
BRANCH  19  20
ATOM     20  C   UNL     1       5.019   6.084  18.203  0.00  0.00    +0.000 C 
BRANCH  20  21
ATOM     21  C   UNL     1       5.454   5.331  16.959  0.00  0.00    +0.000 A 
ATOM     22  C   UNL     1       6.441   5.916  16.130  0.00  0.00    +0.000 A 
ATOM     23  C   UNL     1       6.917   5.270  14.997  0.00  0.00    +0.000 A 
ATOM     24  C   UNL     1       6.396   4.034  14.653  0.00  0.00    +0.000 A 
ATOM     25  C   UNL     1       5.403   3.449  15.446  0.00  0.00    +0.000 A 
ATOM     26  C   UNL     1       4.909   4.057  16.625  0.00  0.00    +0.000 A 
BRANCH  26  27
ATOM     27  C   UNL     1       3.911   3.307  17.460  0.00  0.00    +0.000 A 
ATOM     28  C   UNL     1       4.321   2.596  18.608  0.00  0.00    +0.000 A 
ATOM     29  C   UNL     1       3.414   1.906  19.424  0.00  0.00    +0.000 A 
ATOM     30  C   UNL     1       2.055   1.943  19.142  0.00  0.00    +0.000 A 
ATOM     31  C   UNL     1       1.614   2.624  18.016  0.00  0.00    +0.000 A 
ATOM     32  C   UNL     1       2.535   3.256  17.171  0.00  0.00    +0.000 A 
ENDBRANCH  26  27
ENDBRANCH  20  21
ENDBRANCH  19  20
ENDBRANCH   5  19
TORSDOF 7
ENDMDL
