MODEL 1
REMARK VINA RESULT:      -7.2      0.000      0.000
REMARK  Name = 
REMARK  3 active torsions:
REMARK  status: ('A' for Active; 'I' for Inactive)
REMARK    1  A    between atoms: C_1  and  N_2
REMARK    2  A    between atoms: N_2  and  C_3
REMARK    3  A    between atoms: N_6  and  C_7
REMARK                            x       y       z     vdW  Elec       q    Type
REMARK                         _______ _______ _______ _____ _____    ______ ____
ROOT
ATOM      1  C   UNL     1       4.346   5.317  16.987  0.00  0.00    +0.000 A 
ATOM      2  N   UNL     1       3.924   6.506  17.463  0.00  0.00    +0.000 NA
ATOM      3  C   UNL     1       3.057   6.495  18.478  0.00  0.00    +0.000 A 
ATOM      4  N   UNL     1       2.626   7.706  18.985  0.00  0.00    +0.000 N 
ATOM      5  N   UNL     1       2.538   5.402  19.033  0.00  0.00    +0.000 NA
ATOM      6  C   UNL     1       2.958   4.207  18.568  0.00  0.00    +0.000 A 
ATOM      7  C   UNL     1       3.896   4.116  17.544  0.00  0.00    +0.000 A 
ATOM      8  C   UNL     1       4.414   2.790  17.060  0.00  0.00    +0.000 C 
ATOM      9  C   UNL     1       4.191   1.649  18.039  0.00  0.00    +0.000 C 
ATOM     10  C   UNL     1       2.743   1.676  18.500  0.00  0.00    +0.000 C 
ATOM     11  C   UNL     1       2.440   2.962  19.299  0.00  0.00    +0.000 C 
ATOM     12  C   UNL     1       3.091   2.891  20.706  0.00  0.00    +0.000 C 
ATOM     13  C   UNL     1       2.065   3.493  21.654  0.00  0.00    +0.000 C 
ATOM     14  C   UNL     1       0.748   2.987  21.100  0.00  0.00    +0.000 C 
ATOM     15  C   UNL     1       0.912   3.037  19.583  0.00  0.00    +0.000 C 
ATOM     16  H   UNL     1       2.692   8.421  18.276  0.00  0.00    +0.000 HD
ATOM     17  H   UNL     1       1.733   7.575  19.442  0.00  0.00    +0.000 HD
ENDROOT
BRANCH   1  21
ATOM     18  C   UNL     1       7.283   4.461  14.929  0.00  0.00    +0.000 C 
ATOM     19  C   UNL     1       6.069   3.891  14.193  0.00  0.00    +0.000 C 
ATOM     20  C   UNL     1       4.897   4.768  14.642  0.00  0.00    +0.000 C 
ATOM     21  N   UNL     1       5.284   5.288  15.956  0.00  0.00    +0.000 N 
ATOM     22  C   UNL     1       6.639   4.826  16.289  0.00  0.00    +0.000 C 
BRANCH  18  24
ATOM     23  C   UNL     1       7.950   5.309  12.730  0.00  0.00    +0.000 C 
ATOM     24  N   UNL     1       7.851   5.586  14.157  0.00  0.00    +0.000 NA
ATOM     25  H   UNL     1       7.260   6.407  14.288  0.00  0.00    +0.000 HD
ENDBRANCH  18  24
ENDBRANCH   1  21
TORSDOF 2
ENDMDL
MODEL 2
REMARK VINA RESULT:      -7.1      1.180      1.546
REMARK  Name = 
REMARK  3 active torsions:
REMARK  status: ('A' for Active; 'I' for Inactive)
REMARK    1  A    between atoms: C_1  and  N_2
REMARK    2  A    between atoms: N_2  and  C_3
REMARK    3  A    between atoms: N_6  and  C_7
REMARK                            x       y       z     vdW  Elec       q    Type
REMARK                         _______ _______ _______ _____ _____    ______ ____
ROOT
ATOM      1  C   UNL     1       4.600   4.591  16.461  0.00  0.00    +0.000 A 
ATOM      2  N   UNL     1       4.458   5.910  16.708  0.00  0.00    +0.000 NA
ATOM      3  C   UNL     1       3.672   6.268  17.725  0.00  0.00    +0.000 A 
ATOM      4  N   UNL     1       3.527   7.614  17.997  0.00  0.00    +0.000 N 
ATOM      5  N   UNL     1       2.978   5.430  18.492  0.00  0.00    +0.000 NA
ATOM      6  C   UNL     1       3.117   4.110  18.258  0.00  0.00    +0.000 A 
ATOM      7  C   UNL     1       3.952   3.636  17.250  0.00  0.00    +0.000 A 
ATOM      8  C   UNL     1       4.160   2.164  17.019  0.00  0.00    +0.000 C 
ATOM      9  C   UNL     1       3.772   1.297  18.205  0.00  0.00    +0.000 C 
ATOM     10  C   UNL     1       2.391   1.711  18.685  0.00  0.00    +0.000 C 
ATOM     11  C   UNL     1       2.404   3.157  19.226  0.00  0.00    +0.000 C 
ATOM     12  C   UNL     1       3.114   3.212  20.606  0.00  0.00    +0.000 C 
ATOM     13  C   UNL     1       2.291   4.180  21.442  0.00  0.00    +0.000 C 
ATOM     14  C   UNL     1       0.867   3.869  21.026  0.00  0.00    +0.000 C 
ATOM     15  C   UNL     1       0.944   3.604  19.524  0.00  0.00    +0.000 C 
ATOM     16  H   UNL     1       3.691   8.157  17.163  0.00  0.00    +0.000 HD
ATOM     17  H   UNL     1       2.656   7.761  18.491  0.00  0.00    +0.000 HD
ENDROOT
BRANCH   1  21
ATOM     18  C   UNL     1       6.376   4.380  13.237  0.00  0.00    +0.000 C 
ATOM     19  C   UNL     1       7.414   4.834  14.264  0.00  0.00    +0.000 C 
ATOM     20  C   UNL     1       6.897   4.298  15.602  0.00  0.00    +0.000 C 
ATOM     21  N   UNL     1       5.447   4.176  15.434  0.00  0.00    +0.000 N 
ATOM     22  C   UNL     1       5.076   4.546  14.061  0.00  0.00    +0.000 C 
BRANCH  18  24
ATOM     23  C   UNL     1       5.758   2.508  11.782  0.00  0.00    +0.000 C 
ATOM     24  N   UNL     1       6.688   3.007  12.787  0.00  0.00    +0.000 NA
ATOM     25  H   UNL     1       7.629   2.994  12.393  0.00  0.00    +0.000 HD
ENDBRANCH  18  24
ENDBRANCH   1  21
TORSDOF 2
ENDMDL
MODEL 3
REMARK VINA RESULT:      -7.1      2.395      5.744
REMARK  Name = 
REMARK  3 active torsions:
REMARK  status: ('A' for Active; 'I' for Inactive)
REMARK    1  A    between atoms: C_1  and  N_2
REMARK    2  A    between atoms: N_2  and  C_3
REMARK    3  A    between atoms: N_6  and  C_7
REMARK                            x       y       z     vdW  Elec       q    Type
REMARK                         _______ _______ _______ _____ _____    ______ ____
ROOT
ATOM      1  C   UNL     1       2.580   6.753  18.671  0.00  0.00    +0.000 A 
ATOM      2  N   UNL     1       3.611   6.888  17.811  0.00  0.00    +0.000 NA
ATOM      3  C   UNL     1       4.392   5.825  17.610  0.00  0.00    +0.000 A 
ATOM      4  N   UNL     1       5.444   5.945  16.722  0.00  0.00    +0.000 N 
ATOM      5  N   UNL     1       4.266   4.651  18.224  0.00  0.00    +0.000 NA
ATOM      6  C   UNL     1       3.235   4.503  19.081  0.00  0.00    +0.000 A 
ATOM      7  C   UNL     1       2.337   5.540  19.321  0.00  0.00    +0.000 A 
ATOM      8  C   UNL     1       1.151   5.366  20.230  0.00  0.00    +0.000 C 
ATOM      9  C   UNL     1       0.778   3.914  20.480  0.00  0.00    +0.000 C 
ATOM     10  C   UNL     1       2.031   3.144  20.859  0.00  0.00    +0.000 C 
ATOM     11  C   UNL     1       3.035   3.108  19.687  0.00  0.00    +0.000 C 
ATOM     12  C   UNL     1       2.540   2.140  18.579  0.00  0.00    +0.000 C 
ATOM     13  C   UNL     1       3.785   1.412  18.097  0.00  0.00    +0.000 C 
ATOM     14  C   UNL     1       4.576   1.202  19.372  0.00  0.00    +0.000 C 
ATOM     15  C   UNL     1       4.372   2.482  20.179  0.00  0.00    +0.000 C 
ATOM     16  H   UNL     1       5.734   6.908  16.657  0.00  0.00    +0.000 HD
ATOM     17  H   UNL     1       6.148   5.253  16.947  0.00  0.00    +0.000 HD
ENDROOT
BRANCH   1  21
ATOM     18  C   UNL     1       1.073   9.854  19.978  0.00  0.00    +0.000 C 
ATOM     19  C   UNL     1       1.574  10.186  18.570  0.00  0.00    +0.000 C 
ATOM     20  C   UNL     1       1.570   8.845  17.831  0.00  0.00    +0.000 C 
ATOM     21  N   UNL     1       1.715   7.828  18.875  0.00  0.00    +0.000 N 
ATOM     22  C   UNL     1       1.743   8.475  20.194  0.00  0.00    +0.000 C 
BRANCH  18  24
ATOM     23  C   UNL     1      -0.974  11.079  19.419  0.00  0.00    +0.000 C 
ATOM     24  N   UNL     1      -0.405   9.868  19.996  0.00  0.00    +0.000 NA
ATOM     25  H   UNL     1      -0.749   9.065  19.469  0.00  0.00    +0.000 HD
ENDBRANCH  18  24
ENDBRANCH   1  21
TORSDOF 2
ENDMDL
MODEL 4
REMARK VINA RESULT:      -6.7      2.475      5.765
REMARK  Name = 
REMARK  3 active torsions:
REMARK  status: ('A' for Active; 'I' for Inactive)
REMARK    1  A    between atoms: C_1  and  N_2
REMARK    2  A    between atoms: N_2  and  C_3
REMARK    3  A    between atoms: N_6  and  C_7
REMARK                            x       y       z     vdW  Elec       q    Type
REMARK                         _______ _______ _______ _____ _____    ______ ____
ROOT
ATOM      1  C   UNL     1       2.768   7.299  18.735  0.00  0.00    +0.000 A 
ATOM      2  N   UNL     1       3.604   7.378  17.679  0.00  0.00    +0.000 NA
ATOM      3  C   UNL     1       4.125   6.240  17.215  0.00  0.00    +0.000 A 
ATOM      4  N   UNL     1       4.972   6.305  16.126  0.00  0.00    +0.000 N 
ATOM      5  N   UNL     1       3.922   5.032  17.737  0.00  0.00    +0.000 NA
ATOM      6  C   UNL     1       3.083   4.941  18.789  0.00  0.00    +0.000 A 
ATOM      7  C   UNL     1       2.454   6.066  19.315  0.00  0.00    +0.000 A 
ATOM      8  C   UNL     1       1.471   5.966  20.450  0.00  0.00    +0.000 C 
ATOM      9  C   UNL     1       0.906   4.570  20.651  0.00  0.00    +0.000 C 
ATOM     10  C   UNL     1       2.054   3.574  20.669  0.00  0.00    +0.000 C 
ATOM     11  C   UNL     1       2.769   3.530  19.301  0.00  0.00    +0.000 C 
ATOM     12  C   UNL     1       1.890   2.794  18.254  0.00  0.00    +0.000 C 
ATOM     13  C   UNL     1       2.858   1.947  17.441  0.00  0.00    +0.000 C 
ATOM     14  C   UNL     1       3.847   1.462  18.482  0.00  0.00    +0.000 C 
ATOM     15  C   UNL     1       4.046   2.649  19.422  0.00  0.00    +0.000 C 
ATOM     16  H   UNL     1       5.410   7.213  16.081  0.00  0.00    +0.000 HD
ATOM     17  H   UNL     1       5.574   5.491  16.125  0.00  0.00    +0.000 HD
ENDROOT
BRANCH   1  21
ATOM     18  C   UNL     1       0.470  10.146  19.185  0.00  0.00    +0.000 C 
ATOM     19  C   UNL     1       0.222   9.210  20.369  0.00  0.00    +0.000 C 
ATOM     20  C   UNL     1       1.539   8.447  20.543  0.00  0.00    +0.000 C 
ATOM     21  N   UNL     1       2.170   8.460  19.222  0.00  0.00    +0.000 N 
ATOM     22  C   UNL     1       1.342   9.235  18.287  0.00  0.00    +0.000 C 
BRANCH  18  24
ATOM     23  C   UNL     1       1.845  12.093  18.616  0.00  0.00    +0.000 C 
ATOM     24  N   UNL     1       1.108  11.392  19.661  0.00  0.00    +0.000 NA
ATOM     25  H   UNL     1       0.387  12.015  20.023  0.00  0.00    +0.000 HD
ENDBRANCH  18  24
ENDBRANCH   1  21
TORSDOF 2
ENDMDL
MODEL 5
REMARK VINA RESULT:      -6.6      2.759      4.583
REMARK  Name = 
REMARK  3 active torsions:
REMARK  status: ('A' for Active; 'I' for Inactive)
REMARK    1  A    between atoms: C_1  and  N_2
REMARK    2  A    between atoms: N_2  and  C_3
REMARK    3  A    between atoms: N_6  and  C_7
REMARK                            x       y       z     vdW  Elec       q    Type
REMARK                         _______ _______ _______ _____ _____    ______ ____
ROOT
ATOM      1  C   UNL     1       3.233   5.831  18.722  0.00  0.00    +0.000 A 
ATOM      2  N   UNL     1       3.030   4.863  19.639  0.00  0.00    +0.000 NA
ATOM      3  C   UNL     1       2.306   5.174  20.717  0.00  0.00    +0.000 A 
ATOM      4  N   UNL     1       2.079   4.189  21.659  0.00  0.00    +0.000 N 
ATOM      5  N   UNL     1       1.804   6.377  20.985  0.00  0.00    +0.000 NA
ATOM      6  C   UNL     1       1.997   7.351  20.072  0.00  0.00    +0.000 A 
ATOM      7  C   UNL     1       2.697   7.111  18.893  0.00  0.00    +0.000 A 
ATOM      8  C   UNL     1       2.866   8.173  17.841  0.00  0.00    +0.000 C 
ATOM      9  C   UNL     1       1.871   9.316  17.959  0.00  0.00    +0.000 C 
ATOM     10  C   UNL     1       1.844   9.797  19.399  0.00  0.00    +0.000 C 
ATOM     11  C   UNL     1       1.311   8.696  20.341  0.00  0.00    +0.000 C 
ATOM     12  C   UNL     1      -0.223   8.528  20.164  0.00  0.00    +0.000 C 
ATOM     13  C   UNL     1      -0.768   8.321  21.569  0.00  0.00    +0.000 C 
ATOM     14  C   UNL     1       0.076   9.259  22.407  0.00  0.00    +0.000 C 
ATOM     15  C   UNL     1       1.481   9.160  21.816  0.00  0.00    +0.000 C 
ATOM     16  H   UNL     1       2.814   3.500  21.624  0.00  0.00    +0.000 HD
ATOM     17  H   UNL     1       1.882   4.623  22.552  0.00  0.00    +0.000 HD
ENDROOT
BRANCH   1  21
ATOM     18  C   UNL     1       5.961   4.973  16.395  0.00  0.00    +0.000 C 
ATOM     19  C   UNL     1       5.068   3.734  16.477  0.00  0.00    +0.000 C 
ATOM     20  C   UNL     1       3.687   4.275  16.858  0.00  0.00    +0.000 C 
ATOM     21  N   UNL     1       3.946   5.533  17.561  0.00  0.00    +0.000 N 
ATOM     22  C   UNL     1       5.390   5.806  17.568  0.00  0.00    +0.000 C 
BRANCH  18  24
ATOM     23  C   UNL     1       6.648   4.897  14.044  0.00  0.00    +0.000 C 
ATOM     24  N   UNL     1       5.848   5.580  15.052  0.00  0.00    +0.000 NA
ATOM     25  H   UNL     1       4.870   5.557  14.761  0.00  0.00    +0.000 HD
ENDBRANCH  18  24
ENDBRANCH   1  21
TORSDOF 2
ENDMDL
MODEL 6
REMARK VINA RESULT:      -6.5      9.909     13.367
REMARK  Name = 
REMARK  3 active torsions:
REMARK  status: ('A' for Active; 'I' for Inactive)
REMARK    1  A    between atoms: C_1  and  N_2
REMARK    2  A    between atoms: N_2  and  C_3
REMARK    3  A    between atoms: N_6  and  C_7
REMARK                            x       y       z     vdW  Elec       q    Type
REMARK                         _______ _______ _______ _____ _____    ______ ____
ROOT
ATOM      1  C   UNL     1      -3.805  13.302  20.727  0.00  0.00    +0.000 A 
ATOM      2  N   UNL     1      -2.485  13.564  20.633  0.00  0.00    +0.000 NA
ATOM      3  C   UNL     1      -1.798  12.945  19.670  0.00  0.00    +0.000 A 
ATOM      4  N   UNL     1      -0.448  13.214  19.553  0.00  0.00    +0.000 N 
ATOM      5  N   UNL     1      -2.300  12.053  18.819  0.00  0.00    +0.000 NA
ATOM      6  C   UNL     1      -3.620  11.788  18.901  0.00  0.00    +0.000 A 
ATOM      7  C   UNL     1      -4.430  12.419  19.841  0.00  0.00    +0.000 A 
ATOM      8  C   UNL     1      -5.913  12.175  19.901  0.00  0.00    +0.000 C 
ATOM      9  C   UNL     1      -6.488  11.576  18.628  0.00  0.00    +0.000 C 
ATOM     10  C   UNL     1      -5.630  10.393  18.211  0.00  0.00    +0.000 C 
ATOM     11  C   UNL     1      -4.203  10.849  17.837  0.00  0.00    +0.000 C 
ATOM     12  C   UNL     1      -4.209  11.577  16.466  0.00  0.00    +0.000 C 
ATOM     13  C   UNL     1      -2.953  11.100  15.753  0.00  0.00    +0.000 C 
ATOM     14  C   UNL     1      -2.870   9.638  16.144  0.00  0.00    +0.000 C 
ATOM     15  C   UNL     1      -3.311   9.595  17.605  0.00  0.00    +0.000 C 
ATOM     16  H   UNL     1      -0.076  13.511  20.442  0.00  0.00    +0.000 HD
ATOM     17  H   UNL     1       0.006  12.439  19.087  0.00  0.00    +0.000 HD
ENDROOT
BRANCH   1  21
ATOM     18  C   UNL     1      -5.028  14.608  23.951  0.00  0.00    +0.000 C 
ATOM     19  C   UNL     1      -4.473  15.812  23.188  0.00  0.00    +0.000 C 
ATOM     20  C   UNL     1      -4.594  15.425  21.711  0.00  0.00    +0.000 C 
ATOM     21  N   UNL     1      -4.565  13.961  21.692  0.00  0.00    +0.000 N 
ATOM     22  C   UNL     1      -4.499  13.451  23.069  0.00  0.00    +0.000 C 
BRANCH  18  24
ATOM     23  C   UNL     1      -7.169  13.429  24.129  0.00  0.00    +0.000 C 
ATOM     24  N   UNL     1      -6.498  14.721  24.059  0.00  0.00    +0.000 NA
ATOM     25  H   UNL     1      -6.727  15.251  24.899  0.00  0.00    +0.000 HD
ENDBRANCH  18  24
ENDBRANCH   1  21
TORSDOF 2
ENDMDL
MODEL 7
REMARK VINA RESULT:      -6.5     10.212     12.665
REMARK  Name = 
REMARK  3 active torsions:
REMARK  status: ('A' for Active; 'I' for Inactive)
REMARK    1  A    between atoms: C_1  and  N_2
REMARK    2  A    between atoms: N_2  and  C_3
REMARK    3  A    between atoms: N_6  and  C_7
REMARK                            x       y       z     vdW  Elec       q    Type
REMARK                         _______ _______ _______ _____ _____    ______ ____
ROOT
ATOM      1  C   UNL     1       7.661  14.533  21.091  0.00  0.00    +0.000 A 
ATOM      2  N   UNL     1       7.550  15.678  20.387  0.00  0.00    +0.000 NA
ATOM      3  C   UNL     1       8.430  15.891  19.407  0.00  0.00    +0.000 A 
ATOM      4  N   UNL     1       8.321  17.054  18.670  0.00  0.00    +0.000 N 
ATOM      5  N   UNL     1       9.441  15.083  19.092  0.00  0.00    +0.000 NA
ATOM      6  C   UNL     1       9.557  13.932  19.785  0.00  0.00    +0.000 A 
ATOM      7  C   UNL     1       8.659  13.599  20.795  0.00  0.00    +0.000 A 
ATOM      8  C   UNL     1       8.746  12.291  21.532  0.00  0.00    +0.000 C 
ATOM      9  C   UNL     1       9.560  11.231  20.809  0.00  0.00    +0.000 C 
ATOM     10  C   UNL     1      10.880  11.842  20.369  0.00  0.00    +0.000 C 
ATOM     11  C   UNL     1      10.653  12.960  19.330  0.00  0.00    +0.000 C 
ATOM     12  C   UNL     1      10.255  12.352  17.958  0.00  0.00    +0.000 C 
ATOM     13  C   UNL     1      10.994  13.184  16.920  0.00  0.00    +0.000 C 
ATOM     14  C   UNL     1      12.332  13.448  17.582  0.00  0.00    +0.000 C 
ATOM     15  C   UNL     1      12.004  13.682  19.055  0.00  0.00    +0.000 C 
ATOM     16  H   UNL     1       7.867  17.770  19.217  0.00  0.00    +0.000 HD
ATOM     17  H   UNL     1       9.220  17.273  18.259  0.00  0.00    +0.000 HD
ENDROOT
BRANCH   1  21
ATOM     18  C   UNL     1       5.650  14.739  24.174  0.00  0.00    +0.000 C 
ATOM     19  C   UNL     1       4.697  15.067  23.023  0.00  0.00    +0.000 C 
ATOM     20  C   UNL     1       5.303  14.364  21.805  0.00  0.00    +0.000 C 
ATOM     21  N   UNL     1       6.735  14.254  22.094  0.00  0.00    +0.000 N 
ATOM     22  C   UNL     1       7.009  14.792  23.434  0.00  0.00    +0.000 C 
BRANCH  18  24
ATOM     23  C   UNL     1       6.050  13.115  25.965  0.00  0.00    +0.000 C 
ATOM     24  N   UNL     1       5.285  13.435  24.766  0.00  0.00    +0.000 NA
ATOM     25  H   UNL     1       4.294  13.448  25.008  0.00  0.00    +0.000 HD
ENDBRANCH  18  24
ENDBRANCH   1  21
TORSDOF 2
ENDMDL
MODEL 8
REMARK VINA RESULT:      -6.5      8.665     11.039
REMARK  Name = 
REMARK  3 active torsions:
REMARK  status: ('A' for Active; 'I' for Inactive)
REMARK    1  A    between atoms: C_1  and  N_2
REMARK    2  A    between atoms: N_2  and  C_3
REMARK    3  A    between atoms: N_6  and  C_7
REMARK                            x       y       z     vdW  Elec       q    Type
REMARK                         _______ _______ _______ _____ _____    ______ ____
ROOT
ATOM      1  C   UNL     1      -2.127  11.902  19.797  0.00  0.00    +0.000 A 
ATOM      2  N   UNL     1      -2.075  12.461  21.024  0.00  0.00    +0.000 NA
ATOM      3  C   UNL     1      -3.181  13.048  21.485  0.00  0.00    +0.000 A 
ATOM      4  N   UNL     1      -3.146  13.613  22.745  0.00  0.00    +0.000 N 
ATOM      5  N   UNL     1      -4.325  13.167  20.814  0.00  0.00    +0.000 NA
ATOM      6  C   UNL     1      -4.390  12.607  19.589  0.00  0.00    +0.000 A 
ATOM      7  C   UNL     1      -3.303  11.931  19.041  0.00  0.00    +0.000 A 
ATOM      8  C   UNL     1      -3.385  11.252  17.702  0.00  0.00    +0.000 C 
ATOM      9  C   UNL     1      -4.806  10.984  17.236  0.00  0.00    +0.000 C 
ATOM     10  C   UNL     1      -5.623  12.256  17.394  0.00  0.00    +0.000 C 
ATOM     11  C   UNL     1      -5.750  12.651  18.881  0.00  0.00    +0.000 C 
ATOM     12  C   UNL     1      -6.734  11.697  19.612  0.00  0.00    +0.000 C 
ATOM     13  C   UNL     1      -7.539  12.589  20.545  0.00  0.00    +0.000 C 
ATOM     14  C   UNL     1      -7.740  13.849  19.726  0.00  0.00    +0.000 C 
ATOM     15  C   UNL     1      -6.422  14.050  18.982  0.00  0.00    +0.000 C 
ATOM     16  H   UNL     1      -2.201  13.873  22.982  0.00  0.00    +0.000 HD
ATOM     17  H   UNL     1      -3.862  14.326  22.810  0.00  0.00    +0.000 HD
ENDROOT
BRANCH   1  21
ATOM     18  C   UNL     1       1.344  11.087  18.859  0.00  0.00    +0.000 C 
ATOM     19  C   UNL     1       0.988  10.156  20.020  0.00  0.00    +0.000 C 
ATOM     20  C   UNL     1      -0.536  10.020  19.956  0.00  0.00    +0.000 C 
ATOM     21  N   UNL     1      -1.005  11.242  19.299  0.00  0.00    +0.000 N 
ATOM     22  C   UNL     1       0.148  12.068  18.912  0.00  0.00    +0.000 C 
BRANCH  18  24
ATOM     23  C   UNL     1       2.190   9.040  17.811  0.00  0.00    +0.000 C 
ATOM     24  N   UNL     1       1.483  10.300  17.616  0.00  0.00    +0.000 NA
ATOM     25  H   UNL     1       0.554  10.097  17.247  0.00  0.00    +0.000 HD
ENDBRANCH  18  24
ENDBRANCH   1  21
TORSDOF 2
ENDMDL
MODEL 9
REMARK VINA RESULT:      -6.5      8.589     12.376
REMARK  Name = 
REMARK  3 active torsions:
REMARK  status: ('A' for Active; 'I' for Inactive)
REMARK    1  A    between atoms: C_1  and  N_2
REMARK    2  A    between atoms: N_2  and  C_3
REMARK    3  A    between atoms: N_6  and  C_7
REMARK                            x       y       z     vdW  Elec       q    Type
REMARK                         _______ _______ _______ _____ _____    ______ ____
ROOT
ATOM      1  C   UNL     1      -1.474  12.721  22.517  0.00  0.00    +0.000 A 
ATOM      2  N   UNL     1      -1.204  11.628  23.260  0.00  0.00    +0.000 NA
ATOM      3  C   UNL     1      -0.669  10.574  22.640  0.00  0.00    +0.000 A 
ATOM      4  N   UNL     1      -0.375   9.452  23.391  0.00  0.00    +0.000 N 
ATOM      5  N   UNL     1      -0.420  10.495  21.334  0.00  0.00    +0.000 NA
ATOM      6  C   UNL     1      -0.681  11.584  20.583  0.00  0.00    +0.000 A 
ATOM      7  C   UNL     1      -1.195  12.749  21.148  0.00  0.00    +0.000 A 
ATOM      8  C   UNL     1      -1.434  13.988  20.328  0.00  0.00    +0.000 C 
ATOM      9  C   UNL     1      -0.676  14.008  19.012  0.00  0.00    +0.000 C 
ATOM     10  C   UNL     1      -0.892  12.683  18.301  0.00  0.00    +0.000 C 
ATOM     11  C   UNL     1      -0.278  11.516  19.105  0.00  0.00    +0.000 C 
ATOM     12  C   UNL     1       1.271  11.542  19.000  0.00  0.00    +0.000 C 
ATOM     13  C   UNL     1       1.688  10.086  18.860  0.00  0.00    +0.000 C 
ATOM     14  C   UNL     1       0.604   9.502  17.977  0.00  0.00    +0.000 C 
ATOM     15  C   UNL     1      -0.688  10.169  18.443  0.00  0.00    +0.000 C 
ATOM     16  H   UNL     1      -0.968   9.415  24.206  0.00  0.00    +0.000 HD
ATOM     17  H   UNL     1      -0.356   8.642  22.784  0.00  0.00    +0.000 HD
ENDROOT
BRANCH   1  21
ATOM     18  C   UNL     1      -3.333  14.942  24.798  0.00  0.00    +0.000 C 
ATOM     19  C   UNL     1      -1.857  15.095  25.167  0.00  0.00    +0.000 C 
ATOM     20  C   UNL     1      -1.097  14.742  23.885  0.00  0.00    +0.000 C 
ATOM     21  N   UNL     1      -1.992  13.857  23.137  0.00  0.00    +0.000 N 
ATOM     22  C   UNL     1      -3.261  13.710  23.864  0.00  0.00    +0.000 C 
BRANCH  18  24
ATOM     23  C   UNL     1      -4.424  17.109  25.147  0.00  0.00    +0.000 C 
ATOM     24  N   UNL     1      -3.824  16.194  24.183  0.00  0.00    +0.000 NA
ATOM     25  H   UNL     1      -3.043  16.668  23.729  0.00  0.00    +0.000 HD
ENDBRANCH  18  24
ENDBRANCH   1  21
TORSDOF 2
ENDMDL
