MODEL 1
REMARK VINA RESULT:      -6.1      0.000      0.000
REMARK  Name = 
REMARK  4 active torsions:
REMARK  status: ('A' for Active; 'I' for Inactive)
REMARK    1  A    between atoms: C_1  and  C_2
REMARK    2  A    between atoms: C_9  and  C_10
REMARK    3  A    between atoms: C_10  and  C_11
REMARK    4  A    between atoms: N_14  and  C_15
REMARK                            x       y       z     vdW  Elec       q    Type
REMARK                         _______ _______ _______ _____ _____    ______ ____
ROOT
ATOM      1  C   UNL     1       0.646   8.288  21.535  0.00  0.00    +0.000 C 
ATOM      2  C   UNL     1       1.402   7.316  20.678  0.00  0.00    +0.000 A 
ATOM      3  C   UNL     1       1.443   5.958  20.984  0.00  0.00    +0.000 A 
ATOM      4  C   UNL     1       2.151   5.065  20.170  0.00  0.00    +0.000 A 
ATOM      5  C   UNL     1       2.849   5.500  19.026  0.00  0.00    +0.000 A 
ATOM      6  C   UNL     1       2.824   6.891  18.742  0.00  0.00    +0.000 A 
ATOM      7  C   UNL     1       3.537   7.387  17.662  0.00  0.00    +0.000 A 
ATOM      8  C   UNL     1       4.270   6.516  16.879  0.00  0.00    +0.000 A 
ATOM      9  C   UNL     1       4.272   5.136  17.141  0.00  0.00    +0.000 A 
ATOM     10  N   UNL     1       3.530   4.650  18.186  0.00  0.00    +0.000 N 
ATOM     11  C   UNL     1       3.449   3.190  18.435  0.00  0.00    +0.000 C 
ATOM     12  C   UNL     1       2.091   7.772  19.552  0.00  0.00    +0.000 A 
ENDROOT
BRANCH   9  13
ATOM     13  C   UNL     1       5.038   4.255  16.177  0.00  0.00    +0.000 C 
BRANCH  13  14
ATOM     14  C   UNL     1       6.534   4.541  15.978  0.00  0.00    +0.000 C 
ATOM     15  S   UNL     1       7.026   4.657  14.365  0.00  0.00    +0.000 S 
ATOM     16  S   UNL     1       7.528   4.664  17.337  0.00  0.00    +0.000 SA
ENDBRANCH  13  14
ENDBRANCH   9  13
TORSDOF 2
ENDMDL
MODEL 2
REMARK VINA RESULT:      -6.1      2.298      3.647
REMARK  Name = 
REMARK  4 active torsions:
REMARK  status: ('A' for Active; 'I' for Inactive)
REMARK    1  A    between atoms: C_1  and  C_2
REMARK    2  A    between atoms: C_9  and  C_10
REMARK    3  A    between atoms: C_10  and  C_11
REMARK    4  A    between atoms: N_14  and  C_15
REMARK                            x       y       z     vdW  Elec       q    Type
REMARK                         _______ _______ _______ _____ _____    ______ ____
ROOT
ATOM      1  C   UNL     1       0.342   2.151  18.932  0.00  0.00    +0.000 C 
ATOM      2  C   UNL     1       1.580   2.841  18.443  0.00  0.00    +0.000 A 
ATOM      3  C   UNL     1       2.615   2.134  17.836  0.00  0.00    +0.000 A 
ATOM      4  C   UNL     1       3.762   2.797  17.382  0.00  0.00    +0.000 A 
ATOM      5  C   UNL     1       3.918   4.191  17.527  0.00  0.00    +0.000 A 
ATOM      6  C   UNL     1       2.869   4.896  18.175  0.00  0.00    +0.000 A 
ATOM      7  C   UNL     1       2.989   6.258  18.396  0.00  0.00    +0.000 A 
ATOM      8  C   UNL     1       4.135   6.911  17.987  0.00  0.00    +0.000 A 
ATOM      9  C   UNL     1       5.161   6.220  17.319  0.00  0.00    +0.000 A 
ATOM     10  N   UNL     1       5.015   4.881  17.069  0.00  0.00    +0.000 N 
ATOM     11  C   UNL     1       6.045   4.145  16.295  0.00  0.00    +0.000 C 
ATOM     12  C   UNL     1       1.714   4.223  18.603  0.00  0.00    +0.000 A 
ENDROOT
BRANCH   9  13
ATOM     13  C   UNL     1       6.340   7.039  16.838  0.00  0.00    +0.000 C 
BRANCH  13  14
ATOM     14  C   UNL     1       7.455   7.354  17.846  0.00  0.00    +0.000 C 
ATOM     15  S   UNL     1       8.106   8.908  17.721  0.00  0.00    +0.000 S 
ATOM     16  S   UNL     1       7.944   6.149  18.923  0.00  0.00    +0.000 SA
ENDBRANCH  13  14
ENDBRANCH   9  13
TORSDOF 2
ENDMDL
MODEL 3
REMARK VINA RESULT:      -5.9      1.486      3.157
REMARK  Name = 
REMARK  4 active torsions:
REMARK  status: ('A' for Active; 'I' for Inactive)
REMARK    1  A    between atoms: C_1  and  C_2
REMARK    2  A    between atoms: C_9  and  C_10
REMARK    3  A    between atoms: C_10  and  C_11
REMARK    4  A    between atoms: N_14  and  C_15
REMARK                            x       y       z     vdW  Elec       q    Type
REMARK                         _______ _______ _______ _____ _____    ______ ____
ROOT
ATOM      1  C   UNL     1       1.157   2.478  22.060  0.00  0.00    +0.000 C 
ATOM      2  C   UNL     1       1.773   3.310  20.975  0.00  0.00    +0.000 A 
ATOM      3  C   UNL     1       1.571   4.686  20.910  0.00  0.00    +0.000 A 
ATOM      4  C   UNL     1       2.159   5.445  19.891  0.00  0.00    +0.000 A 
ATOM      5  C   UNL     1       2.962   4.854  18.895  0.00  0.00    +0.000 A 
ATOM      6  C   UNL     1       3.135   3.445  18.955  0.00  0.00    +0.000 A 
ATOM      7  C   UNL     1       3.868   2.799  17.973  0.00  0.00    +0.000 A 
ATOM      8  C   UNL     1       4.417   3.538  16.942  0.00  0.00    +0.000 A 
ATOM      9  C   UNL     1       4.271   4.935  16.898  0.00  0.00    +0.000 A 
ATOM     10  N   UNL     1       3.579   5.570  17.896  0.00  0.00    +0.000 N 
ATOM     11  C   UNL     1       3.480   7.050  17.918  0.00  0.00    +0.000 C 
ATOM     12  C   UNL     1       2.561   2.699  19.996  0.00  0.00    +0.000 A 
ENDROOT
BRANCH   9  13
ATOM     13  C   UNL     1       4.978   5.664  15.775  0.00  0.00    +0.000 C 
BRANCH  13  14
ATOM     14  C   UNL     1       6.511   5.576  15.715  0.00  0.00    +0.000 C 
ATOM     15  S   UNL     1       7.313   6.245  17.043  0.00  0.00    +0.000 S 
ATOM     16  S   UNL     1       7.234   4.882  14.356  0.00  0.00    +0.000 SA
ENDBRANCH  13  14
ENDBRANCH   9  13
TORSDOF 2
ENDMDL
MODEL 4
REMARK VINA RESULT:      -5.9      1.498      3.011
REMARK  Name = 
REMARK  4 active torsions:
REMARK  status: ('A' for Active; 'I' for Inactive)
REMARK    1  A    between atoms: C_1  and  C_2
REMARK    2  A    between atoms: C_9  and  C_10
REMARK    3  A    between atoms: C_10  and  C_11
REMARK    4  A    between atoms: N_14  and  C_15
REMARK                            x       y       z     vdW  Elec       q    Type
REMARK                         _______ _______ _______ _____ _____    ______ ____
ROOT
ATOM      1  C   UNL     1       1.145   2.559  22.119  0.00  0.00    +0.000 C 
ATOM      2  C   UNL     1       1.822   3.294  21.000  0.00  0.00    +0.000 A 
ATOM      3  C   UNL     1       1.818   4.685  20.938  0.00  0.00    +0.000 A 
ATOM      4  C   UNL     1       2.459   5.353  19.887  0.00  0.00    +0.000 A 
ATOM      5  C   UNL     1       3.119   4.653  18.857  0.00  0.00    +0.000 A 
ATOM      6  C   UNL     1       3.089   3.234  18.916  0.00  0.00    +0.000 A 
ATOM      7  C   UNL     1       3.673   2.490  17.903  0.00  0.00    +0.000 A 
ATOM      8  C   UNL     1       4.271   3.143  16.844  0.00  0.00    +0.000 A 
ATOM      9  C   UNL     1       4.327   4.547  16.798  0.00  0.00    +0.000 A 
ATOM     10  N   UNL     1       3.784   5.273  17.825  0.00  0.00    +0.000 N 
ATOM     11  C   UNL     1       3.901   6.752  17.844  0.00  0.00    +0.000 C 
ATOM     12  C   UNL     1       2.465   2.577  19.988  0.00  0.00    +0.000 A 
ENDROOT
BRANCH   9  13
ATOM     13  C   UNL     1       5.077   5.167  15.639  0.00  0.00    +0.000 C 
BRANCH  13  14
ATOM     14  C   UNL     1       6.593   4.937  15.559  0.00  0.00    +0.000 C 
ATOM     15  S   UNL     1       7.215   4.844  13.990  0.00  0.00    +0.000 S 
ATOM     16  S   UNL     1       7.467   4.758  16.992  0.00  0.00    +0.000 SA
ENDBRANCH  13  14
ENDBRANCH   9  13
TORSDOF 2
ENDMDL
MODEL 5
REMARK VINA RESULT:      -5.8      1.149      1.399
REMARK  Name = 
REMARK  4 active torsions:
REMARK  status: ('A' for Active; 'I' for Inactive)
REMARK    1  A    between atoms: C_1  and  C_2
REMARK    2  A    between atoms: C_9  and  C_10
REMARK    3  A    between atoms: C_10  and  C_11
REMARK    4  A    between atoms: N_14  and  C_15
REMARK                            x       y       z     vdW  Elec       q    Type
REMARK                         _______ _______ _______ _____ _____    ______ ____
ROOT
ATOM      1  C   UNL     1       0.343  10.241  20.366  0.00  0.00    +0.000 C 
ATOM      2  C   UNL     1       1.094   8.976  20.069  0.00  0.00    +0.000 A 
ATOM      3  C   UNL     1       1.093   7.905  20.958  0.00  0.00    +0.000 A 
ATOM      4  C   UNL     1       1.797   6.731  20.662  0.00  0.00    +0.000 A 
ATOM      5  C   UNL     1       2.535   6.592  19.468  0.00  0.00    +0.000 A 
ATOM      6  C   UNL     1       2.553   7.703  18.584  0.00  0.00    +0.000 A 
ATOM      7  C   UNL     1       3.305   7.647  17.422  0.00  0.00    +0.000 A 
ATOM      8  C   UNL     1       4.034   6.507  17.144  0.00  0.00    +0.000 A 
ATOM      9  C   UNL     1       3.994   5.395  18.002  0.00  0.00    +0.000 A 
ATOM     10  N   UNL     1       3.214   5.446  19.129  0.00  0.00    +0.000 N 
ATOM     11  C   UNL     1       3.089   4.258  20.009  0.00  0.00    +0.000 C 
ATOM     12  C   UNL     1       1.823   8.864  18.882  0.00  0.00    +0.000 A 
ENDROOT
BRANCH   9  13
ATOM     13  C   UNL     1       4.761   4.164  17.569  0.00  0.00    +0.000 C 
BRANCH  13  14
ATOM     14  C   UNL     1       6.113   4.371  16.870  0.00  0.00    +0.000 C 
ATOM     15  S   UNL     1       6.118   4.022  15.216  0.00  0.00    +0.000 S 
ATOM     16  S   UNL     1       7.439   4.866  17.790  0.00  0.00    +0.000 SA
ENDBRANCH  13  14
ENDBRANCH   9  13
TORSDOF 2
ENDMDL
MODEL 6
REMARK VINA RESULT:      -5.6      3.522      6.202
REMARK  Name = 
REMARK  4 active torsions:
REMARK  status: ('A' for Active; 'I' for Inactive)
REMARK    1  A    between atoms: C_1  and  C_2
REMARK    2  A    between atoms: C_9  and  C_10
REMARK    3  A    between atoms: C_10  and  C_11
REMARK    4  A    between atoms: N_14  and  C_15
REMARK                            x       y       z     vdW  Elec       q    Type
REMARK                         _______ _______ _______ _____ _____    ______ ____
ROOT
ATOM      1  C   UNL     1       6.749   4.301  12.870  0.00  0.00    +0.000 C 
ATOM      2  C   UNL     1       6.448   4.398  14.337  0.00  0.00    +0.000 A 
ATOM      3  C   UNL     1       7.368   4.936  15.233  0.00  0.00    +0.000 A 
ATOM      4  C   UNL     1       7.068   5.022  16.598  0.00  0.00    +0.000 A 
ATOM      5  C   UNL     1       5.839   4.565  17.116  0.00  0.00    +0.000 A 
ATOM      6  C   UNL     1       4.921   3.991  16.196  0.00  0.00    +0.000 A 
ATOM      7  C   UNL     1       3.720   3.474  16.653  0.00  0.00    +0.000 A 
ATOM      8  C   UNL     1       3.435   3.520  18.004  0.00  0.00    +0.000 A 
ATOM      9  C   UNL     1       4.329   4.114  18.912  0.00  0.00    +0.000 A 
ATOM     10  N   UNL     1       5.496   4.659  18.444  0.00  0.00    +0.000 N 
ATOM     11  C   UNL     1       6.418   5.365  19.368  0.00  0.00    +0.000 C 
ATOM     12  C   UNL     1       5.225   3.933  14.827  0.00  0.00    +0.000 A 
ENDROOT
BRANCH   9  13
ATOM     13  C   UNL     1       3.889   4.189  20.358  0.00  0.00    +0.000 C 
BRANCH  13  14
ATOM     14  C   UNL     1       2.387   4.327  20.646  0.00  0.00    +0.000 C 
ATOM     15  S   UNL     1       1.763   5.883  20.430  0.00  0.00    +0.000 S 
ATOM     16  S   UNL     1       1.531   2.972  21.176  0.00  0.00    +0.000 SA
ENDBRANCH  13  14
ENDBRANCH   9  13
TORSDOF 2
ENDMDL
MODEL 7
REMARK VINA RESULT:      -5.6      2.715      4.063
REMARK  Name = 
REMARK  4 active torsions:
REMARK  status: ('A' for Active; 'I' for Inactive)
REMARK    1  A    between atoms: C_1  and  C_2
REMARK    2  A    between atoms: C_9  and  C_10
REMARK    3  A    between atoms: C_10  and  C_11
REMARK    4  A    between atoms: N_14  and  C_15
REMARK                            x       y       z     vdW  Elec       q    Type
REMARK                         _______ _______ _______ _____ _____    ______ ____
ROOT
ATOM      1  C   UNL     1       0.614  11.389  19.059  0.00  0.00    +0.000 C 
ATOM      2  C   UNL     1       1.239  10.030  18.946  0.00  0.00    +0.000 A 
ATOM      3  C   UNL     1       1.961   9.654  17.816  0.00  0.00    +0.000 A 
ATOM      4  C   UNL     1       2.540   8.382  17.731  0.00  0.00    +0.000 A 
ATOM      5  C   UNL     1       2.410   7.438  18.769  0.00  0.00    +0.000 A 
ATOM      6  C   UNL     1       1.646   7.822  19.902  0.00  0.00    +0.000 A 
ATOM      7  C   UNL     1       1.436   6.918  20.931  0.00  0.00    +0.000 A 
ATOM      8  C   UNL     1       1.972   5.648  20.834  0.00  0.00    +0.000 A 
ATOM      9  C   UNL     1       2.753   5.276  19.727  0.00  0.00    +0.000 A 
ATOM     10  N   UNL     1       2.989   6.191  18.734  0.00  0.00    +0.000 N 
ATOM     11  C   UNL     1       3.877   5.851  17.595  0.00  0.00    +0.000 C 
ATOM     12  C   UNL     1       1.091   9.109  19.986  0.00  0.00    +0.000 A 
ENDROOT
BRANCH   9  13
ATOM     13  C   UNL     1       3.364   3.891  19.752  0.00  0.00    +0.000 C 
BRANCH  13  14
ATOM     14  C   UNL     1       2.614   2.763  19.027  0.00  0.00    +0.000 C 
ATOM     15  S   UNL     1       3.605   1.647  18.234  0.00  0.00    +0.000 S 
ATOM     16  S   UNL     1       0.926   2.762  19.048  0.00  0.00    +0.000 SA
ENDBRANCH  13  14
ENDBRANCH   9  13
TORSDOF 2
ENDMDL
MODEL 8
REMARK VINA RESULT:      -5.6      3.471      6.207
REMARK  Name = 
REMARK  4 active torsions:
REMARK  status: ('A' for Active; 'I' for Inactive)
REMARK    1  A    between atoms: C_1  and  C_2
REMARK    2  A    between atoms: C_9  and  C_10
REMARK    3  A    between atoms: C_10  and  C_11
REMARK    4  A    between atoms: N_14  and  C_15
REMARK                            x       y       z     vdW  Elec       q    Type
REMARK                         _______ _______ _______ _____ _____    ______ ____
ROOT
ATOM      1  C   UNL     1       6.768   4.338  12.871  0.00  0.00    +0.000 C 
ATOM      2  C   UNL     1       6.460   4.423  14.337  0.00  0.00    +0.000 A 
ATOM      3  C   UNL     1       7.390   4.918  15.247  0.00  0.00    +0.000 A 
ATOM      4  C   UNL     1       7.082   4.993  16.611  0.00  0.00    +0.000 A 
ATOM      5  C   UNL     1       5.835   4.568  17.114  0.00  0.00    +0.000 A 
ATOM      6  C   UNL     1       4.907   4.037  16.179  0.00  0.00    +0.000 A 
ATOM      7  C   UNL     1       3.686   3.552  16.620  0.00  0.00    +0.000 A 
ATOM      8  C   UNL     1       3.393   3.586  17.970  0.00  0.00    +0.000 A 
ATOM      9  C   UNL     1       4.299   4.138  18.892  0.00  0.00    +0.000 A 
ATOM     10  N   UNL     1       5.486   4.653  18.441  0.00  0.00    +0.000 N 
ATOM     11  C   UNL     1       6.423   5.315  19.381  0.00  0.00    +0.000 C 
ATOM     12  C   UNL     1       5.219   3.990  14.812  0.00  0.00    +0.000 A 
ENDROOT
BRANCH   9  13
ATOM     13  C   UNL     1       3.852   4.205  20.337  0.00  0.00    +0.000 C 
BRANCH  13  14
ATOM     14  C   UNL     1       2.369   4.494  20.616  0.00  0.00    +0.000 C 
ATOM     15  S   UNL     1       1.460   3.149  21.085  0.00  0.00    +0.000 S 
ATOM     16  S   UNL     1       1.789   6.065  20.396  0.00  0.00    +0.000 SA
ENDBRANCH  13  14
ENDBRANCH   9  13
TORSDOF 2
ENDMDL
MODEL 9
REMARK VINA RESULT:      -5.6      4.651      6.514
REMARK  Name = 
REMARK  4 active torsions:
REMARK  status: ('A' for Active; 'I' for Inactive)
REMARK    1  A    between atoms: C_1  and  C_2
REMARK    2  A    between atoms: C_9  and  C_10
REMARK    3  A    between atoms: C_10  and  C_11
REMARK    4  A    between atoms: N_14  and  C_15
REMARK                            x       y       z     vdW  Elec       q    Type
REMARK                         _______ _______ _______ _____ _____    ______ ____
ROOT
ATOM      1  C   UNL     1       3.857   4.144  18.211  0.00  0.00    +0.000 C 
ATOM      2  C   UNL     1       3.151   5.335  18.788  0.00  0.00    +0.000 A 
ATOM      3  C   UNL     1       2.614   5.310  20.072  0.00  0.00    +0.000 A 
ATOM      4  C   UNL     1       1.963   6.434  20.594  0.00  0.00    +0.000 A 
ATOM      5  C   UNL     1       1.817   7.620  19.847  0.00  0.00    +0.000 A 
ATOM      6  C   UNL     1       2.342   7.622  18.527  0.00  0.00    +0.000 A 
ATOM      7  C   UNL     1       2.181   8.740  17.723  0.00  0.00    +0.000 A 
ATOM      8  C   UNL     1       1.504   9.837  18.219  0.00  0.00    +0.000 A 
ATOM      9  C   UNL     1       1.010   9.847  19.535  0.00  0.00    +0.000 A 
ATOM     10  N   UNL     1       1.210   8.753  20.336  0.00  0.00    +0.000 N 
ATOM     11  C   UNL     1       0.771   8.769  21.753  0.00  0.00    +0.000 C 
ATOM     12  C   UNL     1       3.015   6.498  18.025  0.00  0.00    +0.000 A 
ENDROOT
BRANCH   9  13
ATOM     13  C   UNL     1       0.355  11.126  20.013  0.00  0.00    +0.000 C 
BRANCH  13  14
ATOM     14  C   UNL     1      -0.530  11.893  19.019  0.00  0.00    +0.000 C 
ATOM     15  S   UNL     1       0.068  13.404  18.555  0.00  0.00    +0.000 S 
ATOM     16  S   UNL     1      -1.992  11.205  18.529  0.00  0.00    +0.000 SA
ENDBRANCH  13  14
ENDBRANCH   9  13
TORSDOF 2
ENDMDL
