MODEL 1
REMARK VINA RESULT:      -8.2      0.000      0.000
REMARK  Name = 
REMARK  10 active torsions:
REMARK  status: ('A' for Active; 'I' for Inactive)
REMARK    1  A    between atoms: C_1  and  C_2
REMARK    2  A    between atoms: C_2  and  O_3
REMARK    3  A    between atoms: O_3  and  C_4
REMARK    4  A    between atoms: C_6  and  S_7
REMARK    5  A    between atoms: S_7  and  N_10
REMARK    6  A    between atoms: C_13  and  C_14
REMARK    7  A    between atoms: C_23  and  O_24
REMARK    8  A    between atoms: O_24  and  C_25
REMARK    9  A    between atoms: C_25  and  C_26
REMARK   10  A    between atoms: C_28  and  N_29
REMARK                            x       y       z     vdW  Elec       q    Type
REMARK                         _______ _______ _______ _____ _____    ______ ____
ROOT
ATOM      1  C   UNL     1      -2.670  10.745  17.516  0.00  0.00    +0.000 A 
ATOM      2  C   UNL     1      -1.305  10.669  17.859  0.00  0.00    +0.000 A 
ATOM      3  C   UNL     1      -0.781  11.304  18.999  0.00  0.00    +0.000 A 
ATOM      4  C   UNL     1      -1.621  12.064  19.809  0.00  0.00    +0.000 A 
ATOM      5  C   UNL     1      -2.966  12.185  19.439  0.00  0.00    +0.000 A 
ATOM      6  C   UNL     1      -3.520  11.494  18.341  0.00  0.00    +0.000 A 
ENDROOT
BRANCH   6   7
ATOM      7  N   UNL     1      -4.935  11.576  18.186  0.00  0.00    +0.000 N 
ATOM      8  C   UNL     1      -5.964  10.838  18.713  0.00  0.00    +0.000 A 
ATOM      9  N   UNL     1      -7.116  11.336  18.318  0.00  0.00    +0.000 NA
ATOM     10  N   UNL     1      -6.809  12.408  17.526  0.00  0.00    +0.000 NA
ATOM     11  N   UNL     1      -5.498  12.563  17.434  0.00  0.00    +0.000 NA
ENDBRANCH   6   7
BRANCH   3  12
ATOM     12  S   UNL     1       0.891  10.865  19.457  0.00  0.00    +0.000 S 
ATOM     13  O   UNL     1       1.832  11.417  18.506  0.00  0.00    +0.000 OA
ATOM     14  O   UNL     1       1.028  11.194  20.864  0.00  0.00    +0.000 OA
BRANCH  12  15
ATOM     15  N   UNL     1       0.968   9.136  19.343  0.00  0.00    +0.000 NA
ATOM     16  C   UNL     1       1.885   8.679  18.269  0.00  0.00    +0.000 C 
ATOM     17  C   UNL     1       2.469   7.312  18.489  0.00  0.00    +0.000 C 
ATOM     18  C   UNL     1       2.313   6.539  19.574  0.00  0.00    +0.000 C 
ATOM     19  C   UNL     1       1.415   7.022  20.679  0.00  0.00    +0.000 C 
ATOM     20  C   UNL     1       1.247   8.544  20.694  0.00  0.00    +0.000 C 
BRANCH  18  21
ATOM     21  C   UNL     1       2.998   5.225  19.708  0.00  0.00    +0.000 A 
ATOM     22  C   UNL     1       4.246   4.992  19.095  0.00  0.00    +0.000 A 
ATOM     23  C   UNL     1       4.906   3.770  19.234  0.00  0.00    +0.000 A 
ATOM     24  C   UNL     1       4.333   2.763  19.997  0.00  0.00    +0.000 A 
ATOM     25  F   UNL     1       4.965   1.587  20.133  0.00  0.00    +0.000 F 
ATOM     26  C   UNL     1       3.110   2.960  20.623  0.00  0.00    +0.000 A 
ATOM     27  C   UNL     1       2.446   4.187  20.479  0.00  0.00    +0.000 A 
ENDBRANCH  18  21
ENDBRANCH  12  15
ENDBRANCH   3  12
BRANCH   1  28
ATOM     28  O   UNL     1      -3.189  10.099  16.423  0.00  0.00    +0.000 OA
BRANCH  28  30
ATOM     29  C   UNL     1      -3.045   9.880  14.022  0.00  0.00    +0.000 C 
ATOM     30  C   UNL     1      -3.204  10.832  15.189  0.00  0.00    +0.000 C 
ENDBRANCH  28  30
ENDBRANCH   1  28
BRANCH   4  31
ATOM     31  O   UNL     1      -1.122  12.675  20.926  0.00  0.00    +0.000 OA
BRANCH  31  32
ATOM     32  C   UNL     1      -2.025  12.782  22.035  0.00  0.00    +0.000 C 
ATOM     33  C   UNL     1      -1.689  11.716  23.056  0.00  0.00    +0.000 C 
ENDBRANCH  31  32
ENDBRANCH   4  31
TORSDOF 8
ENDMDL
MODEL 2
REMARK VINA RESULT:      -8.1      1.700      2.174
REMARK  Name = 
REMARK  10 active torsions:
REMARK  status: ('A' for Active; 'I' for Inactive)
REMARK    1  A    between atoms: C_1  and  C_2
REMARK    2  A    between atoms: C_2  and  O_3
REMARK    3  A    between atoms: O_3  and  C_4
REMARK    4  A    between atoms: C_6  and  S_7
REMARK    5  A    between atoms: S_7  and  N_10
REMARK    6  A    between atoms: C_13  and  C_14
REMARK    7  A    between atoms: C_23  and  O_24
REMARK    8  A    between atoms: O_24  and  C_25
REMARK    9  A    between atoms: C_25  and  C_26
REMARK   10  A    between atoms: C_28  and  N_29
REMARK                            x       y       z     vdW  Elec       q    Type
REMARK                         _______ _______ _______ _____ _____    ______ ____
ROOT
ATOM      1  C   UNL     1      -3.131  11.197  18.526  0.00  0.00    +0.000 A 
ATOM      2  C   UNL     1      -1.765  11.051  18.840  0.00  0.00    +0.000 A 
ATOM      3  C   UNL     1      -1.159  11.751  19.898  0.00  0.00    +0.000 A 
ATOM      4  C   UNL     1      -1.914  12.646  20.652  0.00  0.00    +0.000 A 
ATOM      5  C   UNL     1      -3.259  12.833  20.307  0.00  0.00    +0.000 A 
ATOM      6  C   UNL     1      -3.897  12.083  19.296  0.00  0.00    +0.000 A 
ENDROOT
BRANCH   6   7
ATOM      7  N   UNL     1      -5.307  12.257  19.171  0.00  0.00    +0.000 N 
ATOM      8  C   UNL     1      -6.067  13.108  18.410  0.00  0.00    +0.000 A 
ATOM      9  N   UNL     1      -7.344  12.850  18.595  0.00  0.00    +0.000 NA
ATOM     10  N   UNL     1      -7.391  11.817  19.491  0.00  0.00    +0.000 NA
ATOM     11  N   UNL     1      -6.172  11.451  19.851  0.00  0.00    +0.000 NA
ENDBRANCH   6   7
BRANCH   3  12
ATOM     12  S   UNL     1       0.491  11.233  20.353  0.00  0.00    +0.000 S 
ATOM     13  O   UNL     1       1.465  12.199  19.894  0.00  0.00    +0.000 OA
ATOM     14  O   UNL     1       0.437  10.894  21.764  0.00  0.00    +0.000 OA
BRANCH  12  15
ATOM     15  N   UNL     1       0.768   9.748  19.499  0.00  0.00    +0.000 NA
ATOM     16  C   UNL     1       1.459   9.961  18.203  0.00  0.00    +0.000 C 
ATOM     17  C   UNL     1       2.254   8.781  17.721  0.00  0.00    +0.000 C 
ATOM     18  C   UNL     1       2.461   7.631  18.379  0.00  0.00    +0.000 C 
ATOM     19  C   UNL     1       1.791   7.433  19.711  0.00  0.00    +0.000 C 
ATOM     20  C   UNL     1       1.431   8.751  20.403  0.00  0.00    +0.000 C 
BRANCH  18  21
ATOM     21  C   UNL     1       3.325   6.553  17.827  0.00  0.00    +0.000 A 
ATOM     22  C   UNL     1       2.949   5.199  17.926  0.00  0.00    +0.000 A 
ATOM     23  C   UNL     1       3.744   4.184  17.392  0.00  0.00    +0.000 A 
ATOM     24  C   UNL     1       4.925   4.507  16.739  0.00  0.00    +0.000 A 
ATOM     25  F   UNL     1       5.691   3.534  16.223  0.00  0.00    +0.000 F 
ATOM     26  C   UNL     1       5.322   5.831  16.614  0.00  0.00    +0.000 A 
ATOM     27  C   UNL     1       4.525   6.850  17.155  0.00  0.00    +0.000 A 
ENDBRANCH  18  21
ENDBRANCH  12  15
ENDBRANCH   3  12
BRANCH   1  28
ATOM     28  O   UNL     1      -3.731  10.490  17.516  0.00  0.00    +0.000 OA
BRANCH  28  30
ATOM     29  C   UNL     1      -2.870  10.237  15.274  0.00  0.00    +0.000 C 
ATOM     30  C   UNL     1      -3.704  11.086  16.210  0.00  0.00    +0.000 C 
ENDBRANCH  28  30
ENDBRANCH   1  28
BRANCH   4  31
ATOM     31  O   UNL     1      -1.335  13.322  21.690  0.00  0.00    +0.000 OA
BRANCH  31  32
ATOM     32  C   UNL     1      -2.002  13.212  22.956  0.00  0.00    +0.000 C 
ATOM     33  C   UNL     1      -1.482  14.285  23.887  0.00  0.00    +0.000 C 
ENDBRANCH  31  32
ENDBRANCH   4  31
TORSDOF 8
ENDMDL
MODEL 3
REMARK VINA RESULT:      -8.1      1.609      1.870
REMARK  Name = 
REMARK  10 active torsions:
REMARK  status: ('A' for Active; 'I' for Inactive)
REMARK    1  A    between atoms: C_1  and  C_2
REMARK    2  A    between atoms: C_2  and  O_3
REMARK    3  A    between atoms: O_3  and  C_4
REMARK    4  A    between atoms: C_6  and  S_7
REMARK    5  A    between atoms: S_7  and  N_10
REMARK    6  A    between atoms: C_13  and  C_14
REMARK    7  A    between atoms: C_23  and  O_24
REMARK    8  A    between atoms: O_24  and  C_25
REMARK    9  A    between atoms: C_25  and  C_26
REMARK   10  A    between atoms: C_28  and  N_29
REMARK                            x       y       z     vdW  Elec       q    Type
REMARK                         _______ _______ _______ _____ _____    ______ ____
ROOT
ATOM      1  C   UNL     1      -3.055  10.582  18.177  0.00  0.00    +0.000 A 
ATOM      2  C   UNL     1      -1.727  10.417  18.619  0.00  0.00    +0.000 A 
ATOM      3  C   UNL     1      -1.130  11.287  19.548  0.00  0.00    +0.000 A 
ATOM      4  C   UNL     1      -1.854  12.372  20.036  0.00  0.00    +0.000 A 
ATOM      5  C   UNL     1      -3.155  12.569  19.557  0.00  0.00    +0.000 A 
ATOM      6  C   UNL     1      -3.791  11.664  18.682  0.00  0.00    +0.000 A 
ENDROOT
BRANCH   6   7
ATOM      7  N   UNL     1      -5.171  11.900  18.415  0.00  0.00    +0.000 N 
ATOM      8  C   UNL     1      -6.312  11.574  19.104  0.00  0.00    +0.000 A 
ATOM      9  N   UNL     1      -7.363  12.063  18.481  0.00  0.00    +0.000 NA
ATOM     10  N   UNL     1      -6.876  12.709  17.378  0.00  0.00    +0.000 NA
ATOM     11  N   UNL     1      -5.558  12.616  17.322  0.00  0.00    +0.000 NA
ENDBRANCH   6   7
BRANCH   3  12
ATOM     12  S   UNL     1       0.441  10.770  20.228  0.00  0.00    +0.000 S 
ATOM     13  O   UNL     1       1.454  11.771  19.966  0.00  0.00    +0.000 OA
ATOM     14  O   UNL     1       0.180  10.365  21.597  0.00  0.00    +0.000 OA
BRANCH  12  15
ATOM     15  N   UNL     1       0.876   9.331  19.361  0.00  0.00    +0.000 NA
ATOM     16  C   UNL     1       1.570   9.627  18.083  0.00  0.00    +0.000 C 
ATOM     17  C   UNL     1       2.483   8.535  17.604  0.00  0.00    +0.000 C 
ATOM     18  C   UNL     1       2.785   7.401  18.252  0.00  0.00    +0.000 C 
ATOM     19  C   UNL     1       2.111   7.121  19.566  0.00  0.00    +0.000 C 
ATOM     20  C   UNL     1       1.613   8.389  20.266  0.00  0.00    +0.000 C 
BRANCH  18  21
ATOM     21  C   UNL     1       3.760   6.419  17.705  0.00  0.00    +0.000 A 
ATOM     22  C   UNL     1       5.006   6.839  17.197  0.00  0.00    +0.000 A 
ATOM     23  C   UNL     1       5.935   5.923  16.703  0.00  0.00    +0.000 A 
ATOM     24  C   UNL     1       5.637   4.567  16.716  0.00  0.00    +0.000 A 
ATOM     25  F   UNL     1       6.529   3.683  16.242  0.00  0.00    +0.000 F 
ATOM     26  C   UNL     1       4.424   4.116  17.218  0.00  0.00    +0.000 A 
ATOM     27  C   UNL     1       3.490   5.039  17.710  0.00  0.00    +0.000 A 
ENDBRANCH  18  21
ENDBRANCH  12  15
ENDBRANCH   3  12
BRANCH   1  28
ATOM     28  O   UNL     1      -3.648   9.715  17.296  0.00  0.00    +0.000 OA
BRANCH  28  30
ATOM     29  C   UNL     1      -2.997  10.889  15.289  0.00  0.00    +0.000 C 
ATOM     30  C   UNL     1      -3.013   9.562  16.019  0.00  0.00    +0.000 C 
ENDBRANCH  28  30
ENDBRANCH   1  28
BRANCH   4  31
ATOM     31  O   UNL     1      -1.285  13.217  20.949  0.00  0.00    +0.000 OA
BRANCH  31  32
ATOM     32  C   UNL     1      -2.126  13.610  22.043  0.00  0.00    +0.000 C 
ATOM     33  C   UNL     1      -1.358  13.464  23.339  0.00  0.00    +0.000 C 
ENDBRANCH  31  32
ENDBRANCH   4  31
TORSDOF 8
ENDMDL
MODEL 4
REMARK VINA RESULT:      -7.9      1.728      2.116
REMARK  Name = 
REMARK  10 active torsions:
REMARK  status: ('A' for Active; 'I' for Inactive)
REMARK    1  A    between atoms: C_1  and  C_2
REMARK    2  A    between atoms: C_2  and  O_3
REMARK    3  A    between atoms: O_3  and  C_4
REMARK    4  A    between atoms: C_6  and  S_7
REMARK    5  A    between atoms: S_7  and  N_10
REMARK    6  A    between atoms: C_13  and  C_14
REMARK    7  A    between atoms: C_23  and  O_24
REMARK    8  A    between atoms: O_24  and  C_25
REMARK    9  A    between atoms: C_25  and  C_26
REMARK   10  A    between atoms: C_28  and  N_29
REMARK                            x       y       z     vdW  Elec       q    Type
REMARK                         _______ _______ _______ _____ _____    ______ ____
ROOT
ATOM      1  C   UNL     1      -3.139  11.174  18.483  0.00  0.00    +0.000 A 
ATOM      2  C   UNL     1      -1.778  11.028  18.818  0.00  0.00    +0.000 A 
ATOM      3  C   UNL     1      -1.187  11.728  19.884  0.00  0.00    +0.000 A 
ATOM      4  C   UNL     1      -1.954  12.623  20.626  0.00  0.00    +0.000 A 
ATOM      5  C   UNL     1      -3.293  12.810  20.262  0.00  0.00    +0.000 A 
ATOM      6  C   UNL     1      -3.916  12.061  19.242  0.00  0.00    +0.000 A 
ENDROOT
BRANCH   6   7
ATOM      7  N   UNL     1      -5.324  12.234  19.095  0.00  0.00    +0.000 N 
ATOM      8  C   UNL     1      -6.073  13.060  18.296  0.00  0.00    +0.000 A 
ATOM      9  N   UNL     1      -7.353  12.814  18.477  0.00  0.00    +0.000 NA
ATOM     10  N   UNL     1      -7.413  11.814  19.408  0.00  0.00    +0.000 NA
ATOM     11  N   UNL     1      -6.199  11.457  19.794  0.00  0.00    +0.000 NA
ENDBRANCH   6   7
BRANCH   3  12
ATOM     12  S   UNL     1       0.455  11.209  20.364  0.00  0.00    +0.000 S 
ATOM     13  O   UNL     1       1.435  12.183  19.932  0.00  0.00    +0.000 OA
ATOM     14  O   UNL     1       0.377  10.857  21.771  0.00  0.00    +0.000 OA
BRANCH  12  15
ATOM     15  N   UNL     1       0.751   9.734  19.501  0.00  0.00    +0.000 NA
ATOM     16  C   UNL     1       1.435   9.964  18.204  0.00  0.00    +0.000 C 
ATOM     17  C   UNL     1       2.246   8.798  17.713  0.00  0.00    +0.000 C 
ATOM     18  C   UNL     1       2.472   7.648  18.364  0.00  0.00    +0.000 C 
ATOM     19  C   UNL     1       1.810   7.433  19.697  0.00  0.00    +0.000 C 
ATOM     20  C   UNL     1       1.433   8.742  20.397  0.00  0.00    +0.000 C 
BRANCH  18  21
ATOM     21  C   UNL     1       3.351   6.587  17.803  0.00  0.00    +0.000 A 
ATOM     22  C   UNL     1       4.544   6.915  17.129  0.00  0.00    +0.000 A 
ATOM     23  C   UNL     1       5.385   5.925  16.619  0.00  0.00    +0.000 A 
ATOM     24  C   UNL     1       5.053   4.588  16.784  0.00  0.00    +0.000 A 
ATOM     25  F   UNL     1       5.859   3.634  16.295  0.00  0.00    +0.000 F 
ATOM     26  C   UNL     1       3.890   4.228  17.452  0.00  0.00    +0.000 A 
ATOM     27  C   UNL     1       3.044   5.223  17.959  0.00  0.00    +0.000 A 
ENDBRANCH  18  21
ENDBRANCH  12  15
ENDBRANCH   3  12
BRANCH   1  28
ATOM     28  O   UNL     1      -3.725  10.467  17.464  0.00  0.00    +0.000 OA
BRANCH  28  30
ATOM     29  C   UNL     1      -2.889  10.192  15.215  0.00  0.00    +0.000 C 
ATOM     30  C   UNL     1      -3.686  11.066  16.161  0.00  0.00    +0.000 C 
ENDBRANCH  28  30
ENDBRANCH   1  28
BRANCH   4  31
ATOM     31  O   UNL     1      -1.390  13.299  21.674  0.00  0.00    +0.000 OA
BRANCH  31  32
ATOM     32  C   UNL     1      -2.041  14.521  22.050  0.00  0.00    +0.000 C 
ATOM     33  C   UNL     1      -1.217  15.694  21.566  0.00  0.00    +0.000 C 
ENDBRANCH  31  32
ENDBRANCH   4  31
TORSDOF 8
ENDMDL
MODEL 5
REMARK VINA RESULT:      -7.6      0.974      1.332
REMARK  Name = 
REMARK  10 active torsions:
REMARK  status: ('A' for Active; 'I' for Inactive)
REMARK    1  A    between atoms: C_1  and  C_2
REMARK    2  A    between atoms: C_2  and  O_3
REMARK    3  A    between atoms: O_3  and  C_4
REMARK    4  A    between atoms: C_6  and  S_7
REMARK    5  A    between atoms: S_7  and  N_10
REMARK    6  A    between atoms: C_13  and  C_14
REMARK    7  A    between atoms: C_23  and  O_24
REMARK    8  A    between atoms: O_24  and  C_25
REMARK    9  A    between atoms: C_25  and  C_26
REMARK   10  A    between atoms: C_28  and  N_29
REMARK                            x       y       z     vdW  Elec       q    Type
REMARK                         _______ _______ _______ _____ _____    ______ ____
ROOT
ATOM      1  C   UNL     1      -2.871  11.660  18.192  0.00  0.00    +0.000 A 
ATOM      2  C   UNL     1      -1.480  11.557  18.392  0.00  0.00    +0.000 A 
ATOM      3  C   UNL     1      -0.869  11.898  19.611  0.00  0.00    +0.000 A 
ATOM      4  C   UNL     1      -1.648  12.384  20.658  0.00  0.00    +0.000 A 
ATOM      5  C   UNL     1      -3.024  12.538  20.444  0.00  0.00    +0.000 A 
ATOM      6  C   UNL     1      -3.659  12.131  19.251  0.00  0.00    +0.000 A 
ENDROOT
BRANCH   6   7
ATOM      7  N   UNL     1      -5.084  12.188  19.239  0.00  0.00    +0.000 N 
ATOM      8  C   UNL     1      -6.045  11.210  19.226  0.00  0.00    +0.000 A 
ATOM      9  N   UNL     1      -7.240  11.760  19.277  0.00  0.00    +0.000 NA
ATOM     10  N   UNL     1      -7.028  13.111  19.323  0.00  0.00    +0.000 NA
ATOM     11  N   UNL     1      -5.734  13.385  19.296  0.00  0.00    +0.000 NA
ENDBRANCH   6   7
BRANCH   3  12
ATOM     12  S   UNL     1       0.846  11.429  19.801  0.00  0.00    +0.000 S 
ATOM     13  O   UNL     1       1.645  12.011  18.744  0.00  0.00    +0.000 OA
ATOM     14  O   UNL     1       1.193  11.700  21.185  0.00  0.00    +0.000 OA
BRANCH  12  15
ATOM     15  N   UNL     1       0.884   9.705  19.611  0.00  0.00    +0.000 NA
ATOM     16  C   UNL     1       1.731   9.279  18.470  0.00  0.00    +0.000 C 
ATOM     17  C   UNL     1       2.300   7.895  18.600  0.00  0.00    +0.000 C 
ATOM     18  C   UNL     1       2.189   7.078  19.658  0.00  0.00    +0.000 C 
ATOM     19  C   UNL     1       1.363   7.529  20.831  0.00  0.00    +0.000 C 
ATOM     20  C   UNL     1       1.225   9.051  20.918  0.00  0.00    +0.000 C 
BRANCH  18  21
ATOM     21  C   UNL     1       2.855   5.749  19.698  0.00  0.00    +0.000 A 
ATOM     22  C   UNL     1       2.248   4.653  20.346  0.00  0.00    +0.000 A 
ATOM     23  C   UNL     1       2.856   3.397  20.369  0.00  0.00    +0.000 A 
ATOM     24  C   UNL     1       4.077   3.212  19.735  0.00  0.00    +0.000 A 
ATOM     25  F   UNL     1       4.663   2.005  19.756  0.00  0.00    +0.000 F 
ATOM     26  C   UNL     1       4.698   4.265  19.079  0.00  0.00    +0.000 A 
ATOM     27  C   UNL     1       4.089   5.528  19.061  0.00  0.00    +0.000 A 
ENDBRANCH  18  21
ENDBRANCH  12  15
ENDBRANCH   3  12
BRANCH   1  28
ATOM     28  O   UNL     1      -3.472  11.297  17.014  0.00  0.00    +0.000 OA
BRANCH  28  30
ATOM     29  C   UNL     1      -2.966  10.151  14.950  0.00  0.00    +0.000 C 
ATOM     30  C   UNL     1      -3.082  10.034  16.456  0.00  0.00    +0.000 C 
ENDBRANCH  28  30
ENDBRANCH   1  28
BRANCH   4  31
ATOM     31  O   UNL     1      -1.064  12.706  21.852  0.00  0.00    +0.000 OA
BRANCH  31  32
ATOM     32  C   UNL     1      -1.906  12.599  23.008  0.00  0.00    +0.000 C 
ATOM     33  C   UNL     1      -1.901  13.917  23.752  0.00  0.00    +0.000 C 
ENDBRANCH  31  32
ENDBRANCH   4  31
TORSDOF 8
ENDMDL
MODEL 6
REMARK VINA RESULT:      -7.6      0.963      1.076
REMARK  Name = 
REMARK  10 active torsions:
REMARK  status: ('A' for Active; 'I' for Inactive)
REMARK    1  A    between atoms: C_1  and  C_2
REMARK    2  A    between atoms: C_2  and  O_3
REMARK    3  A    between atoms: O_3  and  C_4
REMARK    4  A    between atoms: C_6  and  S_7
REMARK    5  A    between atoms: S_7  and  N_10
REMARK    6  A    between atoms: C_13  and  C_14
REMARK    7  A    between atoms: C_23  and  O_24
REMARK    8  A    between atoms: O_24  and  C_25
REMARK    9  A    between atoms: C_25  and  C_26
REMARK   10  A    between atoms: C_28  and  N_29
REMARK                            x       y       z     vdW  Elec       q    Type
REMARK                         _______ _______ _______ _____ _____    ______ ____
ROOT
ATOM      1  C   UNL     1      -2.831  11.459  18.115  0.00  0.00    +0.000 A 
ATOM      2  C   UNL     1      -1.455  11.355  18.402  0.00  0.00    +0.000 A 
ATOM      3  C   UNL     1      -0.906  11.796  19.619  0.00  0.00    +0.000 A 
ATOM      4  C   UNL     1      -1.733  12.387  20.571  0.00  0.00    +0.000 A 
ATOM      5  C   UNL     1      -3.092  12.539  20.266  0.00  0.00    +0.000 A 
ATOM      6  C   UNL     1      -3.668  12.035  19.081  0.00  0.00    +0.000 A 
ENDROOT
BRANCH   6   7
ATOM      7  N   UNL     1      -5.088  12.110  18.982  0.00  0.00    +0.000 N 
ATOM      8  C   UNL     1      -5.950  13.172  18.884  0.00  0.00    +0.000 A 
ATOM      9  N   UNL     1      -7.184  12.733  18.758  0.00  0.00    +0.000 NA
ATOM     10  N   UNL     1      -7.100  11.369  18.777  0.00  0.00    +0.000 NA
ATOM     11  N   UNL     1      -5.844  10.978  18.916  0.00  0.00    +0.000 NA
ENDBRANCH   6   7
BRANCH   3  12
ATOM     12  S   UNL     1       0.786  11.323  19.947  0.00  0.00    +0.000 S 
ATOM     13  O   UNL     1       1.674  11.933  18.981  0.00  0.00    +0.000 OA
ATOM     14  O   UNL     1       1.008  11.557  21.363  0.00  0.00    +0.000 OA
BRANCH  12  15
ATOM     15  N   UNL     1       0.845   9.605  19.716  0.00  0.00    +0.000 NA
ATOM     16  C   UNL     1       1.710   9.216  18.574  0.00  0.00    +0.000 C 
ATOM     17  C   UNL     1       2.292   7.835  18.676  0.00  0.00    +0.000 C 
ATOM     18  C   UNL     1       2.178   6.992  19.713  0.00  0.00    +0.000 C 
ATOM     19  C   UNL     1       1.334   7.404  20.887  0.00  0.00    +0.000 C 
ATOM     20  C   UNL     1       1.178   8.923  21.010  0.00  0.00    +0.000 C 
BRANCH  18  21
ATOM     21  C   UNL     1       2.858   5.669  19.728  0.00  0.00    +0.000 A 
ATOM     22  C   UNL     1       4.063   5.464  19.026  0.00  0.00    +0.000 A 
ATOM     23  C   UNL     1       4.718   4.232  19.053  0.00  0.00    +0.000 A 
ATOM     24  C   UNL     1       4.185   3.186  19.793  0.00  0.00    +0.000 A 
ATOM     25  F   UNL     1       4.813   2.000  19.821  0.00  0.00    +0.000 F 
ATOM     26  C   UNL     1       3.006   3.354  20.505  0.00  0.00    +0.000 A 
ATOM     27  C   UNL     1       2.346   4.591  20.473  0.00  0.00    +0.000 A 
ENDBRANCH  18  21
ENDBRANCH  12  15
ENDBRANCH   3  12
BRANCH   1  28
ATOM     28  O   UNL     1      -3.372  10.999  16.942  0.00  0.00    +0.000 OA
BRANCH  28  30
ATOM     29  C   UNL     1      -3.097  10.206  14.678  0.00  0.00    +0.000 C 
ATOM     30  C   UNL     1      -2.491  10.284  16.064  0.00  0.00    +0.000 C 
ENDBRANCH  28  30
ENDBRANCH   1  28
BRANCH   4  31
ATOM     31  O   UNL     1      -1.210  12.807  21.763  0.00  0.00    +0.000 OA
BRANCH  31  32
ATOM     32  C   UNL     1      -1.777  14.009  22.304  0.00  0.00    +0.000 C 
ATOM     33  C   UNL     1      -1.236  14.230  23.700  0.00  0.00    +0.000 C 
ENDBRANCH  31  32
ENDBRANCH   4  31
TORSDOF 8
ENDMDL
MODEL 7
REMARK VINA RESULT:      -7.6      5.565     10.189
REMARK  Name = 
REMARK  10 active torsions:
REMARK  status: ('A' for Active; 'I' for Inactive)
REMARK    1  A    between atoms: C_1  and  C_2
REMARK    2  A    between atoms: C_2  and  O_3
REMARK    3  A    between atoms: O_3  and  C_4
REMARK    4  A    between atoms: C_6  and  S_7
REMARK    5  A    between atoms: S_7  and  N_10
REMARK    6  A    between atoms: C_13  and  C_14
REMARK    7  A    between atoms: C_23  and  O_24
REMARK    8  A    between atoms: O_24  and  C_25
REMARK    9  A    between atoms: C_25  and  C_26
REMARK   10  A    between atoms: C_28  and  N_29
REMARK                            x       y       z     vdW  Elec       q    Type
REMARK                         _______ _______ _______ _____ _____    ______ ____
ROOT
ATOM      1  C   UNL     1       5.514   6.298  16.676  0.00  0.00    +0.000 A 
ATOM      2  C   UNL     1       4.581   6.365  17.730  0.00  0.00    +0.000 A 
ATOM      3  C   UNL     1       3.584   5.391  17.913  0.00  0.00    +0.000 A 
ATOM      4  C   UNL     1       3.482   4.334  17.012  0.00  0.00    +0.000 A 
ATOM      5  C   UNL     1       4.375   4.294  15.934  0.00  0.00    +0.000 A 
ATOM      6  C   UNL     1       5.426   5.223  15.780  0.00  0.00    +0.000 A 
ENDROOT
BRANCH   6   7
ATOM      7  N   UNL     1       6.359   4.961  14.734  0.00  0.00    +0.000 N 
ATOM      8  C   UNL     1       6.276   4.202  13.595  0.00  0.00    +0.000 A 
ATOM      9  N   UNL     1       7.390   4.317  12.903  0.00  0.00    +0.000 NA
ATOM     10  N   UNL     1       8.190   5.162  13.620  0.00  0.00    +0.000 NA
ATOM     11  N   UNL     1       7.585   5.556  14.728  0.00  0.00    +0.000 NA
ENDBRANCH   6   7
BRANCH   3  12
ATOM     12  S   UNL     1       2.680   5.457  19.455  0.00  0.00    +0.000 S 
ATOM     13  O   UNL     1       1.380   4.841  19.300  0.00  0.00    +0.000 OA
ATOM     14  O   UNL     1       3.583   4.962  20.479  0.00  0.00    +0.000 OA
BRANCH  12  15
ATOM     15  N   UNL     1       2.437   7.143  19.784  0.00  0.00    +0.000 NA
ATOM     16  C   UNL     1       2.111   7.918  18.561  0.00  0.00    +0.000 C 
ATOM     17  C   UNL     1       1.318   9.169  18.810  0.00  0.00    +0.000 C 
ATOM     18  C   UNL     1       0.818   9.581  19.984  0.00  0.00    +0.000 C 
ATOM     19  C   UNL     1       1.117   8.772  21.216  0.00  0.00    +0.000 C 
ATOM     20  C   UNL     1       1.458   7.312  20.908  0.00  0.00    +0.000 C 
BRANCH  18  21
ATOM     21  C   UNL     1      -0.013  10.809  20.097  0.00  0.00    +0.000 A 
ATOM     22  C   UNL     1      -0.238  11.638  18.980  0.00  0.00    +0.000 A 
ATOM     23  C   UNL     1      -1.034  12.781  19.072  0.00  0.00    +0.000 A 
ATOM     24  C   UNL     1      -1.629  13.108  20.282  0.00  0.00    +0.000 A 
ATOM     25  F   UNL     1      -2.396  14.205  20.374  0.00  0.00    +0.000 F 
ATOM     26  C   UNL     1      -1.438  12.309  21.401  0.00  0.00    +0.000 A 
ATOM     27  C   UNL     1      -0.634  11.164  21.308  0.00  0.00    +0.000 A 
ENDBRANCH  18  21
ENDBRANCH  12  15
ENDBRANCH   3  12
BRANCH   1  28
ATOM     28  O   UNL     1       6.508   7.229  16.516  0.00  0.00    +0.000 OA
BRANCH  28  30
ATOM     29  C   UNL     1       7.922   8.759  17.737  0.00  0.00    +0.000 C 
ATOM     30  C   UNL     1       7.479   7.321  17.569  0.00  0.00    +0.000 C 
ENDBRANCH  28  30
ENDBRANCH   1  28
BRANCH   4  31
ATOM     31  O   UNL     1       2.523   3.375  17.190  0.00  0.00    +0.000 OA
BRANCH  31  32
ATOM     32  C   UNL     1       2.988   2.110  17.680  0.00  0.00    +0.000 C 
ATOM     33  C   UNL     1       2.172   1.715  18.892  0.00  0.00    +0.000 C 
ENDBRANCH  31  32
ENDBRANCH   4  31
TORSDOF 8
ENDMDL
MODEL 8
REMARK VINA RESULT:      -7.5      2.647      4.720
REMARK  Name = 
REMARK  10 active torsions:
REMARK  status: ('A' for Active; 'I' for Inactive)
REMARK    1  A    between atoms: C_1  and  C_2
REMARK    2  A    between atoms: C_2  and  O_3
REMARK    3  A    between atoms: O_3  and  C_4
REMARK    4  A    between atoms: C_6  and  S_7
REMARK    5  A    between atoms: S_7  and  N_10
REMARK    6  A    between atoms: C_13  and  C_14
REMARK    7  A    between atoms: C_23  and  O_24
REMARK    8  A    between atoms: O_24  and  C_25
REMARK    9  A    between atoms: C_25  and  C_26
REMARK   10  A    between atoms: C_28  and  N_29
REMARK                            x       y       z     vdW  Elec       q    Type
REMARK                         _______ _______ _______ _____ _____    ______ ____
ROOT
ATOM      1  C   UNL     1      -2.235  13.192  22.760  0.00  0.00    +0.000 A 
ATOM      2  C   UNL     1      -1.006  12.792  22.198  0.00  0.00    +0.000 A 
ATOM      3  C   UNL     1      -0.903  12.314  20.879  0.00  0.00    +0.000 A 
ATOM      4  C   UNL     1      -2.052  12.198  20.099  0.00  0.00    +0.000 A 
ATOM      5  C   UNL     1      -3.281  12.545  20.674  0.00  0.00    +0.000 A 
ATOM      6  C   UNL     1      -3.388  13.094  21.969  0.00  0.00    +0.000 A 
ENDROOT
BRANCH   6   7
ATOM      7  N   UNL     1      -4.680  13.559  22.357  0.00  0.00    +0.000 N 
ATOM      8  C   UNL     1      -5.304  14.771  22.212  0.00  0.00    +0.000 A 
ATOM      9  N   UNL     1      -6.530  14.699  22.686  0.00  0.00    +0.000 NA
ATOM     10  N   UNL     1      -6.681  13.418  23.139  0.00  0.00    +0.000 NA
ATOM     11  N   UNL     1      -5.573  12.719  22.952  0.00  0.00    +0.000 NA
ENDBRANCH   6   7
BRANCH   3  12
ATOM     12  S   UNL     1       0.750  12.135  20.224  0.00  0.00    +0.000 S 
ATOM     13  O   UNL     1       0.985  13.112  19.182  0.00  0.00    +0.000 OA
ATOM     14  O   UNL     1       1.641  12.092  21.370  0.00  0.00    +0.000 OA
BRANCH  12  15
ATOM     15  N   UNL     1       0.800  10.559  19.500  0.00  0.00    +0.000 NA
ATOM     16  C   UNL     1       1.481  10.562  18.182  0.00  0.00    +0.000 C 
ATOM     17  C   UNL     1       2.094   9.246  17.796  0.00  0.00    +0.000 C 
ATOM     18  C   UNL     1       2.157   8.139  18.550  0.00  0.00    +0.000 C 
ATOM     19  C   UNL     1       1.500   8.151  19.903  0.00  0.00    +0.000 C 
ATOM     20  C   UNL     1       1.342   9.560  20.480  0.00  0.00    +0.000 C 
BRANCH  18  21
ATOM     21  C   UNL     1       2.852   6.909  18.084  0.00  0.00    +0.000 A 
ATOM     22  C   UNL     1       2.249   5.641  18.216  0.00  0.00    +0.000 A 
ATOM     23  C   UNL     1       2.885   4.485  17.762  0.00  0.00    +0.000 A 
ATOM     24  C   UNL     1       4.131   4.577  17.158  0.00  0.00    +0.000 A 
ATOM     25  F   UNL     1       4.744   3.467  16.719  0.00  0.00    +0.000 F 
ATOM     26  C   UNL     1       4.750   5.810  17.002  0.00  0.00    +0.000 A 
ATOM     27  C   UNL     1       4.112   6.970  17.463  0.00  0.00    +0.000 A 
ENDBRANCH  18  21
ENDBRANCH  12  15
ENDBRANCH   3  12
BRANCH   1  28
ATOM     28  O   UNL     1      -2.331  13.690  24.034  0.00  0.00    +0.000 OA
BRANCH  28  30
ATOM     29  C   UNL     1      -1.866  15.339  25.735  0.00  0.00    +0.000 C 
ATOM     30  C   UNL     1      -1.607  14.897  24.310  0.00  0.00    +0.000 C 
ENDBRANCH  28  30
ENDBRANCH   1  28
BRANCH   4  31
ATOM     31  O   UNL     1      -1.959  11.746  18.812  0.00  0.00    +0.000 OA
BRANCH  31  32
ATOM     32  C   UNL     1      -3.177  11.255  18.234  0.00  0.00    +0.000 C 
ATOM     33  C   UNL     1      -2.940   9.868  17.675  0.00  0.00    +0.000 C 
ENDBRANCH  31  32
ENDBRANCH   4  31
TORSDOF 8
ENDMDL
MODEL 9
REMARK VINA RESULT:      -7.5      3.997      5.297
REMARK  Name = 
REMARK  10 active torsions:
REMARK  status: ('A' for Active; 'I' for Inactive)
REMARK    1  A    between atoms: C_1  and  C_2
REMARK    2  A    between atoms: C_2  and  O_3
REMARK    3  A    between atoms: O_3  and  C_4
REMARK    4  A    between atoms: C_6  and  S_7
REMARK    5  A    between atoms: S_7  and  N_10
REMARK    6  A    between atoms: C_13  and  C_14
REMARK    7  A    between atoms: C_23  and  O_24
REMARK    8  A    between atoms: O_24  and  C_25
REMARK    9  A    between atoms: C_25  and  C_26
REMARK   10  A    between atoms: C_28  and  N_29
REMARK                            x       y       z     vdW  Elec       q    Type
REMARK                         _______ _______ _______ _____ _____    ______ ____
ROOT
ATOM      1  C   UNL     1       1.875  13.544  20.226  0.00  0.00    +0.000 A 
ATOM      2  C   UNL     1       1.510  12.183  20.245  0.00  0.00    +0.000 A 
ATOM      3  C   UNL     1       0.244  11.751  20.680  0.00  0.00    +0.000 A 
ATOM      4  C   UNL     1      -0.680  12.686  21.139  0.00  0.00    +0.000 A 
ATOM      5  C   UNL     1      -0.300  14.034  21.171  0.00  0.00    +0.000 A 
ATOM      6  C   UNL     1       0.938  14.488  20.670  0.00  0.00    +0.000 A 
ENDROOT
BRANCH   6   7
ATOM      7  N   UNL     1       1.120  15.901  20.609  0.00  0.00    +0.000 N 
ATOM      8  C   UNL     1       1.682  16.796  21.482  0.00  0.00    +0.000 A 
ATOM      9  N   UNL     1       1.669  18.002  20.953  0.00  0.00    +0.000 NA
ATOM     10  N   UNL     1       1.088  17.864  19.723  0.00  0.00    +0.000 NA
ATOM     11  N   UNL     1       0.748  16.605  19.502  0.00  0.00    +0.000 NA
ENDBRANCH   6   7
BRANCH   3  12
ATOM     12  S   UNL     1      -0.166  10.040  20.361  0.00  0.00    +0.000 S 
ATOM     13  O   UNL     1      -0.528   9.374  21.593  0.00  0.00    +0.000 OA
ATOM     14  O   UNL     1      -1.105  10.046  19.253  0.00  0.00    +0.000 OA
BRANCH  12  15
ATOM     15  N   UNL     1       1.293   9.312  19.768  0.00  0.00    +0.000 NA
ATOM     16  C   UNL     1       1.596   8.023  20.439  0.00  0.00    +0.000 C 
ATOM     17  C   UNL     1       2.422   7.074  19.618  0.00  0.00    +0.000 C 
ATOM     18  C   UNL     1       2.816   7.246  18.348  0.00  0.00    +0.000 C 
ATOM     19  C   UNL     1       2.473   8.537  17.657  0.00  0.00    +0.000 C 
ATOM     20  C   UNL     1       1.260   9.242  18.269  0.00  0.00    +0.000 C 
BRANCH  18  21
ATOM     21  C   UNL     1       3.579   6.202  17.614  0.00  0.00    +0.000 A 
ATOM     22  C   UNL     1       4.694   6.541  16.820  0.00  0.00    +0.000 A 
ATOM     23  C   UNL     1       5.429   5.565  16.145  0.00  0.00    +0.000 A 
ATOM     24  C   UNL     1       5.068   4.231  16.261  0.00  0.00    +0.000 A 
ATOM     25  F   UNL     1       5.773   3.290  15.614  0.00  0.00    +0.000 F 
ATOM     26  C   UNL     1       3.982   3.858  17.042  0.00  0.00    +0.000 A 
ATOM     27  C   UNL     1       3.242   4.841  17.715  0.00  0.00    +0.000 A 
ENDBRANCH  18  21
ENDBRANCH  12  15
ENDBRANCH   3  12
BRANCH   1  28
ATOM     28  O   UNL     1       3.097  13.970  19.772  0.00  0.00    +0.000 OA
BRANCH  28  30
ATOM     29  C   UNL     1       3.728  15.327  17.877  0.00  0.00    +0.000 C 
ATOM     30  C   UNL     1       3.295  13.955  18.350  0.00  0.00    +0.000 C 
ENDBRANCH  28  30
ENDBRANCH   1  28
BRANCH   4  31
ATOM     31  O   UNL     1      -1.918  12.276  21.552  0.00  0.00    +0.000 OA
BRANCH  31  32
ATOM     32  C   UNL     1      -2.564  13.117  22.518  0.00  0.00    +0.000 C 
ATOM     33  C   UNL     1      -3.213  12.251  23.577  0.00  0.00    +0.000 C 
ENDBRANCH  31  32
ENDBRANCH   4  31
TORSDOF 8
ENDMDL
