MODEL 1
REMARK VINA RESULT:      -6.4      0.000      0.000
REMARK  Name = 
REMARK  9 active torsions:
REMARK  status: ('A' for Active; 'I' for Inactive)
REMARK    1  A    between atoms: C_1  and  C_2
REMARK    2  A    between atoms: C_2  and  C_3
REMARK    3  A    between atoms: C_3  and  C_4
REMARK    4  A    between atoms: C_3  and  C_5
REMARK    5  A    between atoms: C_3  and  C_6
REMARK    6  A    between atoms: C_12  and  N_13
REMARK    7  A    between atoms: C_14  and  C_16
REMARK    8  A    between atoms: C_20  and  C_21
REMARK    9  A    between atoms: C_22  and  C_23
REMARK                            x       y       z     vdW  Elec       q    Type
REMARK                         _______ _______ _______ _____ _____    ______ ____
ROOT
ATOM      1  C   UNL     1       3.195   4.769  18.815  0.00  0.00    +0.000 C 
ATOM      2  C   UNL     1       3.252   4.924  20.363  0.00  0.00    +0.000 C 
ATOM      3  C   UNL     1       2.291   5.964  20.975  0.00  0.00    +0.000 C 
ATOM      4  C   UNL     1       2.070   7.153  20.081  0.00  0.00    +0.000 A 
ATOM      5  C   UNL     1       2.622   7.215  18.821  0.00  0.00    +0.000 A 
ATOM      6  S   UNL     1       2.270   8.660  18.026  0.00  0.00    +0.000 S 
ATOM      7  C   UNL     1       1.276   9.212  19.294  0.00  0.00    +0.000 A 
ATOM      8  C   UNL     1       1.214   8.300  20.346  0.00  0.00    +0.000 A 
ATOM      9  C   UNL     1       3.462   6.161  18.184  0.00  0.00    +0.000 C 
ENDROOT
BRANCH   8  10
ATOM     10  C   UNL     1       0.403   8.440  21.554  0.00  0.00    +0.000 C 
ATOM     11  N   UNL     1       0.964   9.151  22.584  0.00  0.00    +0.000 N 
ATOM     12  O   UNL     1      -0.747   8.031  21.659  0.00  0.00    +0.000 OA
ATOM     13  H   UNL     1       1.648   9.860  22.350  0.00  0.00    +0.000 HD
ATOM     14  H   UNL     1       0.291   9.412  23.297  0.00  0.00    +0.000 HD
ENDBRANCH   8  10
BRANCH   7  15
ATOM     15  N   UNL     1       0.687  10.473  19.206  0.00  0.00    +0.000 N 
ATOM     16  C   UNL     1       0.920  11.541  20.060  0.00  0.00    +0.000 C 
ATOM     17  O   UNL     1       1.748  11.582  20.963  0.00  0.00    +0.000 OA
ATOM     18  H   UNL     1       0.115  10.637  18.385  0.00  0.00    +0.000 HD
BRANCH  16  19
ATOM     19  C   UNL     1       0.166  12.752  19.750  0.00  0.00    +0.000 A 
ATOM     20  C   UNL     1       0.662  13.841  18.966  0.00  0.00    +0.000 A 
ATOM     21  C   UNL     1      -0.331  14.784  18.914  0.00  0.00    +0.000 A 
ATOM     22  O   UNL     1      -1.400  14.373  19.636  0.00  0.00    +0.000 OA
ATOM     23  C   UNL     1      -1.094  13.152  20.168  0.00  0.00    +0.000 A 
ATOM     24  C   UNL     1      -2.120  12.599  21.081  0.00  0.00    +0.000 C 
ENDBRANCH  16  19
ENDBRANCH   7  15
BRANCH   1  25
ATOM     25  C   UNL     1       1.967   3.948  18.235  0.00  0.00    +0.000 C 
ATOM     26  C   UNL     1       1.135   4.825  17.266  0.00  0.00    +0.000 C 
ATOM     27  C   UNL     1       0.973   3.453  19.309  0.00  0.00    +0.000 C 
BRANCH  25  29
ATOM     28  C   UNL     1       3.343   1.714  18.238  0.00  0.00    +0.000 C 
ATOM     29  C   UNL     1       2.457   2.681  17.459  0.00  0.00    +0.000 C 
ENDBRANCH  25  29
ENDBRANCH   1  25
TORSDOF 5
ENDMDL
MODEL 2
REMARK VINA RESULT:      -6.3      1.121      1.121
REMARK  Name = 
REMARK  9 active torsions:
REMARK  status: ('A' for Active; 'I' for Inactive)
REMARK    1  A    between atoms: C_1  and  C_2
REMARK    2  A    between atoms: C_2  and  C_3
REMARK    3  A    between atoms: C_3  and  C_4
REMARK    4  A    between atoms: C_3  and  C_5
REMARK    5  A    between atoms: C_3  and  C_6
REMARK    6  A    between atoms: C_12  and  N_13
REMARK    7  A    between atoms: C_14  and  C_16
REMARK    8  A    between atoms: C_20  and  C_21
REMARK    9  A    between atoms: C_22  and  C_23
REMARK                            x       y       z     vdW  Elec       q    Type
REMARK                         _______ _______ _______ _____ _____    ______ ____
ROOT
ATOM      1  C   UNL     1       3.118   4.451  18.862  0.00  0.00    +0.000 C 
ATOM      2  C   UNL     1       3.218   4.640  20.405  0.00  0.00    +0.000 C 
ATOM      3  C   UNL     1       2.335   5.750  21.009  0.00  0.00    +0.000 C 
ATOM      4  C   UNL     1       2.164   6.928  20.090  0.00  0.00    +0.000 A 
ATOM      5  C   UNL     1       2.691   6.927  18.818  0.00  0.00    +0.000 A 
ATOM      6  S   UNL     1       2.408   8.370  17.994  0.00  0.00    +0.000 S 
ATOM      7  C   UNL     1       1.477   9.011  19.267  0.00  0.00    +0.000 A 
ATOM      8  C   UNL     1       1.384   8.130  20.343  0.00  0.00    +0.000 A 
ATOM      9  C   UNL     1       3.453   5.809  18.191  0.00  0.00    +0.000 C 
ENDROOT
BRANCH   8  10
ATOM     10  C   UNL     1       0.610   8.347  21.564  0.00  0.00    +0.000 C 
ATOM     11  N   UNL     1       1.210   9.103  22.538  0.00  0.00    +0.000 N 
ATOM     12  O   UNL     1      -0.543   7.963  21.722  0.00  0.00    +0.000 OA
ATOM     13  H   UNL     1       1.897   9.787  22.248  0.00  0.00    +0.000 HD
ATOM     14  H   UNL     1       0.561   9.413  23.254  0.00  0.00    +0.000 HD
ENDBRANCH   8  10
BRANCH   7  15
ATOM     15  N   UNL     1       0.962  10.303  19.159  0.00  0.00    +0.000 N 
ATOM     16  C   UNL     1       1.597  11.386  18.570  0.00  0.00    +0.000 C 
ATOM     17  O   UNL     1       2.663  11.362  17.966  0.00  0.00    +0.000 OA
ATOM     18  H   UNL     1      -0.001  10.420  19.456  0.00  0.00    +0.000 HD
BRANCH  16  19
ATOM     19  C   UNL     1       0.839  12.633  18.597  0.00  0.00    +0.000 A 
ATOM     20  C   UNL     1       1.367  13.898  19.007  0.00  0.00    +0.000 A 
ATOM     21  C   UNL     1       0.351  14.810  18.903  0.00  0.00    +0.000 A 
ATOM     22  O   UNL     1      -0.783  14.198  18.485  0.00  0.00    +0.000 OA
ATOM     23  C   UNL     1      -0.500  12.872  18.324  0.00  0.00    +0.000 A 
ATOM     24  C   UNL     1      -1.663  12.028  17.971  0.00  0.00    +0.000 C 
ENDBRANCH  16  19
ENDBRANCH   7  15
BRANCH   1  25
ATOM     25  C   UNL     1       1.831   3.691  18.329  0.00  0.00    +0.000 C 
ATOM     26  C   UNL     1       1.110   4.534  17.247  0.00  0.00    +0.000 C 
ATOM     27  C   UNL     1       0.769   3.407  19.414  0.00  0.00    +0.000 C 
BRANCH  25  29
ATOM     28  C   UNL     1       3.520   1.688  18.193  0.00  0.00    +0.000 C 
ATOM     29  C   UNL     1       2.215   2.309  17.704  0.00  0.00    +0.000 C 
ENDBRANCH  25  29
ENDBRANCH   1  25
TORSDOF 5
ENDMDL
MODEL 3
REMARK VINA RESULT:      -6.3      2.280      7.974
REMARK  Name = 
REMARK  9 active torsions:
REMARK  status: ('A' for Active; 'I' for Inactive)
REMARK    1  A    between atoms: C_1  and  C_2
REMARK    2  A    between atoms: C_2  and  C_3
REMARK    3  A    between atoms: C_3  and  C_4
REMARK    4  A    between atoms: C_3  and  C_5
REMARK    5  A    between atoms: C_3  and  C_6
REMARK    6  A    between atoms: C_12  and  N_13
REMARK    7  A    between atoms: C_14  and  C_16
REMARK    8  A    between atoms: C_20  and  C_21
REMARK    9  A    between atoms: C_22  and  C_23
REMARK                            x       y       z     vdW  Elec       q    Type
REMARK                         _______ _______ _______ _____ _____    ______ ____
ROOT
ATOM      1  C   UNL     1      -1.135  13.525  19.324  0.00  0.00    +0.000 C 
ATOM      2  C   UNL     1      -1.834  13.070  20.639  0.00  0.00    +0.000 C 
ATOM      3  C   UNL     1      -1.096  11.993  21.460  0.00  0.00    +0.000 C 
ATOM      4  C   UNL     1      -0.342  11.015  20.600  0.00  0.00    +0.000 A 
ATOM      5  C   UNL     1      -0.279  11.164  19.232  0.00  0.00    +0.000 A 
ATOM      6  S   UNL     1       0.584   9.926  18.481  0.00  0.00    +0.000 S 
ATOM      7  C   UNL     1       0.999   9.201  19.965  0.00  0.00    +0.000 A 
ATOM      8  C   UNL     1       0.468   9.895  21.052  0.00  0.00    +0.000 A 
ATOM      9  C   UNL     1      -0.901  12.268  18.446  0.00  0.00    +0.000 C 
ENDROOT
BRANCH   8  10
ATOM     10  C   UNL     1       0.687   9.574  22.462  0.00  0.00    +0.000 C 
ATOM     11  N   UNL     1      -0.430   9.260  23.194  0.00  0.00    +0.000 N 
ATOM     12  O   UNL     1       1.793   9.501  22.985  0.00  0.00    +0.000 OA
ATOM     13  H   UNL     1      -1.219   8.860  22.703  0.00  0.00    +0.000 HD
ATOM     14  H   UNL     1      -0.209   8.831  24.087  0.00  0.00    +0.000 HD
ENDBRANCH   8  10
BRANCH   7  15
ATOM     15  N   UNL     1       1.740   8.020  19.971  0.00  0.00    +0.000 N 
ATOM     16  C   UNL     1       2.383   7.458  18.878  0.00  0.00    +0.000 C 
ATOM     17  O   UNL     1       2.486   7.954  17.762  0.00  0.00    +0.000 OA
ATOM     18  H   UNL     1       1.894   7.600  20.881  0.00  0.00    +0.000 HD
BRANCH  16  19
ATOM     19  C   UNL     1       3.087   6.209  19.153  0.00  0.00    +0.000 A 
ATOM     20  C   UNL     1       4.402   5.896  18.687  0.00  0.00    +0.000 A 
ATOM     21  C   UNL     1       4.702   4.640  19.142  0.00  0.00    +0.000 A 
ATOM     22  O   UNL     1       3.654   4.134  19.834  0.00  0.00    +0.000 OA
ATOM     23  C   UNL     1       2.660   5.071  19.822  0.00  0.00    +0.000 A 
ATOM     24  C   UNL     1       1.390   4.637  20.447  0.00  0.00    +0.000 C 
ENDBRANCH  16  19
ENDBRANCH   7  15
BRANCH   1  25
ATOM     25  C   UNL     1       0.092  14.518  19.488  0.00  0.00    +0.000 C 
ATOM     26  C   UNL     1      -0.173  15.841  18.727  0.00  0.00    +0.000 C 
ATOM     27  C   UNL     1       1.425  13.974  18.927  0.00  0.00    +0.000 C 
BRANCH  25  29
ATOM     28  C   UNL     1       1.745  14.570  21.524  0.00  0.00    +0.000 C 
ATOM     29  C   UNL     1       0.343  14.855  20.994  0.00  0.00    +0.000 C 
ENDBRANCH  25  29
ENDBRANCH   1  25
TORSDOF 5
ENDMDL
MODEL 4
REMARK VINA RESULT:      -6.2      2.259      7.940
REMARK  Name = 
REMARK  9 active torsions:
REMARK  status: ('A' for Active; 'I' for Inactive)
REMARK    1  A    between atoms: C_1  and  C_2
REMARK    2  A    between atoms: C_2  and  C_3
REMARK    3  A    between atoms: C_3  and  C_4
REMARK    4  A    between atoms: C_3  and  C_5
REMARK    5  A    between atoms: C_3  and  C_6
REMARK    6  A    between atoms: C_12  and  N_13
REMARK    7  A    between atoms: C_14  and  C_16
REMARK    8  A    between atoms: C_20  and  C_21
REMARK    9  A    between atoms: C_22  and  C_23
REMARK                            x       y       z     vdW  Elec       q    Type
REMARK                         _______ _______ _______ _____ _____    ______ ____
ROOT
ATOM      1  C   UNL     1      -0.832  13.513  19.213  0.00  0.00    +0.000 C 
ATOM      2  C   UNL     1      -1.585  13.106  20.514  0.00  0.00    +0.000 C 
ATOM      3  C   UNL     1      -0.920  12.004  21.364  0.00  0.00    +0.000 C 
ATOM      4  C   UNL     1      -0.194  10.982  20.532  0.00  0.00    +0.000 A 
ATOM      5  C   UNL     1      -0.090  11.113  19.165  0.00  0.00    +0.000 A 
ATOM      6  S   UNL     1       0.731   9.826  18.449  0.00  0.00    +0.000 S 
ATOM      7  C   UNL     1       1.073   9.099  19.950  0.00  0.00    +0.000 A 
ATOM      8  C   UNL     1       0.549   9.828  21.016  0.00  0.00    +0.000 A 
ATOM      9  C   UNL     1      -0.638  12.236  18.353  0.00  0.00    +0.000 C 
ENDROOT
BRANCH   8  10
ATOM     10  C   UNL     1       0.717   9.513  22.434  0.00  0.00    +0.000 C 
ATOM     11  N   UNL     1      -0.425   9.199  23.126  0.00  0.00    +0.000 N 
ATOM     12  O   UNL     1       1.804   9.443  22.997  0.00  0.00    +0.000 OA
ATOM     13  H   UNL     1      -1.195   8.797  22.608  0.00  0.00    +0.000 HD
ATOM     14  H   UNL     1      -0.236   8.774  24.028  0.00  0.00    +0.000 HD
ENDBRANCH   8  10
BRANCH   7  15
ATOM     15  N   UNL     1       1.756   7.883  19.985  0.00  0.00    +0.000 N 
ATOM     16  C   UNL     1       2.466   7.318  18.937  0.00  0.00    +0.000 C 
ATOM     17  O   UNL     1       2.691   7.837  17.849  0.00  0.00    +0.000 OA
ATOM     18  H   UNL     1       1.808   7.433  20.892  0.00  0.00    +0.000 HD
BRANCH  16  19
ATOM     19  C   UNL     1       3.085   6.030  19.236  0.00  0.00    +0.000 A 
ATOM     20  C   UNL     1       4.397   5.641  18.821  0.00  0.00    +0.000 A 
ATOM     21  C   UNL     1       4.604   4.369  19.283  0.00  0.00    +0.000 A 
ATOM     22  O   UNL     1       3.502   3.925  19.933  0.00  0.00    +0.000 OA
ATOM     23  C   UNL     1       2.566   4.919  19.884  0.00  0.00    +0.000 A 
ATOM     24  C   UNL     1       1.250   4.560  20.457  0.00  0.00    +0.000 C 
ENDBRANCH  16  19
ENDBRANCH   7  15
BRANCH   1  25
ATOM     25  C   UNL     1       0.437  14.447  19.398  0.00  0.00    +0.000 C 
ATOM     26  C   UNL     1       0.751  14.647  20.902  0.00  0.00    +0.000 C 
ATOM     27  C   UNL     1       0.268  15.867  18.814  0.00  0.00    +0.000 C 
BRANCH  25  29
ATOM     28  C   UNL     1       2.746  14.811  18.205  0.00  0.00    +0.000 C 
ATOM     29  C   UNL     1       1.696  13.825  18.708  0.00  0.00    +0.000 C 
ENDBRANCH  25  29
ENDBRANCH   1  25
TORSDOF 5
ENDMDL
MODEL 5
REMARK VINA RESULT:      -6.2      2.298      8.004
REMARK  Name = 
REMARK  9 active torsions:
REMARK  status: ('A' for Active; 'I' for Inactive)
REMARK    1  A    between atoms: C_1  and  C_2
REMARK    2  A    between atoms: C_2  and  C_3
REMARK    3  A    between atoms: C_3  and  C_4
REMARK    4  A    between atoms: C_3  and  C_5
REMARK    5  A    between atoms: C_3  and  C_6
REMARK    6  A    between atoms: C_12  and  N_13
REMARK    7  A    between atoms: C_14  and  C_16
REMARK    8  A    between atoms: C_20  and  C_21
REMARK    9  A    between atoms: C_22  and  C_23
REMARK                            x       y       z     vdW  Elec       q    Type
REMARK                         _______ _______ _______ _____ _____    ______ ____
ROOT
ATOM      1  C   UNL     1      -0.445  13.699  19.152  0.00  0.00    +0.000 C 
ATOM      2  C   UNL     1      -1.242  13.430  20.462  0.00  0.00    +0.000 C 
ATOM      3  C   UNL     1      -0.708  12.294  21.358  0.00  0.00    +0.000 C 
ATOM      4  C   UNL     1      -0.099  11.166  20.572  0.00  0.00    +0.000 A 
ATOM      5  C   UNL     1       0.023  11.230  19.202  0.00  0.00    +0.000 A 
ATOM      6  S   UNL     1       0.695   9.833  18.541  0.00  0.00    +0.000 S 
ATOM      7  C   UNL     1       0.949   9.131  20.072  0.00  0.00    +0.000 A 
ATOM      8  C   UNL     1       0.508   9.956  21.106  0.00  0.00    +0.000 A 
ATOM      9  C   UNL     1      -0.394  12.376  18.343  0.00  0.00    +0.000 C 
ENDROOT
BRANCH   8  10
ATOM     10  C   UNL     1       0.636   9.679  22.535  0.00  0.00    +0.000 C 
ATOM     11  N   UNL     1      -0.536   9.507  23.228  0.00  0.00    +0.000 N 
ATOM     12  O   UNL     1       1.707   9.523  23.111  0.00  0.00    +0.000 OA
ATOM     13  H   UNL     1      -1.339   9.164  22.718  0.00  0.00    +0.000 HD
ATOM     14  H   UNL     1      -0.396   9.099  24.147  0.00  0.00    +0.000 HD
ENDBRANCH   8  10
BRANCH   7  15
ATOM     15  N   UNL     1       1.491   7.849  20.159  0.00  0.00    +0.000 N 
ATOM     16  C   UNL     1       2.365   7.271  19.251  0.00  0.00    +0.000 C 
ATOM     17  O   UNL     1       2.878   7.824  18.284  0.00  0.00    +0.000 OA
ATOM     18  H   UNL     1       1.294   7.344  21.016  0.00  0.00    +0.000 HD
BRANCH  16  19
ATOM     19  C   UNL     1       2.778   5.909  19.574  0.00  0.00    +0.000 A 
ATOM     20  C   UNL     1       2.008   4.989  20.354  0.00  0.00    +0.000 A 
ATOM     21  C   UNL     1       2.734   3.832  20.442  0.00  0.00    +0.000 A 
ATOM     22  O   UNL     1       3.917   3.974  19.797  0.00  0.00    +0.000 OA
ATOM     23  C   UNL     1       3.960   5.242  19.291  0.00  0.00    +0.000 A 
ATOM     24  C   UNL     1       5.239   5.607  18.641  0.00  0.00    +0.000 C 
ENDBRANCH  16  19
ENDBRANCH   7  15
BRANCH   1  25
ATOM     25  C   UNL     1       0.921  14.491  19.309  0.00  0.00    +0.000 C 
ATOM     26  C   UNL     1       0.729  15.985  18.946  0.00  0.00    +0.000 C 
ATOM     27  C   UNL     1       2.057  13.981  18.395  0.00  0.00    +0.000 C 
BRANCH  25  29
ATOM     28  C   UNL     1       2.797  13.707  20.967  0.00  0.00    +0.000 C 
ATOM     29  C   UNL     1       1.453  14.403  20.778  0.00  0.00    +0.000 C 
ENDBRANCH  25  29
ENDBRANCH   1  25
TORSDOF 5
ENDMDL
MODEL 6
REMARK VINA RESULT:      -6.2      0.429      1.212
REMARK  Name = 
REMARK  9 active torsions:
REMARK  status: ('A' for Active; 'I' for Inactive)
REMARK    1  A    between atoms: C_1  and  C_2
REMARK    2  A    between atoms: C_2  and  C_3
REMARK    3  A    between atoms: C_3  and  C_4
REMARK    4  A    between atoms: C_3  and  C_5
REMARK    5  A    between atoms: C_3  and  C_6
REMARK    6  A    between atoms: C_12  and  N_13
REMARK    7  A    between atoms: C_14  and  C_16
REMARK    8  A    between atoms: C_20  and  C_21
REMARK    9  A    between atoms: C_22  and  C_23
REMARK                            x       y       z     vdW  Elec       q    Type
REMARK                         _______ _______ _______ _____ _____    ______ ____
ROOT
ATOM      1  C   UNL     1       3.227   4.790  18.615  0.00  0.00    +0.000 C 
ATOM      2  C   UNL     1       3.422   4.936  20.153  0.00  0.00    +0.000 C 
ATOM      3  C   UNL     1       2.498   5.949  20.860  0.00  0.00    +0.000 C 
ATOM      4  C   UNL     1       2.169   7.139  20.000  0.00  0.00    +0.000 A 
ATOM      5  C   UNL     1       2.601   7.222  18.696  0.00  0.00    +0.000 A 
ATOM      6  S   UNL     1       2.145   8.663  17.949  0.00  0.00    +0.000 S 
ATOM      7  C   UNL     1       1.260   9.184  19.307  0.00  0.00    +0.000 A 
ATOM      8  C   UNL     1       1.316   8.263  20.353  0.00  0.00    +0.000 A 
ATOM      9  C   UNL     1       3.403   6.192  17.975  0.00  0.00    +0.000 C 
ENDROOT
BRANCH   8  10
ATOM     10  C   UNL     1       0.616   8.376  21.631  0.00  0.00    +0.000 C 
ATOM     11  N   UNL     1       1.322   8.941  22.663  0.00  0.00    +0.000 N 
ATOM     12  O   UNL     1      -0.559   8.070  21.800  0.00  0.00    +0.000 OA
ATOM     13  H   UNL     1       2.054   9.600  22.428  0.00  0.00    +0.000 HD
ATOM     14  H   UNL     1       0.734   9.203  23.448  0.00  0.00    +0.000 HD
ENDBRANCH   8  10
BRANCH   7  15
ATOM     15  N   UNL     1       0.637  10.432  19.285  0.00  0.00    +0.000 N 
ATOM     16  C   UNL     1       0.868  11.473  20.172  0.00  0.00    +0.000 C 
ATOM     17  O   UNL     1       1.720  11.501  21.052  0.00  0.00    +0.000 OA
ATOM     18  H   UNL     1       0.037  10.611  18.487  0.00  0.00    +0.000 HD
BRANCH  16  19
ATOM     19  C   UNL     1       0.075  12.674  19.931  0.00  0.00    +0.000 A 
ATOM     20  C   UNL     1      -1.309  12.817  20.264  0.00  0.00    +0.000 A 
ATOM     21  C   UNL     1      -1.689  14.072  19.873  0.00  0.00    +0.000 A 
ATOM     22  O   UNL     1      -0.648  14.714  19.292  0.00  0.00    +0.000 OA
ATOM     23  C   UNL     1       0.419  13.860  19.300  0.00  0.00    +0.000 A 
ATOM     24  C   UNL     1       1.622  14.364  18.601  0.00  0.00    +0.000 C 
ENDBRANCH  16  19
ENDBRANCH   7  15
BRANCH   1  25
ATOM     25  C   UNL     1       1.969   3.944  18.143  0.00  0.00    +0.000 C 
ATOM     26  C   UNL     1       1.091   4.772  17.172  0.00  0.00    +0.000 C 
ATOM     27  C   UNL     1       1.031   3.513  19.291  0.00  0.00    +0.000 C 
BRANCH  25  29
ATOM     28  C   UNL     1       3.400   1.745  18.167  0.00  0.00    +0.000 C 
ATOM     29  C   UNL     1       2.417   2.636  17.413  0.00  0.00    +0.000 C 
ENDBRANCH  25  29
ENDBRANCH   1  25
TORSDOF 5
ENDMDL
MODEL 7
REMARK VINA RESULT:      -6.1      2.363      8.162
REMARK  Name = 
REMARK  9 active torsions:
REMARK  status: ('A' for Active; 'I' for Inactive)
REMARK    1  A    between atoms: C_1  and  C_2
REMARK    2  A    between atoms: C_2  and  C_3
REMARK    3  A    between atoms: C_3  and  C_4
REMARK    4  A    between atoms: C_3  and  C_5
REMARK    5  A    between atoms: C_3  and  C_6
REMARK    6  A    between atoms: C_12  and  N_13
REMARK    7  A    between atoms: C_14  and  C_16
REMARK    8  A    between atoms: C_20  and  C_21
REMARK    9  A    between atoms: C_22  and  C_23
REMARK                            x       y       z     vdW  Elec       q    Type
REMARK                         _______ _______ _______ _____ _____    ______ ____
ROOT
ATOM      1  C   UNL     1       0.445  13.718  19.303  0.00  0.00    +0.000 C 
ATOM      2  C   UNL     1      -0.527  13.563  20.509  0.00  0.00    +0.000 C 
ATOM      3  C   UNL     1      -0.260  12.365  21.444  0.00  0.00    +0.000 C 
ATOM      4  C   UNL     1       0.277  11.163  20.716  0.00  0.00    +0.000 A 
ATOM      5  C   UNL     1       0.564  11.209  19.370  0.00  0.00    +0.000 A 
ATOM      6  S   UNL     1       1.112   9.732  18.770  0.00  0.00    +0.000 S 
ATOM      7  C   UNL     1       1.089   9.003  20.309  0.00  0.00    +0.000 A 
ATOM      8  C   UNL     1       0.648   9.882  21.298  0.00  0.00    +0.000 A 
ATOM      9  C   UNL     1       0.410  12.400  18.486  0.00  0.00    +0.000 C 
ENDROOT
BRANCH   8  10
ATOM     10  C   UNL     1       0.571   9.592  22.728  0.00  0.00    +0.000 C 
ATOM     11  N   UNL     1      -0.681   9.348  23.232  0.00  0.00    +0.000 N 
ATOM     12  O   UNL     1       1.548   9.484  23.460  0.00  0.00    +0.000 OA
ATOM     13  H   UNL     1      -1.378   8.971  22.603  0.00  0.00    +0.000 HD
ATOM     14  H   UNL     1      -0.661   8.935  24.159  0.00  0.00    +0.000 HD
ENDBRANCH   8  10
BRANCH   7  15
ATOM     15  N   UNL     1       1.438   7.659  20.438  0.00  0.00    +0.000 N 
ATOM     16  C   UNL     1       2.270   6.948  19.587  0.00  0.00    +0.000 C 
ATOM     17  O   UNL     1       2.908   7.407  18.646  0.00  0.00    +0.000 OA
ATOM     18  H   UNL     1       1.125   7.202  21.288  0.00  0.00    +0.000 HD
BRANCH  16  19
ATOM     19  C   UNL     1       2.467   5.547  19.946  0.00  0.00    +0.000 A 
ATOM     20  C   UNL     1       1.523   4.753  20.669  0.00  0.00    +0.000 A 
ATOM     21  C   UNL     1       2.074   3.508  20.816  0.00  0.00    +0.000 A 
ATOM     22  O   UNL     1       3.309   3.478  20.261  0.00  0.00    +0.000 OA
ATOM     23  C   UNL     1       3.564   4.721  19.755  0.00  0.00    +0.000 A 
ATOM     24  C   UNL     1       4.926   4.898  19.202  0.00  0.00    +0.000 C 
ENDBRANCH  16  19
ENDBRANCH   7  15
BRANCH   1  25
ATOM     25  C   UNL     1       1.879  14.316  19.628  0.00  0.00    +0.000 C 
ATOM     26  C   UNL     1       2.928  13.796  18.614  0.00  0.00    +0.000 C 
ATOM     27  C   UNL     1       2.422  13.935  21.023  0.00  0.00    +0.000 C 
BRANCH  25  29
ATOM     28  C   UNL     1       3.214  16.562  19.385  0.00  0.00    +0.000 C 
ATOM     29  C   UNL     1       1.862  15.879  19.565  0.00  0.00    +0.000 C 
ENDBRANCH  25  29
ENDBRANCH   1  25
TORSDOF 5
ENDMDL
MODEL 8
REMARK VINA RESULT:      -6.1      3.623      4.775
REMARK  Name = 
REMARK  9 active torsions:
REMARK  status: ('A' for Active; 'I' for Inactive)
REMARK    1  A    between atoms: C_1  and  C_2
REMARK    2  A    between atoms: C_2  and  C_3
REMARK    3  A    between atoms: C_3  and  C_4
REMARK    4  A    between atoms: C_3  and  C_5
REMARK    5  A    between atoms: C_3  and  C_6
REMARK    6  A    between atoms: C_12  and  N_13
REMARK    7  A    between atoms: C_14  and  C_16
REMARK    8  A    between atoms: C_20  and  C_21
REMARK    9  A    between atoms: C_22  and  C_23
REMARK                            x       y       z     vdW  Elec       q    Type
REMARK                         _______ _______ _______ _____ _____    ______ ____
ROOT
ATOM      1  C   UNL     1       6.658   4.497  15.867  0.00  0.00    +0.000 C 
ATOM      2  C   UNL     1       5.977   3.283  16.564  0.00  0.00    +0.000 C 
ATOM      3  C   UNL     1       4.522   3.497  17.027  0.00  0.00    +0.000 C 
ATOM      4  C   UNL     1       4.252   4.906  17.479  0.00  0.00    +0.000 A 
ATOM      5  C   UNL     1       5.216   5.886  17.386  0.00  0.00    +0.000 A 
ATOM      6  S   UNL     1       4.697   7.370  17.992  0.00  0.00    +0.000 S 
ATOM      7  C   UNL     1       3.128   6.789  18.303  0.00  0.00    +0.000 A 
ATOM      8  C   UNL     1       2.989   5.446  17.957  0.00  0.00    +0.000 A 
ATOM      9  C   UNL     1       6.591   5.706  16.837  0.00  0.00    +0.000 C 
ENDROOT
BRANCH   8  10
ATOM     10  C   UNL     1       1.757   4.663  18.039  0.00  0.00    +0.000 C 
ATOM     11  N   UNL     1       1.412   4.200  19.284  0.00  0.00    +0.000 N 
ATOM     12  O   UNL     1       1.001   4.473  17.093  0.00  0.00    +0.000 OA
ATOM     13  H   UNL     1       1.730   4.726  20.087  0.00  0.00    +0.000 HD
ATOM     14  H   UNL     1       0.455   3.867  19.331  0.00  0.00    +0.000 HD
ENDBRANCH   8  10
BRANCH   7  15
ATOM     15  N   UNL     1       2.185   7.633  18.890  0.00  0.00    +0.000 N 
ATOM     16  C   UNL     1       1.760   8.854  18.387  0.00  0.00    +0.000 C 
ATOM     17  O   UNL     1       2.066   9.338  17.303  0.00  0.00    +0.000 OA
ATOM     18  H   UNL     1       1.710   7.264  19.706  0.00  0.00    +0.000 HD
BRANCH  16  19
ATOM     19  C   UNL     1       0.767   9.544  19.204  0.00  0.00    +0.000 A 
ATOM     20  C   UNL     1       0.870   9.741  20.617  0.00  0.00    +0.000 A 
ATOM     21  C   UNL     1      -0.255  10.414  21.012  0.00  0.00    +0.000 A 
ATOM     22  O   UNL     1      -1.068  10.625  19.950  0.00  0.00    +0.000 OA
ATOM     23  C   UNL     1      -0.466  10.075  18.854  0.00  0.00    +0.000 A 
ATOM     24  C   UNL     1      -1.273  10.121  17.615  0.00  0.00    +0.000 C 
ENDBRANCH  16  19
ENDBRANCH   7  15
BRANCH   1  25
ATOM     25  C   UNL     1       6.239   4.768  14.360  0.00  0.00    +0.000 C 
ATOM     26  C   UNL     1       7.474   5.174  13.517  0.00  0.00    +0.000 C 
ATOM     27  C   UNL     1       5.218   5.913  14.184  0.00  0.00    +0.000 C 
BRANCH  25  29
ATOM     28  C   UNL     1       5.719   3.368  12.203  0.00  0.00    +0.000 C 
ATOM     29  C   UNL     1       5.600   3.493  13.719  0.00  0.00    +0.000 C 
ENDBRANCH  25  29
ENDBRANCH   1  25
TORSDOF 5
ENDMDL
MODEL 9
REMARK VINA RESULT:      -6.0      3.601      4.820
REMARK  Name = 
REMARK  9 active torsions:
REMARK  status: ('A' for Active; 'I' for Inactive)
REMARK    1  A    between atoms: C_1  and  C_2
REMARK    2  A    between atoms: C_2  and  C_3
REMARK    3  A    between atoms: C_3  and  C_4
REMARK    4  A    between atoms: C_3  and  C_5
REMARK    5  A    between atoms: C_3  and  C_6
REMARK    6  A    between atoms: C_12  and  N_13
REMARK    7  A    between atoms: C_14  and  C_16
REMARK    8  A    between atoms: C_20  and  C_21
REMARK    9  A    between atoms: C_22  and  C_23
REMARK                            x       y       z     vdW  Elec       q    Type
REMARK                         _______ _______ _______ _____ _____    ______ ____
ROOT
ATOM      1  C   UNL     1       6.735   4.566  15.840  0.00  0.00    +0.000 C 
ATOM      2  C   UNL     1       6.092   3.344  16.558  0.00  0.00    +0.000 C 
ATOM      3  C   UNL     1       4.628   3.517  17.010  0.00  0.00    +0.000 C 
ATOM      4  C   UNL     1       4.308   4.925  17.432  0.00  0.00    +0.000 A 
ATOM      5  C   UNL     1       5.238   5.935  17.324  0.00  0.00    +0.000 A 
ATOM      6  S   UNL     1       4.666   7.413  17.897  0.00  0.00    +0.000 S 
ATOM      7  C   UNL     1       3.115   6.785  18.213  0.00  0.00    +0.000 A 
ATOM      8  C   UNL     1       3.024   5.430  17.893  0.00  0.00    +0.000 A 
ATOM      9  C   UNL     1       6.621   5.792  16.785  0.00  0.00    +0.000 C 
ENDROOT
BRANCH   8  10
ATOM     10  C   UNL     1       1.819   4.608  17.985  0.00  0.00    +0.000 C 
ATOM     11  N   UNL     1       1.492   4.145  19.235  0.00  0.00    +0.000 N 
ATOM     12  O   UNL     1       1.068   4.384  17.043  0.00  0.00    +0.000 OA
ATOM     13  H   UNL     1       1.794   4.690  20.033  0.00  0.00    +0.000 HD
ATOM     14  H   UNL     1       0.547   3.781  19.287  0.00  0.00    +0.000 HD
ENDBRANCH   8  10
BRANCH   7  15
ATOM     15  N   UNL     1       2.141   7.608  18.779  0.00  0.00    +0.000 N 
ATOM     16  C   UNL     1       1.787   8.873  18.335  0.00  0.00    +0.000 C 
ATOM     17  O   UNL     1       2.198   9.429  17.322  0.00  0.00    +0.000 OA
ATOM     18  H   UNL     1       1.587   7.191  19.519  0.00  0.00    +0.000 HD
BRANCH  16  19
ATOM     19  C   UNL     1       0.739   9.527  19.113  0.00  0.00    +0.000 A 
ATOM     20  C   UNL     1      -0.279  10.367  18.562  0.00  0.00    +0.000 A 
ATOM     21  C   UNL     1      -1.056  10.794  19.606  0.00  0.00    +0.000 A 
ATOM     22  O   UNL     1      -0.577  10.303  20.773  0.00  0.00    +0.000 OA
ATOM     23  C   UNL     1       0.529   9.556  20.483  0.00  0.00    +0.000 A 
ATOM     24  C   UNL     1       1.248   9.027  21.665  0.00  0.00    +0.000 C 
ENDBRANCH  16  19
ENDBRANCH   7  15
BRANCH   1  25
ATOM     25  C   UNL     1       6.315   4.793  14.326  0.00  0.00    +0.000 C 
ATOM     26  C   UNL     1       7.542   5.211  13.478  0.00  0.00    +0.000 C 
ATOM     27  C   UNL     1       5.266   5.908  14.121  0.00  0.00    +0.000 C 
BRANCH  25  29
ATOM     28  C   UNL     1       5.768   3.369  12.192  0.00  0.00    +0.000 C 
ATOM     29  C   UNL     1       5.710   3.488  13.712  0.00  0.00    +0.000 C 
ENDBRANCH  25  29
ENDBRANCH   1  25
TORSDOF 5
ENDMDL
