MODEL 1
REMARK VINA RESULT:      -6.8      0.000      0.000
REMARK  Name = 
REMARK  6 active torsions:
REMARK  status: ('A' for Active; 'I' for Inactive)
REMARK    1  A    between atoms: C_1  and  O_2
REMARK    2  A    between atoms: O_2  and  C_3
REMARK    3  A    between atoms: C_8  and  O_9
REMARK    4  A    between atoms: O_9  and  C_10
REMARK    5  A    between atoms: C_17  and  N_18
REMARK    6  A    between atoms: C_19  and  C_21
REMARK                            x       y       z     vdW  Elec       q    Type
REMARK                         _______ _______ _______ _____ _____    ______ ____
ROOT
ATOM      1  C   UNL     1       3.189   2.668  18.468  0.00  0.00    +0.000 A 
ATOM      2  C   UNL     1       3.720   3.097  17.247  0.00  0.00    +0.000 A 
ATOM      3  C   UNL     1       4.721   4.073  17.202  0.00  0.00    +0.000 A 
ATOM      4  C   UNL     1       5.196   4.677  18.373  0.00  0.00    +0.000 A 
ATOM      5  C   UNL     1       4.586   4.298  19.580  0.00  0.00    +0.000 A 
ATOM      6  C   UNL     1       3.590   3.309  19.647  0.00  0.00    +0.000 A 
ATOM      7  C   UNL     1       6.262   5.695  18.368  0.00  0.00    +0.000 A 
ATOM      8  C   UNL     1       7.339   5.589  19.264  0.00  0.00    +0.000 A 
ATOM      9  C   UNL     1       8.362   6.533  19.285  0.00  0.00    +0.000 A 
ATOM     10  C   UNL     1       8.326   7.609  18.405  0.00  0.00    +0.000 A 
ATOM     11  C   UNL     1       7.268   7.740  17.507  0.00  0.00    +0.000 A 
ATOM     12  C   UNL     1       6.230   6.794  17.477  0.00  0.00    +0.000 A 
ATOM     13  C   UNL     1       5.115   6.938  16.449  0.00  0.00    +0.000 C 
ATOM     14  C   UNL     1       5.271   5.845  15.384  0.00  0.00    +0.000 C 
ATOM     15  C   UNL     1       5.258   4.410  15.866  0.00  0.00    +0.000 C 
ATOM     16  O   UNL     1       5.598   3.483  15.131  0.00  0.00    +0.000 OA
ENDROOT
BRANCH  13  17
ATOM     17  N   UNL     1       3.811   6.983  17.103  0.00  0.00    +0.000 N 
ATOM     18  C   UNL     1       3.209   8.145  17.567  0.00  0.00    +0.000 C 
ATOM     19  O   UNL     1       3.759   9.242  17.471  0.00  0.00    +0.000 OA
ATOM     20  H   UNL     1       3.362   6.102  17.343  0.00  0.00    +0.000 HD
BRANCH  18  21
ATOM     21  C   UNL     1       1.799   7.940  18.172  0.00  0.00    +0.000 C 
ATOM     22  F   UNL     1       1.453   6.619  18.203  0.00  0.00    +0.000 F 
ATOM     23  F   UNL     1       1.710   8.387  19.453  0.00  0.00    +0.000 F 
ATOM     24  F   UNL     1       0.830   8.574  17.460  0.00  0.00    +0.000 F 
ENDBRANCH  18  21
ENDBRANCH  13  17
BRANCH   1  26
ATOM     25  C   UNL     1       0.907   2.065  18.666  0.00  0.00    +0.000 C 
ATOM     26  O   UNL     1       2.269   1.656  18.515  0.00  0.00    +0.000 OA
ENDBRANCH   1  26
BRANCH   6  27
ATOM     27  O   UNL     1       3.170   3.104  20.932  0.00  0.00    +0.000 OA
ATOM     28  C   UNL     1       2.194   3.967  21.493  0.00  0.00    +0.000 C 
ENDBRANCH   6  27
TORSDOF 4
ENDMDL
MODEL 2
REMARK VINA RESULT:      -6.7      7.174     10.599
REMARK  Name = 
REMARK  6 active torsions:
REMARK  status: ('A' for Active; 'I' for Inactive)
REMARK    1  A    between atoms: C_1  and  O_2
REMARK    2  A    between atoms: O_2  and  C_3
REMARK    3  A    between atoms: C_8  and  O_9
REMARK    4  A    between atoms: O_9  and  C_10
REMARK    5  A    between atoms: C_17  and  N_18
REMARK    6  A    between atoms: C_19  and  C_21
REMARK                            x       y       z     vdW  Elec       q    Type
REMARK                         _______ _______ _______ _____ _____    ______ ____
ROOT
ATOM      1  C   UNL     1      -2.456  14.330  22.058  0.00  0.00    +0.000 A 
ATOM      2  C   UNL     1      -1.434  14.293  21.104  0.00  0.00    +0.000 A 
ATOM      3  C   UNL     1      -1.513  13.438  19.999  0.00  0.00    +0.000 A 
ATOM      4  C   UNL     1      -2.596  12.568  19.834  0.00  0.00    +0.000 A 
ATOM      5  C   UNL     1      -3.567  12.554  20.850  0.00  0.00    +0.000 A 
ATOM      6  C   UNL     1      -3.513  13.416  21.958  0.00  0.00    +0.000 A 
ATOM      7  C   UNL     1      -2.724  11.665  18.674  0.00  0.00    +0.000 A 
ATOM      8  C   UNL     1      -3.939  11.592  17.972  0.00  0.00    +0.000 A 
ATOM      9  C   UNL     1      -4.092  10.751  16.873  0.00  0.00    +0.000 A 
ATOM     10  C   UNL     1      -3.027   9.962  16.454  0.00  0.00    +0.000 A 
ATOM     11  C   UNL     1      -1.811  10.013  17.135  0.00  0.00    +0.000 A 
ATOM     12  C   UNL     1      -1.645  10.856  18.246  0.00  0.00    +0.000 A 
ATOM     13  C   UNL     1      -0.289  10.927  18.936  0.00  0.00    +0.000 C 
ATOM     14  C   UNL     1       0.362  12.280  18.623  0.00  0.00    +0.000 C 
ATOM     15  C   UNL     1      -0.410  13.522  19.017  0.00  0.00    +0.000 C 
ATOM     16  O   UNL     1      -0.082  14.638  18.612  0.00  0.00    +0.000 OA
ENDROOT
BRANCH  13  17
ATOM     17  N   UNL     1      -0.414  10.615  20.356  0.00  0.00    +0.000 N 
ATOM     18  C   UNL     1       0.282   9.597  20.996  0.00  0.00    +0.000 C 
ATOM     19  O   UNL     1       1.058   8.861  20.387  0.00  0.00    +0.000 OA
ATOM     20  H   UNL     1      -1.139  11.087  20.891  0.00  0.00    +0.000 HD
BRANCH  18  21
ATOM     21  C   UNL     1       0.021   9.501  22.518  0.00  0.00    +0.000 C 
ATOM     22  F   UNL     1      -0.869   8.507  22.814  0.00  0.00    +0.000 F 
ATOM     23  F   UNL     1       1.148   9.225  23.226  0.00  0.00    +0.000 F 
ATOM     24  F   UNL     1      -0.502  10.647  23.030  0.00  0.00    +0.000 F 
ENDBRANCH  18  21
ENDBRANCH  13  17
BRANCH   1  26
ATOM     25  C   UNL     1      -1.504  14.908  24.148  0.00  0.00    +0.000 C 
ATOM     26  O   UNL     1      -2.416  15.224  23.093  0.00  0.00    +0.000 OA
ENDBRANCH   1  26
BRANCH   6  27
ATOM     27  O   UNL     1      -4.579  13.228  22.794  0.00  0.00    +0.000 OA
ATOM     28  C   UNL     1      -5.762  13.983  22.596  0.00  0.00    +0.000 C 
ENDBRANCH   6  27
TORSDOF 4
ENDMDL
MODEL 3
REMARK VINA RESULT:      -6.5      7.919     11.473
REMARK  Name = 
REMARK  6 active torsions:
REMARK  status: ('A' for Active; 'I' for Inactive)
REMARK    1  A    between atoms: C_1  and  O_2
REMARK    2  A    between atoms: O_2  and  C_3
REMARK    3  A    between atoms: C_8  and  O_9
REMARK    4  A    between atoms: O_9  and  C_10
REMARK    5  A    between atoms: C_17  and  N_18
REMARK    6  A    between atoms: C_19  and  C_21
REMARK                            x       y       z     vdW  Elec       q    Type
REMARK                         _______ _______ _______ _____ _____    ______ ____
ROOT
ATOM      1  C   UNL     1      -3.406  14.078  23.738  0.00  0.00    +0.000 A 
ATOM      2  C   UNL     1      -2.496  14.537  22.779  0.00  0.00    +0.000 A 
ATOM      3  C   UNL     1      -2.496  14.016  21.481  0.00  0.00    +0.000 A 
ATOM      4  C   UNL     1      -3.380  12.996  21.111  0.00  0.00    +0.000 A 
ATOM      5  C   UNL     1      -4.222  12.485  22.113  0.00  0.00    +0.000 A 
ATOM      6  C   UNL     1      -4.247  13.006  23.417  0.00  0.00    +0.000 A 
ATOM      7  C   UNL     1      -3.423  12.434  19.748  0.00  0.00    +0.000 A 
ATOM      8  C   UNL     1      -4.655  12.273  19.094  0.00  0.00    +0.000 A 
ATOM      9  C   UNL     1      -4.730  11.746  17.807  0.00  0.00    +0.000 A 
ATOM     10  C   UNL     1      -3.566  11.367  17.147  0.00  0.00    +0.000 A 
ATOM     11  C   UNL     1      -2.330  11.515  17.775  0.00  0.00    +0.000 A 
ATOM     12  C   UNL     1      -2.242  12.043  19.073  0.00  0.00    +0.000 A 
ATOM     13  C   UNL     1      -0.872  12.239  19.710  0.00  0.00    +0.000 C 
ATOM     14  C   UNL     1      -0.558  13.739  19.773  0.00  0.00    +0.000 C 
ATOM     15  C   UNL     1      -1.537  14.615  20.527  0.00  0.00    +0.000 C 
ATOM     16  O   UNL     1      -1.495  15.843  20.445  0.00  0.00    +0.000 OA
ENDROOT
BRANCH  13  17
ATOM     17  N   UNL     1      -0.790  11.537  20.986  0.00  0.00    +0.000 N 
ATOM     18  C   UNL     1      -0.364  10.222  21.129  0.00  0.00    +0.000 C 
ATOM     19  O   UNL     1      -0.036   9.539  20.159  0.00  0.00    +0.000 OA
ATOM     20  H   UNL     1      -1.178  11.989  21.811  0.00  0.00    +0.000 HD
BRANCH  18  21
ATOM     21  C   UNL     1      -0.312   9.720  22.592  0.00  0.00    +0.000 C 
ATOM     22  F   UNL     1      -0.921   8.505  22.729  0.00  0.00    +0.000 F 
ATOM     23  F   UNL     1       0.960   9.561  23.044  0.00  0.00    +0.000 F 
ATOM     24  F   UNL     1      -0.940  10.563  23.454  0.00  0.00    +0.000 F 
ENDBRANCH  18  21
ENDBRANCH  13  17
BRANCH   1  26
ATOM     25  C   UNL     1      -2.262  15.299  25.414  0.00  0.00    +0.000 C 
ATOM     26  O   UNL     1      -3.459  14.646  24.982  0.00  0.00    +0.000 OA
ENDBRANCH   1  26
BRANCH   6  27
ATOM     27  O   UNL     1      -5.163  12.357  24.199  0.00  0.00    +0.000 OA
ATOM     28  C   UNL     1      -6.528  12.735  24.134  0.00  0.00    +0.000 C 
ENDBRANCH   6  27
TORSDOF 4
ENDMDL
MODEL 4
REMARK VINA RESULT:      -6.5      7.096     10.913
REMARK  Name = 
REMARK  6 active torsions:
REMARK  status: ('A' for Active; 'I' for Inactive)
REMARK    1  A    between atoms: C_1  and  O_2
REMARK    2  A    between atoms: O_2  and  C_3
REMARK    3  A    between atoms: C_8  and  O_9
REMARK    4  A    between atoms: O_9  and  C_10
REMARK    5  A    between atoms: C_17  and  N_18
REMARK    6  A    between atoms: C_19  and  C_21
REMARK                            x       y       z     vdW  Elec       q    Type
REMARK                         _______ _______ _______ _____ _____    ______ ____
ROOT
ATOM      1  C   UNL     1      -1.505  13.908  23.182  0.00  0.00    +0.000 A 
ATOM      2  C   UNL     1      -0.872  14.021  21.940  0.00  0.00    +0.000 A 
ATOM      3  C   UNL     1      -1.471  13.516  20.780  0.00  0.00    +0.000 A 
ATOM      4  C   UNL     1      -2.701  12.851  20.832  0.00  0.00    +0.000 A 
ATOM      5  C   UNL     1      -3.276  12.668  22.101  0.00  0.00    +0.000 A 
ATOM      6  C   UNL     1      -2.698  13.180  23.274  0.00  0.00    +0.000 A 
ATOM      7  C   UNL     1      -3.373  12.322  19.631  0.00  0.00    +0.000 A 
ATOM      8  C   UNL     1      -4.737  12.581  19.417  0.00  0.00    +0.000 A 
ATOM      9  C   UNL     1      -5.400  12.096  18.293  0.00  0.00    +0.000 A 
ATOM     10  C   UNL     1      -4.707  11.338  17.355  0.00  0.00    +0.000 A 
ATOM     11  C   UNL     1      -3.353  11.065  17.544  0.00  0.00    +0.000 A 
ATOM     12  C   UNL     1      -2.673  11.547  18.675  0.00  0.00    +0.000 A 
ATOM     13  C   UNL     1      -1.182  11.274  18.826  0.00  0.00    +0.000 C 
ATOM     14  C   UNL     1      -0.409  12.580  18.602  0.00  0.00    +0.000 C 
ATOM     15  C   UNL     1      -0.749  13.743  19.510  0.00  0.00    +0.000 C 
ATOM     16  O   UNL     1      -0.352  14.883  19.268  0.00  0.00    +0.000 OA
ENDROOT
BRANCH  13  17
ATOM     17  N   UNL     1      -0.905  10.600  20.089  0.00  0.00    +0.000 N 
ATOM     18  C   UNL     1       0.151   9.719  20.290  0.00  0.00    +0.000 C 
ATOM     19  O   UNL     1       0.932   9.428  19.385  0.00  0.00    +0.000 OA
ATOM     20  H   UNL     1      -1.588  10.681  20.839  0.00  0.00    +0.000 HD
BRANCH  18  21
ATOM     21  C   UNL     1       0.268   9.176  21.734  0.00  0.00    +0.000 C 
ATOM     22  F   UNL     1       0.228  10.184  22.655  0.00  0.00    +0.000 F 
ATOM     23  F   UNL     1      -0.742   8.326  22.057  0.00  0.00    +0.000 F 
ATOM     24  F   UNL     1       1.434   8.509  21.947  0.00  0.00    +0.000 F 
ENDBRANCH  18  21
ENDBRANCH  13  17
BRANCH   1  26
ATOM     25  C   UNL     1      -1.397  15.801  24.602  0.00  0.00    +0.000 C 
ATOM     26  O   UNL     1      -0.956  14.473  24.301  0.00  0.00    +0.000 OA
ENDBRANCH   1  26
BRANCH   6  27
ATOM     27  O   UNL     1      -3.454  12.890  24.376  0.00  0.00    +0.000 OA
ATOM     28  C   UNL     1      -4.852  12.698  24.233  0.00  0.00    +0.000 C 
ENDBRANCH   6  27
TORSDOF 4
ENDMDL
MODEL 5
REMARK VINA RESULT:      -6.5     10.177     12.642
REMARK  Name = 
REMARK  6 active torsions:
REMARK  status: ('A' for Active; 'I' for Inactive)
REMARK    1  A    between atoms: C_1  and  O_2
REMARK    2  A    between atoms: O_2  and  C_3
REMARK    3  A    between atoms: C_8  and  O_9
REMARK    4  A    between atoms: O_9  and  C_10
REMARK    5  A    between atoms: C_17  and  N_18
REMARK    6  A    between atoms: C_19  and  C_21
REMARK                            x       y       z     vdW  Elec       q    Type
REMARK                         _______ _______ _______ _____ _____    ______ ____
ROOT
ATOM      1  C   UNL     1      -4.871  13.212  22.304  0.00  0.00    +0.000 A 
ATOM      2  C   UNL     1      -5.793  12.444  21.584  0.00  0.00    +0.000 A 
ATOM      3  C   UNL     1      -5.469  11.928  20.324  0.00  0.00    +0.000 A 
ATOM      4  C   UNL     1      -4.230  12.193  19.730  0.00  0.00    +0.000 A 
ATOM      5  C   UNL     1      -3.354  13.042  20.429  0.00  0.00    +0.000 A 
ATOM      6  C   UNL     1      -3.655  13.557  21.701  0.00  0.00    +0.000 A 
ATOM      7  C   UNL     1      -3.845  11.653  18.414  0.00  0.00    +0.000 A 
ATOM      8  C   UNL     1      -2.590  11.046  18.243  0.00  0.00    +0.000 A 
ATOM      9  C   UNL     1      -2.196  10.525  17.014  0.00  0.00    +0.000 A 
ATOM     10  C   UNL     1      -3.056  10.603  15.924  0.00  0.00    +0.000 A 
ATOM     11  C   UNL     1      -4.307  11.202  16.065  0.00  0.00    +0.000 A 
ATOM     12  C   UNL     1      -4.714  11.732  17.300  0.00  0.00    +0.000 A 
ATOM     13  C   UNL     1      -6.107  12.334  17.433  0.00  0.00    +0.000 C 
ATOM     14  C   UNL     1      -6.979  11.397  18.278  0.00  0.00    +0.000 C 
ATOM     15  C   UNL     1      -6.490  11.077  19.675  0.00  0.00    +0.000 C 
ATOM     16  O   UNL     1      -6.993  10.171  20.340  0.00  0.00    +0.000 OA
ENDROOT
BRANCH  13  17
ATOM     17  N   UNL     1      -6.033  13.710  17.914  0.00  0.00    +0.000 N 
ATOM     18  C   UNL     1      -6.940  14.706  17.575  0.00  0.00    +0.000 C 
ATOM     19  O   UNL     1      -7.882  14.492  16.813  0.00  0.00    +0.000 OA
ATOM     20  H   UNL     1      -5.205  13.995  18.432  0.00  0.00    +0.000 HD
BRANCH  18  21
ATOM     21  C   UNL     1      -6.679  16.070  18.258  0.00  0.00    +0.000 C 
ATOM     22  F   UNL     1      -5.664  15.990  19.169  0.00  0.00    +0.000 F 
ATOM     23  F   UNL     1      -6.320  17.037  17.373  0.00  0.00    +0.000 F 
ATOM     24  F   UNL     1      -7.765  16.530  18.934  0.00  0.00    +0.000 F 
ENDBRANCH  18  21
ENDBRANCH  13  17
BRANCH   1  26
ATOM     25  C   UNL     1      -4.884  12.716  24.620  0.00  0.00    +0.000 C 
ATOM     26  O   UNL     1      -5.159  13.647  23.569  0.00  0.00    +0.000 OA
ENDBRANCH   1  26
BRANCH   6  27
ATOM     27  O   UNL     1      -2.639  14.336  22.181  0.00  0.00    +0.000 OA
ATOM     28  C   UNL     1      -1.639  13.752  22.999  0.00  0.00    +0.000 C 
ENDBRANCH   6  27
TORSDOF 4
ENDMDL
MODEL 6
REMARK VINA RESULT:      -6.4      7.377      9.978
REMARK  Name = 
REMARK  6 active torsions:
REMARK  status: ('A' for Active; 'I' for Inactive)
REMARK    1  A    between atoms: C_1  and  O_2
REMARK    2  A    between atoms: O_2  and  C_3
REMARK    3  A    between atoms: C_8  and  O_9
REMARK    4  A    between atoms: O_9  and  C_10
REMARK    5  A    between atoms: C_17  and  N_18
REMARK    6  A    between atoms: C_19  and  C_21
REMARK                            x       y       z     vdW  Elec       q    Type
REMARK                         _______ _______ _______ _____ _____    ______ ____
ROOT
ATOM      1  C   UNL     1      -2.601  13.304  23.041  0.00  0.00    +0.000 A 
ATOM      2  C   UNL     1      -1.916  12.086  22.972  0.00  0.00    +0.000 A 
ATOM      3  C   UNL     1      -0.891  11.891  22.039  0.00  0.00    +0.000 A 
ATOM      4  C   UNL     1      -0.545  12.891  21.124  0.00  0.00    +0.000 A 
ATOM      5  C   UNL     1      -1.306  14.072  21.150  0.00  0.00    +0.000 A 
ATOM      6  C   UNL     1      -2.328  14.293  22.088  0.00  0.00    +0.000 A 
ATOM      7  C   UNL     1       0.541  12.730  20.139  0.00  0.00    +0.000 A 
ATOM      8  C   UNL     1       1.498  13.745  19.977  0.00  0.00    +0.000 A 
ATOM      9  C   UNL     1       2.536  13.623  19.057  0.00  0.00    +0.000 A 
ATOM     10  C   UNL     1       2.635  12.477  18.276  0.00  0.00    +0.000 A 
ATOM     11  C   UNL     1       1.696  11.455  18.415  0.00  0.00    +0.000 A 
ATOM     12  C   UNL     1       0.644  11.568  19.339  0.00  0.00    +0.000 A 
ATOM     13  C   UNL     1      -0.334  10.412  19.503  0.00  0.00    +0.000 C 
ATOM     14  C   UNL     1      -0.080   9.727  20.852  0.00  0.00    +0.000 C 
ATOM     15  C   UNL     1      -0.189  10.590  22.091  0.00  0.00    +0.000 C 
ATOM     16  O   UNL     1       0.212  10.195  23.186  0.00  0.00    +0.000 OA
ENDROOT
BRANCH  13  17
ATOM     17  N   UNL     1      -1.706  10.861  19.286  0.00  0.00    +0.000 N 
ATOM     18  C   UNL     1      -2.384  10.747  18.079  0.00  0.00    +0.000 C 
ATOM     19  O   UNL     1      -1.851  10.263  17.081  0.00  0.00    +0.000 OA
ATOM     20  H   UNL     1      -2.159  11.397  20.022  0.00  0.00    +0.000 HD
BRANCH  18  21
ATOM     21  C   UNL     1      -3.849  11.245  18.117  0.00  0.00    +0.000 C 
ATOM     22  F   UNL     1      -4.165  11.963  16.998  0.00  0.00    +0.000 F 
ATOM     23  F   UNL     1      -4.745  10.226  18.180  0.00  0.00    +0.000 F 
ATOM     24  F   UNL     1      -4.094  12.060  19.177  0.00  0.00    +0.000 F 
ENDBRANCH  18  21
ENDBRANCH  13  17
BRANCH   1  26
ATOM     25  C   UNL     1      -4.226  12.356  24.480  0.00  0.00    +0.000 C 
ATOM     26  O   UNL     1      -3.546  13.522  24.006  0.00  0.00    +0.000 OA
ENDBRANCH   1  26
BRANCH   6  27
ATOM     27  O   UNL     1      -2.905  15.522  21.923  0.00  0.00    +0.000 OA
ATOM     28  C   UNL     1      -2.234  16.677  22.399  0.00  0.00    +0.000 C 
ENDBRANCH   6  27
TORSDOF 4
ENDMDL
MODEL 7
REMARK VINA RESULT:      -6.4      8.170     11.715
REMARK  Name = 
REMARK  6 active torsions:
REMARK  status: ('A' for Active; 'I' for Inactive)
REMARK    1  A    between atoms: C_1  and  O_2
REMARK    2  A    between atoms: O_2  and  C_3
REMARK    3  A    between atoms: C_8  and  O_9
REMARK    4  A    between atoms: O_9  and  C_10
REMARK    5  A    between atoms: C_17  and  N_18
REMARK    6  A    between atoms: C_19  and  C_21
REMARK                            x       y       z     vdW  Elec       q    Type
REMARK                         _______ _______ _______ _____ _____    ______ ____
ROOT
ATOM      1  C   UNL     1       0.269  12.864  21.444  0.00  0.00    +0.000 A 
ATOM      2  C   UNL     1      -0.580  13.953  21.221  0.00  0.00    +0.000 A 
ATOM      3  C   UNL     1      -1.894  13.950  21.703  0.00  0.00    +0.000 A 
ATOM      4  C   UNL     1      -2.410  12.845  22.390  0.00  0.00    +0.000 A 
ATOM      5  C   UNL     1      -1.571  11.726  22.523  0.00  0.00    +0.000 A 
ATOM      6  C   UNL     1      -0.245  11.716  22.060  0.00  0.00    +0.000 A 
ATOM      7  C   UNL     1      -3.782  12.811  22.929  0.00  0.00    +0.000 A 
ATOM      8  C   UNL     1      -4.008  12.383  24.247  0.00  0.00    +0.000 A 
ATOM      9  C   UNL     1      -5.291  12.340  24.786  0.00  0.00    +0.000 A 
ATOM     10  C   UNL     1      -6.379  12.726  24.012  0.00  0.00    +0.000 A 
ATOM     11  C   UNL     1      -6.183  13.154  22.699  0.00  0.00    +0.000 A 
ATOM     12  C   UNL     1      -4.893  13.200  22.144  0.00  0.00    +0.000 A 
ATOM     13  C   UNL     1      -4.708  13.720  20.724  0.00  0.00    +0.000 C 
ATOM     14  C   UNL     1      -4.034  15.097  20.779  0.00  0.00    +0.000 C 
ATOM     15  C   UNL     1      -2.688  15.176  21.468  0.00  0.00    +0.000 C 
ATOM     16  O   UNL     1      -2.178  16.258  21.760  0.00  0.00    +0.000 OA
ENDROOT
BRANCH  13  17
ATOM     17  N   UNL     1      -4.027  12.731  19.895  0.00  0.00    +0.000 N 
ATOM     18  C   UNL     1      -4.589  12.127  18.778  0.00  0.00    +0.000 C 
ATOM     19  O   UNL     1      -5.737  12.380  18.414  0.00  0.00    +0.000 OA
ATOM     20  H   UNL     1      -3.132  12.368  20.215  0.00  0.00    +0.000 HD
BRANCH  18  21
ATOM     21  C   UNL     1      -3.646  11.152  18.033  0.00  0.00    +0.000 C 
ATOM     22  F   UNL     1      -2.432  11.055  18.651  0.00  0.00    +0.000 F 
ATOM     23  F   UNL     1      -4.143   9.889  17.970  0.00  0.00    +0.000 F 
ATOM     24  F   UNL     1      -3.395  11.547  16.756  0.00  0.00    +0.000 F 
ENDBRANCH  18  21
ENDBRANCH  13  17
BRANCH   1  26
ATOM     25  C   UNL     1       1.797  12.754  19.638  0.00  0.00    +0.000 C 
ATOM     26  O   UNL     1       1.577  12.902  21.043  0.00  0.00    +0.000 OA
ENDBRANCH   1  26
BRANCH   6  27
ATOM     27  O   UNL     1       0.372  10.524  22.325  0.00  0.00    +0.000 OA
ATOM     28  C   UNL     1      -0.249   9.597  23.201  0.00  0.00    +0.000 C 
ENDBRANCH   6  27
TORSDOF 4
ENDMDL
MODEL 8
REMARK VINA RESULT:      -6.3      7.932     10.461
REMARK  Name = 
REMARK  6 active torsions:
REMARK  status: ('A' for Active; 'I' for Inactive)
REMARK    1  A    between atoms: C_1  and  O_2
REMARK    2  A    between atoms: O_2  and  C_3
REMARK    3  A    between atoms: C_8  and  O_9
REMARK    4  A    between atoms: O_9  and  C_10
REMARK    5  A    between atoms: C_17  and  N_18
REMARK    6  A    between atoms: C_19  and  C_21
REMARK                            x       y       z     vdW  Elec       q    Type
REMARK                         _______ _______ _______ _____ _____    ______ ____
ROOT
ATOM      1  C   UNL     1       9.675  11.325  19.466  0.00  0.00    +0.000 A 
ATOM      2  C   UNL     1      10.292  11.982  18.397  0.00  0.00    +0.000 A 
ATOM      3  C   UNL     1      10.722  13.308  18.520  0.00  0.00    +0.000 A 
ATOM      4  C   UNL     1      10.513  14.029  19.701  0.00  0.00    +0.000 A 
ATOM      5  C   UNL     1       9.810  13.381  20.730  0.00  0.00    +0.000 A 
ATOM      6  C   UNL     1       9.385  12.046  20.631  0.00  0.00    +0.000 A 
ATOM      7  C   UNL     1      10.967  15.422  19.876  0.00  0.00    +0.000 A 
ATOM      8  C   UNL     1      11.663  15.793  21.038  0.00  0.00    +0.000 A 
ATOM      9  C   UNL     1      12.105  17.099  21.232  0.00  0.00    +0.000 A 
ATOM     10  C   UNL     1      11.857  18.064  20.263  0.00  0.00    +0.000 A 
ATOM     11  C   UNL     1      11.166  17.723  19.101  0.00  0.00    +0.000 A 
ATOM     12  C   UNL     1      10.713  16.409  18.894  0.00  0.00    +0.000 A 
ATOM     13  C   UNL     1      10.007  16.057  17.591  0.00  0.00    +0.000 C 
ATOM     14  C   UNL     1      10.936  15.186  16.737  0.00  0.00    +0.000 C 
ATOM     15  C   UNL     1      11.419  13.889  17.352  0.00  0.00    +0.000 C 
ATOM     16  O   UNL     1      12.333  13.239  16.845  0.00  0.00    +0.000 OA
ENDROOT
BRANCH  13  17
ATOM     17  N   UNL     1       8.691  15.485  17.855  0.00  0.00    +0.000 N 
ATOM     18  C   UNL     1       7.566  16.230  18.186  0.00  0.00    +0.000 C 
ATOM     19  O   UNL     1       7.612  17.455  18.299  0.00  0.00    +0.000 OA
ATOM     20  H   UNL     1       8.609  14.473  17.918  0.00  0.00    +0.000 HD
BRANCH  18  21
ATOM     21  C   UNL     1       6.274  15.398  18.362  0.00  0.00    +0.000 C 
ATOM     22  F   UNL     1       6.275  14.711  19.543  0.00  0.00    +0.000 F 
ATOM     23  F   UNL     1       5.154  16.167  18.370  0.00  0.00    +0.000 F 
ATOM     24  F   UNL     1       6.114  14.471  17.380  0.00  0.00    +0.000 F 
ENDBRANCH  18  21
ENDBRANCH  13  17
BRANCH   1  26
ATOM     25  C   UNL     1       8.562   9.647  18.219  0.00  0.00    +0.000 C 
ATOM     26  O   UNL     1       9.330  10.004  19.371  0.00  0.00    +0.000 OA
ENDBRANCH   1  26
BRANCH   6  27
ATOM     27  O   UNL     1       8.742  11.637  21.767  0.00  0.00    +0.000 OA
ATOM     28  C   UNL     1       7.956  12.564  22.497  0.00  0.00    +0.000 C 
ENDBRANCH   6  27
TORSDOF 4
ENDMDL
MODEL 9
REMARK VINA RESULT:      -6.2      8.825     12.521
REMARK  Name = 
REMARK  6 active torsions:
REMARK  status: ('A' for Active; 'I' for Inactive)
REMARK    1  A    between atoms: C_1  and  O_2
REMARK    2  A    between atoms: O_2  and  C_3
REMARK    3  A    between atoms: C_8  and  O_9
REMARK    4  A    between atoms: O_9  and  C_10
REMARK    5  A    between atoms: C_17  and  N_18
REMARK    6  A    between atoms: C_19  and  C_21
REMARK                            x       y       z     vdW  Elec       q    Type
REMARK                         _______ _______ _______ _____ _____    ______ ____
ROOT
ATOM      1  C   UNL     1      -0.593  13.563  22.252  0.00  0.00    +0.000 A 
ATOM      2  C   UNL     1      -1.457  14.565  21.800  0.00  0.00    +0.000 A 
ATOM      3  C   UNL     1      -2.842  14.444  21.954  0.00  0.00    +0.000 A 
ATOM      4  C   UNL     1      -3.408  13.301  22.531  0.00  0.00    +0.000 A 
ATOM      5  C   UNL     1      -2.529  12.266  22.895  0.00  0.00    +0.000 A 
ATOM      6  C   UNL     1      -1.136  12.377  22.762  0.00  0.00    +0.000 A 
ATOM      7  C   UNL     1      -4.861  13.144  22.727  0.00  0.00    +0.000 A 
ATOM      8  C   UNL     1      -5.359  12.706  23.966  0.00  0.00    +0.000 A 
ATOM      9  C   UNL     1      -6.725  12.548  24.184  0.00  0.00    +0.000 A 
ATOM     10  C   UNL     1      -7.624  12.825  23.161  0.00  0.00    +0.000 A 
ATOM     11  C   UNL     1      -7.157  13.258  21.920  0.00  0.00    +0.000 A 
ATOM     12  C   UNL     1      -5.781  13.420  21.688  0.00  0.00    +0.000 A 
ATOM     13  C   UNL     1      -5.306  13.944  20.339  0.00  0.00    +0.000 C 
ATOM     14  C   UNL     1      -4.790  15.378  20.511  0.00  0.00    +0.000 C 
ATOM     15  C   UNL     1      -3.662  15.588  21.499  0.00  0.00    +0.000 C 
ATOM     16  O   UNL     1      -3.335  16.715  21.871  0.00  0.00    +0.000 OA
ENDROOT
BRANCH  13  17
ATOM     17  N   UNL     1      -4.361  13.016  19.727  0.00  0.00    +0.000 N 
ATOM     18  C   UNL     1      -4.706  12.055  18.785  0.00  0.00    +0.000 C 
ATOM     19  O   UNL     1      -5.868  11.908  18.407  0.00  0.00    +0.000 OA
ATOM     20  H   UNL     1      -3.412  12.983  20.093  0.00  0.00    +0.000 HD
BRANCH  18  21
ATOM     21  C   UNL     1      -3.515  11.229  18.244  0.00  0.00    +0.000 C 
ATOM     22  F   UNL     1      -3.052  11.730  17.060  0.00  0.00    +0.000 F 
ATOM     23  F   UNL     1      -2.455  11.222  19.094  0.00  0.00    +0.000 F 
ATOM     24  F   UNL     1      -3.846   9.932  18.007  0.00  0.00    +0.000 F 
ENDBRANCH  18  21
ENDBRANCH  13  17
BRANCH   1  26
ATOM     25  C   UNL     1       1.222  15.064  21.998  0.00  0.00    +0.000 C 
ATOM     26  O   UNL     1       0.764  13.720  22.174  0.00  0.00    +0.000 OA
ENDBRANCH   1  26
BRANCH   6  27
ATOM     27  O   UNL     1      -0.498  11.250  23.203  0.00  0.00    +0.000 OA
ATOM     28  C   UNL     1      -0.422  10.114  22.357  0.00  0.00    +0.000 C 
ENDBRANCH   6  27
TORSDOF 4
ENDMDL
