MODEL 1
REMARK VINA RESULT:      -8.3      0.000      0.000
REMARK  Name = 
REMARK  12 active torsions:
REMARK  status: ('A' for Active; 'I' for Inactive)
REMARK    1  A    between atoms: C_1  and  C_2
REMARK    2  A    between atoms: C_2  and  N_3
REMARK    3  A    between atoms: N_3  and  C_4
REMARK    4  A    between atoms: C_10  and  C_11
REMARK    5  A    between atoms: C_11  and  C_12
REMARK    6  A    between atoms: C_12  and  C_13
REMARK    7  A    between atoms: C_13  and  N_14
REMARK    8  A    between atoms: N_14  and  S_15
REMARK    9  A    between atoms: S_15  and  C_18
REMARK   10  A    between atoms: C_18  and  C_19
REMARK   11  A    between atoms: C_24  and  C_25
REMARK   12  A    between atoms: C_25  and  C_26
REMARK                            x       y       z     vdW  Elec       q    Type
REMARK                         _______ _______ _______ _____ _____    ______ ____
ROOT
ATOM      1  C   UNL     1       1.960   4.169  18.378  0.00  0.00    +0.000 C 
ATOM      2  C   UNL     1       2.776   2.882  18.176  0.00  0.00    +0.000 C 
ATOM      3  C   UNL     1       3.624   2.917  16.934  0.00  0.00    +0.000 C 
ATOM      4  C   UNL     1       4.553   4.091  16.989  0.00  0.00    +0.000 A 
ATOM      5  C   UNL     1       5.815   3.924  16.390  0.00  0.00    +0.000 A 
ATOM      6  C   UNL     1       6.715   4.974  16.323  0.00  0.00    +0.000 A 
ATOM      7  C   UNL     1       6.362   6.219  16.841  0.00  0.00    +0.000 A 
ATOM      8  C   UNL     1       5.095   6.386  17.444  0.00  0.00    +0.000 A 
ATOM      9  C   UNL     1       4.171   5.325  17.563  0.00  0.00    +0.000 A 
ATOM     10  C   UNL     1       2.760   5.530  18.198  0.00  0.00    +0.000 C 
ENDROOT
BRANCH   1  11
ATOM     11  N   UNL     1       1.090   3.990  19.554  0.00  0.00    +0.000 NA
ATOM     12  H   UNL     1       0.987   4.856  20.075  0.00  0.00    +0.000 HD
BRANCH  11  14
ATOM     13  C   UNL     1       2.114   3.402  21.698  0.00  0.00    +0.000 C 
ATOM     14  C   UNL     1       1.456   2.883  20.434  0.00  0.00    +0.000 C 
ENDBRANCH  11  14
ENDBRANCH   1  11
BRANCH   7  15
ATOM     15  C   UNL     1       7.356   7.355  16.745  0.00  0.00    +0.000 C 
BRANCH  15  16
ATOM     16  C   UNL     1       7.909   7.803  18.100  0.00  0.00    +0.000 C 
BRANCH  16  17
ATOM     17  C   UNL     1       8.300   9.279  18.087  0.00  0.00    +0.000 C 
BRANCH  17  18
ATOM     18  N   UNL     1       9.144   9.584  19.261  0.00  0.00    +0.000 NA
ATOM     19  H   UNL     1       9.950   8.961  19.353  0.00  0.00    +0.000 HD
BRANCH  18  20
ATOM     20  S   UNL     1       9.728  11.173  19.361  0.00  0.00    +0.000 S 
ATOM     21  O   UNL     1      11.149  11.066  19.098  0.00  0.00    +0.000 OA
ATOM     22  O   UNL     1       8.875  11.978  18.530  0.00  0.00    +0.000 OA
BRANCH  20  23
ATOM     23  C   UNL     1       9.475  11.585  21.107  0.00  0.00    +0.000 C 
BRANCH  23  24
ATOM     24  C   UNL     1       9.045  13.024  21.120  0.00  0.00    +0.000 C 
ATOM     25  C   UNL     1       8.824  13.743  22.429  0.00  0.00    +0.000 C 
ATOM     26  C   UNL     1       9.994  14.108  21.559  0.00  0.00    +0.000 C 
ENDBRANCH  23  24
ENDBRANCH  20  23
ENDBRANCH  18  20
ENDBRANCH  17  18
ENDBRANCH  16  17
ENDBRANCH  15  16
ENDBRANCH   7  15
BRANCH  10  27
ATOM     27  C   UNL     1       2.746   6.513  19.432  0.00  0.00    +0.000 C 
BRANCH  27  28
ATOM     28  C   UNL     1       2.098   7.903  19.378  0.00  0.00    +0.000 A 
ATOM     29  C   UNL     1       2.104   8.626  18.162  0.00  0.00    +0.000 A 
ATOM     30  C   UNL     1       1.339   9.792  17.997  0.00  0.00    +0.000 A 
ATOM     31  C   UNL     1       0.570  10.265  19.052  0.00  0.00    +0.000 A 
ATOM     32  F   UNL     1      -0.202  11.347  18.880  0.00  0.00    +0.000 F 
ATOM     33  C   UNL     1       0.597   9.605  20.272  0.00  0.00    +0.000 A 
ATOM     34  F   UNL     1      -0.126  10.068  21.303  0.00  0.00    +0.000 F 
ATOM     35  C   UNL     1       1.349   8.432  20.440  0.00  0.00    +0.000 A 
ENDBRANCH  27  28
ENDBRANCH  10  27
TORSDOF 11
ENDMDL
MODEL 2
REMARK VINA RESULT:      -8.1      1.695      2.209
REMARK  Name = 
REMARK  12 active torsions:
REMARK  status: ('A' for Active; 'I' for Inactive)
REMARK    1  A    between atoms: C_1  and  C_2
REMARK    2  A    between atoms: C_2  and  N_3
REMARK    3  A    between atoms: N_3  and  C_4
REMARK    4  A    between atoms: C_10  and  C_11
REMARK    5  A    between atoms: C_11  and  C_12
REMARK    6  A    between atoms: C_12  and  C_13
REMARK    7  A    between atoms: C_13  and  N_14
REMARK    8  A    between atoms: N_14  and  S_15
REMARK    9  A    between atoms: S_15  and  C_18
REMARK   10  A    between atoms: C_18  and  C_19
REMARK   11  A    between atoms: C_24  and  C_25
REMARK   12  A    between atoms: C_25  and  C_26
REMARK                            x       y       z     vdW  Elec       q    Type
REMARK                         _______ _______ _______ _____ _____    ______ ____
ROOT
ATOM      1  C   UNL     1       2.285   4.276  17.773  0.00  0.00    +0.000 C 
ATOM      2  C   UNL     1       3.087   3.002  17.458  0.00  0.00    +0.000 C 
ATOM      3  C   UNL     1       4.239   3.253  16.523  0.00  0.00    +0.000 C 
ATOM      4  C   UNL     1       5.153   4.284  17.113  0.00  0.00    +0.000 A 
ATOM      5  C   UNL     1       6.524   4.144  16.830  0.00  0.00    +0.000 A 
ATOM      6  C   UNL     1       7.440   5.087  17.267  0.00  0.00    +0.000 A 
ATOM      7  C   UNL     1       6.997   6.198  17.982  0.00  0.00    +0.000 A 
ATOM      8  C   UNL     1       5.620   6.337  18.267  0.00  0.00    +0.000 A 
ATOM      9  C   UNL     1       4.667   5.374  17.870  0.00  0.00    +0.000 A 
ATOM     10  C   UNL     1       3.144   5.556  18.159  0.00  0.00    +0.000 C 
ENDROOT
BRANCH   1  11
ATOM     11  N   UNL     1       1.126   3.903  18.602  0.00  0.00    +0.000 NA
ATOM     12  H   UNL     1       0.801   4.688  19.161  0.00  0.00    +0.000 HD
BRANCH  11  14
ATOM     13  C   UNL     1       1.203   3.053  20.897  0.00  0.00    +0.000 C 
ATOM     14  C   UNL     1       1.308   2.709  19.423  0.00  0.00    +0.000 C 
ENDBRANCH  11  14
ENDBRANCH   1  11
BRANCH   7  15
ATOM     15  C   UNL     1       8.013   7.222  18.437  0.00  0.00    +0.000 C 
BRANCH  15  16
ATOM     16  C   UNL     1       8.176   8.397  17.470  0.00  0.00    +0.000 C 
BRANCH  16  17
ATOM     17  C   UNL     1       8.140   9.736  18.202  0.00  0.00    +0.000 C 
BRANCH  17  18
ATOM     18  N   UNL     1       9.211   9.780  19.219  0.00  0.00    +0.000 NA
ATOM     19  H   UNL     1       9.961   9.105  19.048  0.00  0.00    +0.000 HD
BRANCH  18  20
ATOM     20  S   UNL     1       9.946  11.290  19.458  0.00  0.00    +0.000 S 
ATOM     21  O   UNL     1       9.086  11.980  20.398  0.00  0.00    +0.000 OA
ATOM     22  O   UNL     1      11.327  11.032  19.762  0.00  0.00    +0.000 OA
BRANCH  20  23
ATOM     23  C   UNL     1       9.796  12.072  17.831  0.00  0.00    +0.000 C 
BRANCH  23  24
ATOM     24  C   UNL     1      11.184  12.522  17.473  0.00  0.00    +0.000 C 
ATOM     25  C   UNL     1      11.391  13.686  16.535  0.00  0.00    +0.000 C 
ATOM     26  C   UNL     1      11.729  13.827  17.993  0.00  0.00    +0.000 C 
ENDBRANCH  23  24
ENDBRANCH  20  23
ENDBRANCH  18  20
ENDBRANCH  17  18
ENDBRANCH  16  17
ENDBRANCH  15  16
ENDBRANCH   7  15
BRANCH  10  27
ATOM     27  C   UNL     1       2.827   6.208  19.560  0.00  0.00    +0.000 C 
BRANCH  27  28
ATOM     28  C   UNL     1       1.988   7.485  19.710  0.00  0.00    +0.000 A 
ATOM     29  C   UNL     1       1.359   7.762  20.946  0.00  0.00    +0.000 A 
ATOM     30  C   UNL     1       0.772   9.010  21.208  0.00  0.00    +0.000 A 
ATOM     31  C   UNL     1       0.787   9.995  20.230  0.00  0.00    +0.000 A 
ATOM     32  F   UNL     1       0.274  11.205  20.496  0.00  0.00    +0.000 F 
ATOM     33  C   UNL     1       1.345   9.725  18.990  0.00  0.00    +0.000 A 
ATOM     34  F   UNL     1       1.344  10.663  18.031  0.00  0.00    +0.000 F 
ATOM     35  C   UNL     1       1.946   8.483  18.725  0.00  0.00    +0.000 A 
ENDBRANCH  27  28
ENDBRANCH  10  27
TORSDOF 11
ENDMDL
MODEL 3
REMARK VINA RESULT:      -8.0      4.436      8.350
REMARK  Name = 
REMARK  12 active torsions:
REMARK  status: ('A' for Active; 'I' for Inactive)
REMARK    1  A    between atoms: C_1  and  C_2
REMARK    2  A    between atoms: C_2  and  N_3
REMARK    3  A    between atoms: N_3  and  C_4
REMARK    4  A    between atoms: C_10  and  C_11
REMARK    5  A    between atoms: C_11  and  C_12
REMARK    6  A    between atoms: C_12  and  C_13
REMARK    7  A    between atoms: C_13  and  N_14
REMARK    8  A    between atoms: N_14  and  S_15
REMARK    9  A    between atoms: S_15  and  C_18
REMARK   10  A    between atoms: C_18  and  C_19
REMARK   11  A    between atoms: C_24  and  C_25
REMARK   12  A    between atoms: C_25  and  C_26
REMARK                            x       y       z     vdW  Elec       q    Type
REMARK                         _______ _______ _______ _____ _____    ______ ____
ROOT
ATOM      1  C   UNL     1      -1.628  11.923  21.796  0.00  0.00    +0.000 C 
ATOM      2  C   UNL     1      -0.865  11.280  22.966  0.00  0.00    +0.000 C 
ATOM      3  C   UNL     1      -0.649   9.802  22.781  0.00  0.00    +0.000 C 
ATOM      4  C   UNL     1       0.097   9.556  21.506  0.00  0.00    +0.000 A 
ATOM      5  C   UNL     1       0.982   8.462  21.496  0.00  0.00    +0.000 A 
ATOM      6  C   UNL     1       1.662   8.108  20.343  0.00  0.00    +0.000 A 
ATOM      7  C   UNL     1       1.454   8.833  19.170  0.00  0.00    +0.000 A 
ATOM      8  C   UNL     1       0.567   9.932  19.181  0.00  0.00    +0.000 A 
ATOM      9  C   UNL     1      -0.110  10.343  20.350  0.00  0.00    +0.000 A 
ATOM     10  C   UNL     1      -1.116  11.536  20.342  0.00  0.00    +0.000 C 
ENDROOT
BRANCH   1  11
ATOM     11  N   UNL     1      -1.879  13.337  22.124  0.00  0.00    +0.000 NA
ATOM     12  H   UNL     1      -1.703  13.940  21.325  0.00  0.00    +0.000 HD
BRANCH  11  14
ATOM     13  C   UNL     1      -0.540  15.169  23.044  0.00  0.00    +0.000 C 
ATOM     14  C   UNL     1      -1.195  13.828  23.317  0.00  0.00    +0.000 C 
ENDBRANCH  11  14
ENDBRANCH   1  11
BRANCH   7  15
ATOM     15  C   UNL     1       2.197   8.419  17.919  0.00  0.00    +0.000 C 
BRANCH  15  16
ATOM     16  C   UNL     1       2.379   6.906  17.785  0.00  0.00    +0.000 C 
BRANCH  16  17
ATOM     17  C   UNL     1       3.856   6.517  17.776  0.00  0.00    +0.000 C 
BRANCH  17  18
ATOM     18  N   UNL     1       4.165   5.695  18.964  0.00  0.00    +0.000 NA
ATOM     19  H   UNL     1       3.378   5.608  19.612  0.00  0.00    +0.000 HD
BRANCH  18  20
ATOM     20  S   UNL     1       4.729   4.125  18.653  0.00  0.00    +0.000 S 
ATOM     21  O   UNL     1       4.529   3.931  17.231  0.00  0.00    +0.000 OA
ATOM     22  O   UNL     1       6.038   4.034  19.242  0.00  0.00    +0.000 OA
BRANCH  20  23
ATOM     23  C   UNL     1       3.556   3.089  19.566  0.00  0.00    +0.000 C 
BRANCH  23  24
ATOM     24  C   UNL     1       2.726   4.042  20.376  0.00  0.00    +0.000 C 
ATOM     25  C   UNL     1       1.220   4.018  20.277  0.00  0.00    +0.000 C 
ATOM     26  C   UNL     1       1.898   3.550  21.535  0.00  0.00    +0.000 C 
ENDBRANCH  23  24
ENDBRANCH  20  23
ENDBRANCH  18  20
ENDBRANCH  17  18
ENDBRANCH  16  17
ENDBRANCH  15  16
ENDBRANCH   7  15
BRANCH  10  27
ATOM     27  C   UNL     1      -0.683  12.737  19.415  0.00  0.00    +0.000 C 
BRANCH  27  28
ATOM     28  C   UNL     1       0.680  13.432  19.539  0.00  0.00    +0.000 A 
ATOM     29  C   UNL     1       1.462  13.225  20.700  0.00  0.00    +0.000 A 
ATOM     30  C   UNL     1       2.799  13.650  20.769  0.00  0.00    +0.000 A 
ATOM     31  C   UNL     1       3.369  14.304  19.686  0.00  0.00    +0.000 A 
ATOM     32  F   UNL     1       4.661  14.663  19.730  0.00  0.00    +0.000 F 
ATOM     33  C   UNL     1       2.603  14.570  18.561  0.00  0.00    +0.000 A 
ATOM     34  F   UNL     1       3.139  15.222  17.519  0.00  0.00    +0.000 F 
ATOM     35  C   UNL     1       1.270  14.137  18.479  0.00  0.00    +0.000 A 
ENDBRANCH  27  28
ENDBRANCH  10  27
TORSDOF 11
ENDMDL
MODEL 4
REMARK VINA RESULT:      -7.9      0.879      1.025
REMARK  Name = 
REMARK  12 active torsions:
REMARK  status: ('A' for Active; 'I' for Inactive)
REMARK    1  A    between atoms: C_1  and  C_2
REMARK    2  A    between atoms: C_2  and  N_3
REMARK    3  A    between atoms: N_3  and  C_4
REMARK    4  A    between atoms: C_10  and  C_11
REMARK    5  A    between atoms: C_11  and  C_12
REMARK    6  A    between atoms: C_12  and  C_13
REMARK    7  A    between atoms: C_13  and  N_14
REMARK    8  A    between atoms: N_14  and  S_15
REMARK    9  A    between atoms: S_15  and  C_18
REMARK   10  A    between atoms: C_18  and  C_19
REMARK   11  A    between atoms: C_24  and  C_25
REMARK   12  A    between atoms: C_25  and  C_26
REMARK                            x       y       z     vdW  Elec       q    Type
REMARK                         _______ _______ _______ _____ _____    ______ ____
ROOT
ATOM      1  C   UNL     1       2.251   4.668  17.949  0.00  0.00    +0.000 C 
ATOM      2  C   UNL     1       3.015   3.345  17.773  0.00  0.00    +0.000 C 
ATOM      3  C   UNL     1       4.007   3.390  16.642  0.00  0.00    +0.000 C 
ATOM      4  C   UNL     1       4.985   4.502  16.871  0.00  0.00    +0.000 A 
ATOM      5  C   UNL     1       6.299   4.288  16.416  0.00  0.00    +0.000 A 
ATOM      6  C   UNL     1       7.256   5.284  16.514  0.00  0.00    +0.000 A 
ATOM      7  C   UNL     1       6.911   6.522  17.056  0.00  0.00    +0.000 A 
ATOM      8  C   UNL     1       5.592   6.735  17.514  0.00  0.00    +0.000 A 
ATOM      9  C   UNL     1       4.604   5.728  17.465  0.00  0.00    +0.000 A 
ATOM     10  C   UNL     1       3.140   5.986  17.941  0.00  0.00    +0.000 C 
ENDROOT
BRANCH   1  11
ATOM     11  N   UNL     1       1.238   4.484  19.003  0.00  0.00    +0.000 NA
ATOM     12  H   UNL     1       1.021   5.362  19.466  0.00  0.00    +0.000 HD
BRANCH  11  14
ATOM     13  C   UNL     1       2.013   4.033  21.281  0.00  0.00    +0.000 C 
ATOM     14  C   UNL     1       1.535   3.433  19.973  0.00  0.00    +0.000 C 
ENDBRANCH  11  14
ENDBRANCH   1  11
BRANCH   7  15
ATOM     15  C   UNL     1       7.969   7.599  17.141  0.00  0.00    +0.000 C 
BRANCH  15  16
ATOM     16  C   UNL     1       7.502   8.861  17.870  0.00  0.00    +0.000 C 
BRANCH  16  17
ATOM     17  C   UNL     1       8.677   9.630  18.470  0.00  0.00    +0.000 C 
BRANCH  17  18
ATOM     18  N   UNL     1       8.615  11.046  18.053  0.00  0.00    +0.000 NA
ATOM     19  H   UNL     1       7.781  11.532  18.392  0.00  0.00    +0.000 HD
BRANCH  18  20
ATOM     20  S   UNL     1       9.952  12.002  18.470  0.00  0.00    +0.000 S 
ATOM     21  O   UNL     1      10.924  11.070  19.008  0.00  0.00    +0.000 OA
ATOM     22  O   UNL     1      10.254  12.813  17.322  0.00  0.00    +0.000 OA
BRANCH  20  23
ATOM     23  C   UNL     1       9.307  13.031  19.814  0.00  0.00    +0.000 C 
BRANCH  23  24
ATOM     24  C   UNL     1       9.646  12.296  21.079  0.00  0.00    +0.000 C 
ATOM     25  C   UNL     1       9.137  12.792  22.411  0.00  0.00    +0.000 C 
ATOM     26  C   UNL     1       8.593  11.519  21.826  0.00  0.00    +0.000 C 
ENDBRANCH  23  24
ENDBRANCH  20  23
ENDBRANCH  18  20
ENDBRANCH  17  18
ENDBRANCH  16  17
ENDBRANCH  15  16
ENDBRANCH   7  15
BRANCH  10  27
ATOM     27  C   UNL     1       3.031   6.906  19.218  0.00  0.00    +0.000 C 
BRANCH  27  28
ATOM     28  C   UNL     1       2.079   8.108  19.295  0.00  0.00    +0.000 A 
ATOM     29  C   UNL     1       1.747   8.808  18.111  0.00  0.00    +0.000 A 
ATOM     30  C   UNL     1       0.719   9.765  18.089  0.00  0.00    +0.000 A 
ATOM     31  C   UNL     1       0.020  10.050  19.254  0.00  0.00    +0.000 A 
ATOM     32  F   UNL     1      -0.997  10.923  19.222  0.00  0.00    +0.000 F 
ATOM     33  C   UNL     1       0.369   9.419  20.438  0.00  0.00    +0.000 A 
ATOM     34  F   UNL     1      -0.286   9.705  21.573  0.00  0.00    +0.000 F 
ATOM     35  C   UNL     1       1.387   8.452  20.466  0.00  0.00    +0.000 A 
ENDBRANCH  27  28
ENDBRANCH  10  27
TORSDOF 11
ENDMDL
MODEL 5
REMARK VINA RESULT:      -7.9      1.168      1.296
REMARK  Name = 
REMARK  12 active torsions:
REMARK  status: ('A' for Active; 'I' for Inactive)
REMARK    1  A    between atoms: C_1  and  C_2
REMARK    2  A    between atoms: C_2  and  N_3
REMARK    3  A    between atoms: N_3  and  C_4
REMARK    4  A    between atoms: C_10  and  C_11
REMARK    5  A    between atoms: C_11  and  C_12
REMARK    6  A    between atoms: C_12  and  C_13
REMARK    7  A    between atoms: C_13  and  N_14
REMARK    8  A    between atoms: N_14  and  S_15
REMARK    9  A    between atoms: S_15  and  C_18
REMARK   10  A    between atoms: C_18  and  C_19
REMARK   11  A    between atoms: C_24  and  C_25
REMARK   12  A    between atoms: C_25  and  C_26
REMARK                            x       y       z     vdW  Elec       q    Type
REMARK                         _______ _______ _______ _____ _____    ______ ____
ROOT
ATOM      1  C   UNL     1       2.068   4.414  18.153  0.00  0.00    +0.000 C 
ATOM      2  C   UNL     1       2.785   3.088  17.848  0.00  0.00    +0.000 C 
ATOM      3  C   UNL     1       3.689   3.176  16.648  0.00  0.00    +0.000 C 
ATOM      4  C   UNL     1       4.706   4.255  16.858  0.00  0.00    +0.000 A 
ATOM      5  C   UNL     1       5.976   4.042  16.292  0.00  0.00    +0.000 A 
ATOM      6  C   UNL     1       6.961   5.013  16.368  0.00  0.00    +0.000 A 
ATOM      7  C   UNL     1       6.686   6.225  16.999  0.00  0.00    +0.000 A 
ATOM      8  C   UNL     1       5.412   6.438  17.569  0.00  0.00    +0.000 A 
ATOM      9  C   UNL     1       4.400   5.454  17.543  0.00  0.00    +0.000 A 
ATOM     10  C   UNL     1       2.983   5.713  18.145  0.00  0.00    +0.000 C 
ENDROOT
BRANCH   1  11
ATOM     11  N   UNL     1       1.134   4.192  19.270  0.00  0.00    +0.000 NA
ATOM     12  H   UNL     1       1.082   5.004  19.878  0.00  0.00    +0.000 HD
BRANCH  11  14
ATOM     13  C   UNL     1       1.898   3.301  21.419  0.00  0.00    +0.000 C 
ATOM     14  C   UNL     1       1.364   2.971  20.038  0.00  0.00    +0.000 C 
ENDBRANCH  11  14
ENDBRANCH   1  11
BRANCH   7  15
ATOM     15  C   UNL     1       7.772   7.277  17.059  0.00  0.00    +0.000 C 
BRANCH  15  16
ATOM     16  C   UNL     1       7.332   8.575  17.738  0.00  0.00    +0.000 C 
BRANCH  16  17
ATOM     17  C   UNL     1       8.511   9.296  18.389  0.00  0.00    +0.000 C 
BRANCH  17  18
ATOM     18  N   UNL     1       8.582  10.687  17.896  0.00  0.00    +0.000 NA
ATOM     19  H   UNL     1       7.720  11.216  18.051  0.00  0.00    +0.000 HD
BRANCH  18  20
ATOM     20  S   UNL     1       9.858  11.624  18.505  0.00  0.00    +0.000 S 
ATOM     21  O   UNL     1      10.106  11.101  19.834  0.00  0.00    +0.000 OA
ATOM     22  O   UNL     1      10.886  11.624  17.500  0.00  0.00    +0.000 OA
BRANCH  20  23
ATOM     23  C   UNL     1       9.116  13.271  18.644  0.00  0.00    +0.000 C 
BRANCH  23  24
ATOM     24  C   UNL     1      10.038  14.052  19.536  0.00  0.00    +0.000 C 
ATOM     25  C   UNL     1      10.797  15.240  18.997  0.00  0.00    +0.000 C 
ATOM     26  C   UNL     1       9.681  15.446  19.982  0.00  0.00    +0.000 C 
ENDBRANCH  23  24
ENDBRANCH  20  23
ENDBRANCH  18  20
ENDBRANCH  17  18
ENDBRANCH  16  17
ENDBRANCH  15  16
ENDBRANCH   7  15
BRANCH  10  27
ATOM     27  C   UNL     1       2.993   6.564  19.473  0.00  0.00    +0.000 C 
BRANCH  27  28
ATOM     28  C   UNL     1       2.119   7.812  19.665  0.00  0.00    +0.000 A 
ATOM     29  C   UNL     1       1.889   8.674  18.568  0.00  0.00    +0.000 A 
ATOM     30  C   UNL     1       0.928   9.697  18.627  0.00  0.00    +0.000 A 
ATOM     31  C   UNL     1       0.195   9.885  19.791  0.00  0.00    +0.000 A 
ATOM     32  F   UNL     1      -0.760  10.825  19.832  0.00  0.00    +0.000 F 
ATOM     33  C   UNL     1       0.448   9.089  20.899  0.00  0.00    +0.000 A 
ATOM     34  F   UNL     1      -0.240   9.279  22.035  0.00  0.00    +0.000 F 
ATOM     35  C   UNL     1       1.398   8.057  20.843  0.00  0.00    +0.000 A 
ENDBRANCH  27  28
ENDBRANCH  10  27
TORSDOF 11
ENDMDL
MODEL 6
REMARK VINA RESULT:      -7.8      0.964      1.469
REMARK  Name = 
REMARK  12 active torsions:
REMARK  status: ('A' for Active; 'I' for Inactive)
REMARK    1  A    between atoms: C_1  and  C_2
REMARK    2  A    between atoms: C_2  and  N_3
REMARK    3  A    between atoms: N_3  and  C_4
REMARK    4  A    between atoms: C_10  and  C_11
REMARK    5  A    between atoms: C_11  and  C_12
REMARK    6  A    between atoms: C_12  and  C_13
REMARK    7  A    between atoms: C_13  and  N_14
REMARK    8  A    between atoms: N_14  and  S_15
REMARK    9  A    between atoms: S_15  and  C_18
REMARK   10  A    between atoms: C_18  and  C_19
REMARK   11  A    between atoms: C_24  and  C_25
REMARK   12  A    between atoms: C_25  and  C_26
REMARK                            x       y       z     vdW  Elec       q    Type
REMARK                         _______ _______ _______ _____ _____    ______ ____
ROOT
ATOM      1  C   UNL     1       2.378   4.342  17.678  0.00  0.00    +0.000 C 
ATOM      2  C   UNL     1       3.205   3.091  17.336  0.00  0.00    +0.000 C 
ATOM      3  C   UNL     1       4.351   3.385  16.405  0.00  0.00    +0.000 C 
ATOM      4  C   UNL     1       5.245   4.421  17.015  0.00  0.00    +0.000 A 
ATOM      5  C   UNL     1       6.618   4.315  16.728  0.00  0.00    +0.000 A 
ATOM      6  C   UNL     1       7.515   5.267  17.183  0.00  0.00    +0.000 A 
ATOM      7  C   UNL     1       7.051   6.354  17.922  0.00  0.00    +0.000 A 
ATOM      8  C   UNL     1       5.673   6.459  18.211  0.00  0.00    +0.000 A 
ATOM      9  C   UNL     1       4.738   5.486  17.796  0.00  0.00    +0.000 A 
ATOM     10  C   UNL     1       3.213   5.631  18.090  0.00  0.00    +0.000 C 
ENDROOT
BRANCH   1  11
ATOM     11  N   UNL     1       1.228   3.929  18.501  0.00  0.00    +0.000 NA
ATOM     12  H   UNL     1       0.897   4.692  19.085  0.00  0.00    +0.000 HD
BRANCH  11  14
ATOM     13  C   UNL     1       1.373   3.017  20.768  0.00  0.00    +0.000 C 
ATOM     14  C   UNL     1       1.430   2.713  19.283  0.00  0.00    +0.000 C 
ENDBRANCH  11  14
ENDBRANCH   1  11
BRANCH   7  15
ATOM     15  C   UNL     1       8.047   7.388  18.397  0.00  0.00    +0.000 C 
BRANCH  15  16
ATOM     16  C   UNL     1       8.086   8.648  17.528  0.00  0.00    +0.000 C 
BRANCH  16  17
ATOM     17  C   UNL     1       8.308   9.903  18.369  0.00  0.00    +0.000 C 
BRANCH  17  18
ATOM     18  N   UNL     1       9.647  10.462  18.091  0.00  0.00    +0.000 NA
ATOM     19  H   UNL     1       9.859  10.530  17.092  0.00  0.00    +0.000 HD
BRANCH  18  20
ATOM     20  S   UNL     1       9.973  11.981  18.773  0.00  0.00    +0.000 S 
ATOM     21  O   UNL     1      11.283  12.343  18.269  0.00  0.00    +0.000 OA
ATOM     22  O   UNL     1       8.822  12.803  18.515  0.00  0.00    +0.000 OA
BRANCH  20  23
ATOM     23  C   UNL     1      10.097  11.609  20.541  0.00  0.00    +0.000 C 
BRANCH  23  24
ATOM     24  C   UNL     1       9.025  12.431  21.199  0.00  0.00    +0.000 C 
ATOM     25  C   UNL     1       8.901  12.463  22.702  0.00  0.00    +0.000 C 
ATOM     26  C   UNL     1       9.372  13.683  21.962  0.00  0.00    +0.000 C 
ENDBRANCH  23  24
ENDBRANCH  20  23
ENDBRANCH  18  20
ENDBRANCH  17  18
ENDBRANCH  16  17
ENDBRANCH  15  16
ENDBRANCH   7  15
BRANCH  10  27
ATOM     27  C   UNL     1       2.885   6.247  19.504  0.00  0.00    +0.000 C 
BRANCH  27  28
ATOM     28  C   UNL     1       2.023   7.505  19.682  0.00  0.00    +0.000 A 
ATOM     29  C   UNL     1       1.434   7.772  20.940  0.00  0.00    +0.000 A 
ATOM     30  C   UNL     1       0.828   9.007  21.220  0.00  0.00    +0.000 A 
ATOM     31  C   UNL     1       0.785   9.989  20.240  0.00  0.00    +0.000 A 
ATOM     32  F   UNL     1       0.255  11.188  20.521  0.00  0.00    +0.000 F 
ATOM     33  C   UNL     1       1.303   9.727  18.980  0.00  0.00    +0.000 A 
ATOM     34  F   UNL     1       1.246  10.662  18.020  0.00  0.00    +0.000 F 
ATOM     35  C   UNL     1       1.922   8.499  18.697  0.00  0.00    +0.000 A 
ENDBRANCH  27  28
ENDBRANCH  10  27
TORSDOF 11
ENDMDL
MODEL 7
REMARK VINA RESULT:      -7.8      0.616      1.239
REMARK  Name = 
REMARK  12 active torsions:
REMARK  status: ('A' for Active; 'I' for Inactive)
REMARK    1  A    between atoms: C_1  and  C_2
REMARK    2  A    between atoms: C_2  and  N_3
REMARK    3  A    between atoms: N_3  and  C_4
REMARK    4  A    between atoms: C_10  and  C_11
REMARK    5  A    between atoms: C_11  and  C_12
REMARK    6  A    between atoms: C_12  and  C_13
REMARK    7  A    between atoms: C_13  and  N_14
REMARK    8  A    between atoms: N_14  and  S_15
REMARK    9  A    between atoms: S_15  and  C_18
REMARK   10  A    between atoms: C_18  and  C_19
REMARK   11  A    between atoms: C_24  and  C_25
REMARK   12  A    between atoms: C_25  and  C_26
REMARK                            x       y       z     vdW  Elec       q    Type
REMARK                         _______ _______ _______ _____ _____    ______ ____
ROOT
ATOM      1  C   UNL     1       1.962   4.431  18.404  0.00  0.00    +0.000 C 
ATOM      2  C   UNL     1       2.698   3.107  18.138  0.00  0.00    +0.000 C 
ATOM      3  C   UNL     1       3.523   3.140  16.879  0.00  0.00    +0.000 C 
ATOM      4  C   UNL     1       4.519   4.256  16.957  0.00  0.00    +0.000 A 
ATOM      5  C   UNL     1       5.757   4.039  16.325  0.00  0.00    +0.000 A 
ATOM      6  C   UNL     1       6.716   5.037  16.277  0.00  0.00    +0.000 A 
ATOM      7  C   UNL     1       6.446   6.280  16.847  0.00  0.00    +0.000 A 
ATOM      8  C   UNL     1       5.203   6.497  17.483  0.00  0.00    +0.000 A 
ATOM      9  C   UNL     1       4.221   5.488  17.583  0.00  0.00    +0.000 A 
ATOM     10  C   UNL     1       2.837   5.749  18.256  0.00  0.00    +0.000 C 
ENDROOT
BRANCH   1  11
ATOM     11  N   UNL     1       1.107   4.258  19.591  0.00  0.00    +0.000 NA
ATOM     12  H   UNL     1       0.462   5.035  19.700  0.00  0.00    +0.000 HD
BRANCH  11  14
ATOM     13  C   UNL     1       1.227   2.773  21.534  0.00  0.00    +0.000 C 
ATOM     14  C   UNL     1       1.820   3.982  20.835  0.00  0.00    +0.000 C 
ENDBRANCH  11  14
ENDBRANCH   1  11
BRANCH   7  15
ATOM     15  C   UNL     1       7.502   7.360  16.771  0.00  0.00    +0.000 C 
BRANCH  15  16
ATOM     16  C   UNL     1       7.967   7.861  18.140  0.00  0.00    +0.000 C 
BRANCH  16  17
ATOM     17  C   UNL     1       8.313   9.348  18.106  0.00  0.00    +0.000 C 
BRANCH  17  18
ATOM     18  N   UNL     1       9.178   9.687  19.255  0.00  0.00    +0.000 NA
ATOM     19  H   UNL     1      10.001   9.085  19.335  0.00  0.00    +0.000 HD
BRANCH  18  20
ATOM     20  S   UNL     1       9.726  11.291  19.322  0.00  0.00    +0.000 S 
ATOM     21  O   UNL     1      11.172  11.193  19.296  0.00  0.00    +0.000 OA
ATOM     22  O   UNL     1       9.010  12.014  18.307  0.00  0.00    +0.000 OA
BRANCH  20  23
ATOM     23  C   UNL     1       9.196  11.829  20.969  0.00  0.00    +0.000 C 
BRANCH  23  24
ATOM     24  C   UNL     1       9.753  13.214  21.136  0.00  0.00    +0.000 C 
ATOM     25  C   UNL     1       8.852  14.419  21.019  0.00  0.00    +0.000 C 
ATOM     26  C   UNL     1       9.423  14.035  22.355  0.00  0.00    +0.000 C 
ENDBRANCH  23  24
ENDBRANCH  20  23
ENDBRANCH  18  20
ENDBRANCH  17  18
ENDBRANCH  16  17
ENDBRANCH  15  16
ENDBRANCH   7  15
BRANCH  10  27
ATOM     27  C   UNL     1       2.904   6.684  19.525  0.00  0.00    +0.000 C 
BRANCH  27  28
ATOM     28  C   UNL     1       1.896   7.814  19.778  0.00  0.00    +0.000 A 
ATOM     29  C   UNL     1       1.245   7.897  21.031  0.00  0.00    +0.000 A 
ATOM     30  C   UNL     1       0.491   9.025  21.393  0.00  0.00    +0.000 A 
ATOM     31  C   UNL     1       0.360  10.080  20.500  0.00  0.00    +0.000 A 
ATOM     32  F   UNL     1      -0.315  11.180  20.864  0.00  0.00    +0.000 F 
ATOM     33  C   UNL     1       0.940   9.993  19.243  0.00  0.00    +0.000 A 
ATOM     34  F   UNL     1       0.800  10.998  18.366  0.00  0.00    +0.000 F 
ATOM     35  C   UNL     1       1.706   8.874  18.879  0.00  0.00    +0.000 A 
ENDBRANCH  27  28
ENDBRANCH  10  27
TORSDOF 11
ENDMDL
MODEL 8
REMARK VINA RESULT:      -7.8      1.451      1.683
REMARK  Name = 
REMARK  12 active torsions:
REMARK  status: ('A' for Active; 'I' for Inactive)
REMARK    1  A    between atoms: C_1  and  C_2
REMARK    2  A    between atoms: C_2  and  N_3
REMARK    3  A    between atoms: N_3  and  C_4
REMARK    4  A    between atoms: C_10  and  C_11
REMARK    5  A    between atoms: C_11  and  C_12
REMARK    6  A    between atoms: C_12  and  C_13
REMARK    7  A    between atoms: C_13  and  N_14
REMARK    8  A    between atoms: N_14  and  S_15
REMARK    9  A    between atoms: S_15  and  C_18
REMARK   10  A    between atoms: C_18  and  C_19
REMARK   11  A    between atoms: C_24  and  C_25
REMARK   12  A    between atoms: C_25  and  C_26
REMARK                            x       y       z     vdW  Elec       q    Type
REMARK                         _______ _______ _______ _____ _____    ______ ____
ROOT
ATOM      1  C   UNL     1       2.409   4.320  18.019  0.00  0.00    +0.000 C 
ATOM      2  C   UNL     1       3.278   3.062  17.854  0.00  0.00    +0.000 C 
ATOM      3  C   UNL     1       4.227   3.156  16.690  0.00  0.00    +0.000 C 
ATOM      4  C   UNL     1       5.112   4.354  16.855  0.00  0.00    +0.000 A 
ATOM      5  C   UNL     1       6.425   4.239  16.361  0.00  0.00    +0.000 A 
ATOM      6  C   UNL     1       7.295   5.316  16.400  0.00  0.00    +0.000 A 
ATOM      7  C   UNL     1       6.862   6.535  16.918  0.00  0.00    +0.000 A 
ATOM      8  C   UNL     1       5.545   6.649  17.414  0.00  0.00    +0.000 A 
ATOM      9  C   UNL     1       4.646   5.560  17.426  0.00  0.00    +0.000 A 
ATOM     10  C   UNL     1       3.181   5.707  17.944  0.00  0.00    +0.000 C 
ENDROOT
BRANCH   1  11
ATOM     11  N   UNL     1       1.449   4.082  19.111  0.00  0.00    +0.000 NA
ATOM     12  H   UNL     1       1.462   4.840  19.788  0.00  0.00    +0.000 HD
BRANCH  11  14
ATOM     13  C   UNL     1       1.508   2.941  21.276  0.00  0.00    +0.000 C 
ATOM     14  C   UNL     1       1.565   2.784  19.768  0.00  0.00    +0.000 C 
ENDBRANCH  11  14
ENDBRANCH   1  11
BRANCH   7  15
ATOM     15  C   UNL     1       7.825   7.701  16.937  0.00  0.00    +0.000 C 
BRANCH  15  16
ATOM     16  C   UNL     1       7.956   8.367  18.309  0.00  0.00    +0.000 C 
BRANCH  16  17
ATOM     17  C   UNL     1       8.626   9.735  18.207  0.00  0.00    +0.000 C 
BRANCH  17  18
ATOM     18  N   UNL     1       9.465   9.972  19.400  0.00  0.00    +0.000 NA
ATOM     19  H   UNL     1      10.390   9.539  19.337  0.00  0.00    +0.000 HD
BRANCH  18  20
ATOM     20  S   UNL     1       9.703  11.595  19.829  0.00  0.00    +0.000 S 
ATOM     21  O   UNL     1       8.636  12.318  19.166  0.00  0.00    +0.000 OA
ATOM     22  O   UNL     1       9.848  11.627  21.259  0.00  0.00    +0.000 OA
BRANCH  20  23
ATOM     23  C   UNL     1      11.279  11.995  19.029  0.00  0.00    +0.000 C 
BRANCH  23  24
ATOM     24  C   UNL     1      11.232  13.474  18.770  0.00  0.00    +0.000 C 
ATOM     25  C   UNL     1      12.333  14.147  17.988  0.00  0.00    +0.000 C 
ATOM     26  C   UNL     1      10.963  14.007  17.387  0.00  0.00    +0.000 C 
ENDBRANCH  23  24
ENDBRANCH  20  23
ENDBRANCH  18  20
ENDBRANCH  17  18
ENDBRANCH  16  17
ENDBRANCH  15  16
ENDBRANCH   7  15
BRANCH  10  27
ATOM     27  C   UNL     1       3.032   6.653  19.198  0.00  0.00    +0.000 C 
BRANCH  27  28
ATOM     28  C   UNL     1       2.182   7.931  19.177  0.00  0.00    +0.000 A 
ATOM     29  C   UNL     1       1.874   8.540  17.937  0.00  0.00    +0.000 A 
ATOM     30  C   UNL     1       0.925   9.572  17.842  0.00  0.00    +0.000 A 
ATOM     31  C   UNL     1       0.283  10.023  18.987  0.00  0.00    +0.000 A 
ATOM     32  F   UNL     1      -0.661  10.970  18.892  0.00  0.00    +0.000 F 
ATOM     33  C   UNL     1       0.614   9.480  20.220  0.00  0.00    +0.000 A 
ATOM     34  F   UNL     1       0.015   9.926  21.335  0.00  0.00    +0.000 F 
ATOM     35  C   UNL     1       1.552   8.441  20.322  0.00  0.00    +0.000 A 
ENDBRANCH  27  28
ENDBRANCH  10  27
TORSDOF 11
ENDMDL
MODEL 9
REMARK VINA RESULT:      -7.7      4.563      8.512
REMARK  Name = 
REMARK  12 active torsions:
REMARK  status: ('A' for Active; 'I' for Inactive)
REMARK    1  A    between atoms: C_1  and  C_2
REMARK    2  A    between atoms: C_2  and  N_3
REMARK    3  A    between atoms: N_3  and  C_4
REMARK    4  A    between atoms: C_10  and  C_11
REMARK    5  A    between atoms: C_11  and  C_12
REMARK    6  A    between atoms: C_12  and  C_13
REMARK    7  A    between atoms: C_13  and  N_14
REMARK    8  A    between atoms: N_14  and  S_15
REMARK    9  A    between atoms: S_15  and  C_18
REMARK   10  A    between atoms: C_18  and  C_19
REMARK   11  A    between atoms: C_24  and  C_25
REMARK   12  A    between atoms: C_25  and  C_26
REMARK                            x       y       z     vdW  Elec       q    Type
REMARK                         _______ _______ _______ _____ _____    ______ ____
ROOT
ATOM      1  C   UNL     1      -1.620  12.060  21.771  0.00  0.00    +0.000 C 
ATOM      2  C   UNL     1      -0.936  11.382  22.970  0.00  0.00    +0.000 C 
ATOM      3  C   UNL     1      -0.754   9.901  22.776  0.00  0.00    +0.000 C 
ATOM      4  C   UNL     1       0.049   9.647  21.537  0.00  0.00    +0.000 A 
ATOM      5  C   UNL     1       0.902   8.528  21.558  0.00  0.00    +0.000 A 
ATOM      6  C   UNL     1       1.629   8.168  20.435  0.00  0.00    +0.000 A 
ATOM      7  C   UNL     1       1.502   8.912  19.264  0.00  0.00    +0.000 A 
ATOM      8  C   UNL     1       0.647  10.036  19.244  0.00  0.00    +0.000 A 
ATOM      9  C   UNL     1      -0.076  10.453  20.382  0.00  0.00    +0.000 A 
ATOM     10  C   UNL     1      -1.046  11.676  20.339  0.00  0.00    +0.000 C 
ENDROOT
BRANCH   1  11
ATOM     11  N   UNL     1      -1.846  13.477  22.104  0.00  0.00    +0.000 NA
ATOM     12  H   UNL     1      -1.412  14.093  21.423  0.00  0.00    +0.000 HD
BRANCH  11  14
ATOM     13  C   UNL     1      -0.782  15.203  23.477  0.00  0.00    +0.000 C 
ATOM     14  C   UNL     1      -1.486  13.859  23.467  0.00  0.00    +0.000 C 
ENDBRANCH  11  14
ENDBRANCH   1  11
BRANCH   7  15
ATOM     15  C   UNL     1       2.295   8.492  18.046  0.00  0.00    +0.000 C 
BRANCH  15  16
ATOM     16  C   UNL     1       2.423   6.974  17.891  0.00  0.00    +0.000 C 
BRANCH  16  17
ATOM     17  C   UNL     1       3.878   6.522  17.981  0.00  0.00    +0.000 C 
BRANCH  17  18
ATOM     18  N   UNL     1       4.048   5.607  19.128  0.00  0.00    +0.000 NA
ATOM     19  H   UNL     1       3.206   5.516  19.702  0.00  0.00    +0.000 HD
BRANCH  18  20
ATOM     20  S   UNL     1       4.566   4.036  18.754  0.00  0.00    +0.000 S 
ATOM     21  O   UNL     1       4.349   3.900  17.327  0.00  0.00    +0.000 OA
ATOM     22  O   UNL     1       5.877   3.887  19.325  0.00  0.00    +0.000 OA
BRANCH  20  23
ATOM     23  C   UNL     1       3.374   2.998  19.638  0.00  0.00    +0.000 C 
BRANCH  23  24
ATOM     24  C   UNL     1       2.030   3.609  19.364  0.00  0.00    +0.000 C 
ATOM     25  C   UNL     1       0.818   2.732  19.164  0.00  0.00    +0.000 C 
ATOM     26  C   UNL     1       0.940   3.573  20.404  0.00  0.00    +0.000 C 
ENDBRANCH  23  24
ENDBRANCH  20  23
ENDBRANCH  18  20
ENDBRANCH  17  18
ENDBRANCH  16  17
ENDBRANCH  15  16
ENDBRANCH   7  15
BRANCH  10  27
ATOM     27  C   UNL     1      -0.533  12.874  19.452  0.00  0.00    +0.000 C 
BRANCH  27  28
ATOM     28  C   UNL     1       0.909  13.399  19.519  0.00  0.00    +0.000 A 
ATOM     29  C   UNL     1       1.685  13.448  18.337  0.00  0.00    +0.000 A 
ATOM     30  C   UNL     1       2.918  14.119  18.297  0.00  0.00    +0.000 A 
ATOM     31  C   UNL     1       3.403  14.735  19.442  0.00  0.00    +0.000 A 
ATOM     32  F   UNL     1       4.554  15.422  19.392  0.00  0.00    +0.000 F 
ATOM     33  C   UNL     1       2.686  14.648  20.626  0.00  0.00    +0.000 A 
ATOM     34  F   UNL     1       3.159  15.221  21.743  0.00  0.00    +0.000 F 
ATOM     35  C   UNL     1       1.447  13.990  20.671  0.00  0.00    +0.000 A 
ENDBRANCH  27  28
ENDBRANCH  10  27
TORSDOF 11
ENDMDL
