MODEL 1
REMARK VINA RESULT:      -6.0      0.000      0.000
REMARK  Name = 
REMARK  8 active torsions:
REMARK  status: ('A' for Active; 'I' for Inactive)
REMARK    1  A    between atoms: C_1  and  C_2
REMARK    2  A    between atoms: C_2  and  O_3
REMARK    3  A    between atoms: O_3  and  C_4
REMARK    4  A    between atoms: C_4  and  C_6
REMARK    5  A    between atoms: C_8  and  C_9
REMARK    6  A    between atoms: C_11  and  S_12
REMARK    7  A    between atoms: S_12  and  C_13
REMARK    8  A    between atoms: C_15  and  C_16
REMARK                            x       y       z     vdW  Elec       q    Type
REMARK                         _______ _______ _______ _____ _____    ______ ____
ROOT
ATOM      1  C   UNL     1       5.887   4.843  17.473  0.00  0.00    +0.000 A 
ATOM      2  C   UNL     1       4.584   4.490  17.099  0.00  0.00    +0.000 A 
ATOM      3  C   UNL     1       3.534   4.597  18.023  0.00  0.00    +0.000 A 
ATOM      4  C   UNL     1       3.823   5.061  19.306  0.00  0.00    +0.000 A 
ATOM      5  N   UNL     1       5.078   5.426  19.666  0.00  0.00    +0.000 NA
ATOM      6  C   UNL     1       6.091   5.324  18.767  0.00  0.00    +0.000 A 
ATOM      7  C   UNL     1       7.424   5.809  19.259  0.00  0.00    +0.000 C 
ENDROOT
BRANCH   1   8
ATOM      8  C   UNL     1       7.018   4.744  16.526  0.00  0.00    +0.000 C 
ATOM      9  O   UNL     1       8.078   4.194  16.784  0.00  0.00    +0.000 OA
BRANCH   8  10
ATOM     10  O   UNL     1       6.743   5.473  15.419  0.00  0.00    +0.000 OA
BRANCH  10  12
ATOM     11  C   UNL     1       6.002   3.969  13.723  0.00  0.00    +0.000 C 
ATOM     12  C   UNL     1       7.144   4.856  14.186  0.00  0.00    +0.000 C 
ENDBRANCH  10  12
ENDBRANCH   8  10
ENDBRANCH   1   8
BRANCH   3  13
ATOM     13  C   UNL     1       2.213   4.225  17.618  0.00  0.00    +0.000 C 
ATOM     14  N   UNL     1       1.145   3.883  17.320  0.00  0.00    +0.000 NA
ENDBRANCH   3  13
BRANCH   4  15
ATOM     15  S   UNL     1       2.578   5.217  20.581  0.00  0.00    +0.000 S 
ATOM     16  C   UNL     1       1.999   6.913  20.280  0.00  0.00    +0.000 C 
ENDBRANCH   4  15
TORSDOF 5
ENDMDL
MODEL 2
REMARK VINA RESULT:      -5.9      3.108      4.565
REMARK  Name = 
REMARK  8 active torsions:
REMARK  status: ('A' for Active; 'I' for Inactive)
REMARK    1  A    between atoms: C_1  and  C_2
REMARK    2  A    between atoms: C_2  and  O_3
REMARK    3  A    between atoms: O_3  and  C_4
REMARK    4  A    between atoms: C_4  and  C_6
REMARK    5  A    between atoms: C_8  and  C_9
REMARK    6  A    between atoms: C_11  and  S_12
REMARK    7  A    between atoms: S_12  and  C_13
REMARK    8  A    between atoms: C_15  and  C_16
REMARK                            x       y       z     vdW  Elec       q    Type
REMARK                         _______ _______ _______ _____ _____    ______ ____
ROOT
ATOM      1  C   UNL     1       6.197   3.941  13.734  0.00  0.00    +0.000 A 
ATOM      2  C   UNL     1       5.386   3.569  14.814  0.00  0.00    +0.000 A 
ATOM      3  C   UNL     1       5.624   4.105  16.089  0.00  0.00    +0.000 A 
ATOM      4  C   UNL     1       6.675   5.006  16.244  0.00  0.00    +0.000 A 
ATOM      5  N   UNL     1       7.449   5.387  15.198  0.00  0.00    +0.000 NA
ATOM      6  C   UNL     1       7.213   4.869  13.965  0.00  0.00    +0.000 A 
ATOM      7  C   UNL     1       8.094   5.406  12.875  0.00  0.00    +0.000 C 
ENDROOT
BRANCH   1   8
ATOM      8  C   UNL     1       5.975   3.398  12.377  0.00  0.00    +0.000 C 
ATOM      9  O   UNL     1       6.776   2.689  11.786  0.00  0.00    +0.000 OA
BRANCH   8  10
ATOM     10  O   UNL     1       4.842   3.927  11.860  0.00  0.00    +0.000 OA
BRANCH  10  12
ATOM     11  C   UNL     1       3.190   3.775  10.147  0.00  0.00    +0.000 C 
ATOM     12  C   UNL     1       4.020   2.990  11.147  0.00  0.00    +0.000 C 
ENDBRANCH  10  12
ENDBRANCH   8  10
ENDBRANCH   1   8
BRANCH   3  13
ATOM     13  C   UNL     1       4.784   3.704  17.176  0.00  0.00    +0.000 C 
ATOM     14  N   UNL     1       4.120   3.419  18.084  0.00  0.00    +0.000 NA
ENDBRANCH   3  13
BRANCH   4  15
ATOM     15  S   UNL     1       7.097   5.737  17.822  0.00  0.00    +0.000 S 
ATOM     16  C   UNL     1       7.427   7.453  17.321  0.00  0.00    +0.000 C 
ENDBRANCH   4  15
TORSDOF 5
ENDMDL
MODEL 3
REMARK VINA RESULT:      -5.9      1.216      1.321
REMARK  Name = 
REMARK  8 active torsions:
REMARK  status: ('A' for Active; 'I' for Inactive)
REMARK    1  A    between atoms: C_1  and  C_2
REMARK    2  A    between atoms: C_2  and  O_3
REMARK    3  A    between atoms: O_3  and  C_4
REMARK    4  A    between atoms: C_4  and  C_6
REMARK    5  A    between atoms: C_8  and  C_9
REMARK    6  A    between atoms: C_11  and  S_12
REMARK    7  A    between atoms: S_12  and  C_13
REMARK    8  A    between atoms: C_15  and  C_16
REMARK                            x       y       z     vdW  Elec       q    Type
REMARK                         _______ _______ _______ _____ _____    ______ ____
ROOT
ATOM      1  C   UNL     1       6.206   4.918  17.323  0.00  0.00    +0.000 A 
ATOM      2  C   UNL     1       4.997   4.329  16.934  0.00  0.00    +0.000 A 
ATOM      3  C   UNL     1       4.131   3.796  17.902  0.00  0.00    +0.000 A 
ATOM      4  C   UNL     1       4.507   3.872  19.242  0.00  0.00    +0.000 A 
ATOM      5  N   UNL     1       5.666   4.462  19.626  0.00  0.00    +0.000 NA
ATOM      6  C   UNL     1       6.499   4.980  18.686  0.00  0.00    +0.000 A 
ATOM      7  C   UNL     1       7.723   5.657  19.230  0.00  0.00    +0.000 C 
ENDROOT
BRANCH   1   8
ATOM      8  C   UNL     1       7.142   5.490  16.331  0.00  0.00    +0.000 C 
ATOM      9  O   UNL     1       7.474   6.666  16.305  0.00  0.00    +0.000 OA
BRANCH   8  10
ATOM     10  O   UNL     1       7.436   4.555  15.399  0.00  0.00    +0.000 OA
BRANCH  10  12
ATOM     11  C   UNL     1       6.223   3.838  13.474  0.00  0.00    +0.000 C 
ATOM     12  C   UNL     1       7.104   4.931  14.053  0.00  0.00    +0.000 C 
ENDBRANCH  10  12
ENDBRANCH   8  10
ENDBRANCH   1   8
BRANCH   3  13
ATOM     13  C   UNL     1       2.904   3.195  17.479  0.00  0.00    +0.000 C 
ATOM     14  N   UNL     1       1.892   2.752  17.123  0.00  0.00    +0.000 NA
ENDBRANCH   3  13
BRANCH   4  15
ATOM     15  S   UNL     1       3.505   3.207  20.566  0.00  0.00    +0.000 S 
ATOM     16  C   UNL     1       2.354   4.586  20.844  0.00  0.00    +0.000 C 
ENDBRANCH   4  15
TORSDOF 5
ENDMDL
MODEL 4
REMARK VINA RESULT:      -5.9      1.554      2.005
REMARK  Name = 
REMARK  8 active torsions:
REMARK  status: ('A' for Active; 'I' for Inactive)
REMARK    1  A    between atoms: C_1  and  C_2
REMARK    2  A    between atoms: C_2  and  O_3
REMARK    3  A    between atoms: O_3  and  C_4
REMARK    4  A    between atoms: C_4  and  C_6
REMARK    5  A    between atoms: C_8  and  C_9
REMARK    6  A    between atoms: C_11  and  S_12
REMARK    7  A    between atoms: S_12  and  C_13
REMARK    8  A    between atoms: C_15  and  C_16
REMARK                            x       y       z     vdW  Elec       q    Type
REMARK                         _______ _______ _______ _____ _____    ______ ____
ROOT
ATOM      1  C   UNL     1       5.585   5.563  17.351  0.00  0.00    +0.000 A 
ATOM      2  C   UNL     1       4.238   5.265  17.115  0.00  0.00    +0.000 A 
ATOM      3  C   UNL     1       3.538   4.429  17.998  0.00  0.00    +0.000 A 
ATOM      4  C   UNL     1       4.215   3.914  19.102  0.00  0.00    +0.000 A 
ATOM      5  N   UNL     1       5.513   4.218  19.348  0.00  0.00    +0.000 NA
ATOM      6  C   UNL     1       6.186   5.031  18.493  0.00  0.00    +0.000 A 
ATOM      7  C   UNL     1       7.598   5.343  18.896  0.00  0.00    +0.000 C 
ENDROOT
BRANCH   1   8
ATOM      8  C   UNL     1       6.354   6.440  16.443  0.00  0.00    +0.000 C 
ATOM      9  O   UNL     1       6.889   7.483  16.790  0.00  0.00    +0.000 OA
BRANCH   8  10
ATOM     10  O   UNL     1       6.238   5.986  15.173  0.00  0.00    +0.000 OA
BRANCH  10  12
ATOM     11  C   UNL     1       6.198   3.961  13.913  0.00  0.00    +0.000 C 
ATOM     12  C   UNL     1       6.997   4.798  14.895  0.00  0.00    +0.000 C 
ENDBRANCH  10  12
ENDBRANCH   8  10
ENDBRANCH   1   8
BRANCH   3  13
ATOM     13  C   UNL     1       2.163   4.135  17.732  0.00  0.00    +0.000 C 
ATOM     14  N   UNL     1       1.059   3.848  17.519  0.00  0.00    +0.000 NA
ENDBRANCH   3  13
BRANCH   4  15
ATOM     15  S   UNL     1       3.442   2.817  20.286  0.00  0.00    +0.000 S 
ATOM     16  C   UNL     1       4.792   1.636  20.582  0.00  0.00    +0.000 C 
ENDBRANCH   4  15
TORSDOF 5
ENDMDL
MODEL 5
REMARK VINA RESULT:      -5.9      2.481      3.370
REMARK  Name = 
REMARK  8 active torsions:
REMARK  status: ('A' for Active; 'I' for Inactive)
REMARK    1  A    between atoms: C_1  and  C_2
REMARK    2  A    between atoms: C_2  and  O_3
REMARK    3  A    between atoms: O_3  and  C_4
REMARK    4  A    between atoms: C_4  and  C_6
REMARK    5  A    between atoms: C_8  and  C_9
REMARK    6  A    between atoms: C_11  and  S_12
REMARK    7  A    between atoms: S_12  and  C_13
REMARK    8  A    between atoms: C_15  and  C_16
REMARK                            x       y       z     vdW  Elec       q    Type
REMARK                         _______ _______ _______ _____ _____    ______ ____
ROOT
ATOM      1  C   UNL     1       4.335   5.724  17.529  0.00  0.00    +0.000 A 
ATOM      2  C   UNL     1       4.458   4.333  17.636  0.00  0.00    +0.000 A 
ATOM      3  C   UNL     1       3.464   3.588  18.289  0.00  0.00    +0.000 A 
ATOM      4  C   UNL     1       2.367   4.266  18.820  0.00  0.00    +0.000 A 
ATOM      5  N   UNL     1       2.233   5.609  18.700  0.00  0.00    +0.000 NA
ATOM      6  C   UNL     1       3.195   6.326  18.062  0.00  0.00    +0.000 A 
ATOM      7  C   UNL     1       2.911   7.795  17.940  0.00  0.00    +0.000 C 
ENDROOT
BRANCH   1   8
ATOM      8  C   UNL     1       5.361   6.541  16.847  0.00  0.00    +0.000 C 
ATOM      9  O   UNL     1       5.353   6.788  15.650  0.00  0.00    +0.000 OA
BRANCH   8  10
ATOM     10  O   UNL     1       6.357   6.830  17.716  0.00  0.00    +0.000 OA
BRANCH  10  12
ATOM     11  C   UNL     1       7.922   8.628  17.796  0.00  0.00    +0.000 C 
ATOM     12  C   UNL     1       7.556   7.328  17.102  0.00  0.00    +0.000 C 
ENDBRANCH  10  12
ENDBRANCH   8  10
ENDBRANCH   1   8
BRANCH   3  13
ATOM     13  C   UNL     1       3.615   2.169  18.390  0.00  0.00    +0.000 C 
ATOM     14  N   UNL     1       3.706   1.018  18.510  0.00  0.00    +0.000 NA
ENDBRANCH   3  13
BRANCH   4  15
ATOM     15  S   UNL     1       1.049   3.434  19.698  0.00  0.00    +0.000 S 
ATOM     16  C   UNL     1       1.787   3.288  21.353  0.00  0.00    +0.000 C 
ENDBRANCH   4  15
TORSDOF 5
ENDMDL
MODEL 6
REMARK VINA RESULT:      -5.9      3.362      5.163
REMARK  Name = 
REMARK  8 active torsions:
REMARK  status: ('A' for Active; 'I' for Inactive)
REMARK    1  A    between atoms: C_1  and  C_2
REMARK    2  A    between atoms: C_2  and  O_3
REMARK    3  A    between atoms: O_3  and  C_4
REMARK    4  A    between atoms: C_4  and  C_6
REMARK    5  A    between atoms: C_8  and  C_9
REMARK    6  A    between atoms: C_11  and  S_12
REMARK    7  A    between atoms: S_12  and  C_13
REMARK    8  A    between atoms: C_15  and  C_16
REMARK                            x       y       z     vdW  Elec       q    Type
REMARK                         _______ _______ _______ _____ _____    ______ ____
ROOT
ATOM      1  C   UNL     1       3.475   3.549  18.208  0.00  0.00    +0.000 A 
ATOM      2  C   UNL     1       3.689   4.462  17.168  0.00  0.00    +0.000 A 
ATOM      3  C   UNL     1       4.908   5.151  17.079  0.00  0.00    +0.000 A 
ATOM      4  C   UNL     1       5.884   4.902  18.043  0.00  0.00    +0.000 A 
ATOM      5  N   UNL     1       5.690   4.003  19.038  0.00  0.00    +0.000 NA
ATOM      6  C   UNL     1       4.510   3.334  19.118  0.00  0.00    +0.000 A 
ATOM      7  C   UNL     1       4.430   2.324  20.226  0.00  0.00    +0.000 C 
ENDROOT
BRANCH   1   8
ATOM      8  C   UNL     1       2.204   2.804  18.332  0.00  0.00    +0.000 C 
ATOM      9  O   UNL     1       2.062   1.635  18.005  0.00  0.00    +0.000 OA
BRANCH   8  10
ATOM     10  O   UNL     1       1.221   3.652  18.714  0.00  0.00    +0.000 OA
BRANCH  10  12
ATOM     11  C   UNL     1       1.439   4.942  20.708  0.00  0.00    +0.000 C 
ATOM     12  C   UNL     1       0.935   3.636  20.122  0.00  0.00    +0.000 C 
ENDBRANCH  10  12
ENDBRANCH   8  10
ENDBRANCH   1   8
BRANCH   3  13
ATOM     13  C   UNL     1       5.102   6.083  16.010  0.00  0.00    +0.000 C 
ATOM     14  N   UNL     1       5.295   6.809  15.125  0.00  0.00    +0.000 NA
ENDBRANCH   3  13
BRANCH   4  15
ATOM     15  S   UNL     1       7.467   5.736  18.054  0.00  0.00    +0.000 S 
ATOM     16  C   UNL     1       7.905   5.602  19.813  0.00  0.00    +0.000 C 
ENDBRANCH   4  15
TORSDOF 5
ENDMDL
MODEL 7
REMARK VINA RESULT:      -5.8      2.189      3.324
REMARK  Name = 
REMARK  8 active torsions:
REMARK  status: ('A' for Active; 'I' for Inactive)
REMARK    1  A    between atoms: C_1  and  C_2
REMARK    2  A    between atoms: C_2  and  O_3
REMARK    3  A    between atoms: O_3  and  C_4
REMARK    4  A    between atoms: C_4  and  C_6
REMARK    5  A    between atoms: C_8  and  C_9
REMARK    6  A    between atoms: C_11  and  S_12
REMARK    7  A    between atoms: S_12  and  C_13
REMARK    8  A    between atoms: C_15  and  C_16
REMARK                            x       y       z     vdW  Elec       q    Type
REMARK                         _______ _______ _______ _____ _____    ______ ____
ROOT
ATOM      1  C   UNL     1       4.701   5.950  17.483  0.00  0.00    +0.000 A 
ATOM      2  C   UNL     1       4.990   4.689  18.019  0.00  0.00    +0.000 A 
ATOM      3  C   UNL     1       4.241   4.197  19.099  0.00  0.00    +0.000 A 
ATOM      4  C   UNL     1       3.216   4.990  19.613  0.00  0.00    +0.000 A 
ATOM      5  N   UNL     1       2.918   6.202  19.083  0.00  0.00    +0.000 NA
ATOM      6  C   UNL     1       3.642   6.673  18.035  0.00  0.00    +0.000 A 
ATOM      7  C   UNL     1       3.186   7.997  17.496  0.00  0.00    +0.000 C 
ENDROOT
BRANCH   1   8
ATOM      8  C   UNL     1       5.467   6.501  16.344  0.00  0.00    +0.000 C 
ATOM      9  O   UNL     1       4.970   6.811  15.272  0.00  0.00    +0.000 OA
BRANCH   8  10
ATOM     10  O   UNL     1       6.789   6.460  16.630  0.00  0.00    +0.000 OA
BRANCH  10  12
ATOM     11  C   UNL     1       8.055   6.971  18.586  0.00  0.00    +0.000 C 
ATOM     12  C   UNL     1       7.258   7.555  17.433  0.00  0.00    +0.000 C 
ENDBRANCH  10  12
ENDBRANCH   8  10
ENDBRANCH   1   8
BRANCH   3  13
ATOM     13  C   UNL     1       4.559   2.908  19.632  0.00  0.00    +0.000 C 
ATOM     14  N   UNL     1       4.783   1.870  20.101  0.00  0.00    +0.000 NA
ENDBRANCH   3  13
BRANCH   4  15
ATOM     15  S   UNL     1       2.209   4.487  21.003  0.00  0.00    +0.000 S 
ATOM     16  C   UNL     1       0.880   3.589  20.150  0.00  0.00    +0.000 C 
ENDBRANCH   4  15
TORSDOF 5
ENDMDL
MODEL 8
REMARK VINA RESULT:      -5.8      1.142      1.398
REMARK  Name = 
REMARK  8 active torsions:
REMARK  status: ('A' for Active; 'I' for Inactive)
REMARK    1  A    between atoms: C_1  and  C_2
REMARK    2  A    between atoms: C_2  and  O_3
REMARK    3  A    between atoms: O_3  and  C_4
REMARK    4  A    between atoms: C_4  and  C_6
REMARK    5  A    between atoms: C_8  and  C_9
REMARK    6  A    between atoms: C_11  and  S_12
REMARK    7  A    between atoms: S_12  and  C_13
REMARK    8  A    between atoms: C_15  and  C_16
REMARK                            x       y       z     vdW  Elec       q    Type
REMARK                         _______ _______ _______ _____ _____    ______ ____
ROOT
ATOM      1  C   UNL     1       5.777   4.806  16.914  0.00  0.00    +0.000 A 
ATOM      2  C   UNL     1       4.420   4.554  16.679  0.00  0.00    +0.000 A 
ATOM      3  C   UNL     1       3.521   4.488  17.755  0.00  0.00    +0.000 A 
ATOM      4  C   UNL     1       4.014   4.681  19.045  0.00  0.00    +0.000 A 
ATOM      5  N   UNL     1       5.323   4.948  19.276  0.00  0.00    +0.000 NA
ATOM      6  C   UNL     1       6.189   5.015  18.231  0.00  0.00    +0.000 A 
ATOM      7  C   UNL     1       7.599   5.372  18.601  0.00  0.00    +0.000 C 
ENDROOT
BRANCH   1   8
ATOM      8  C   UNL     1       6.753   4.883  15.806  0.00  0.00    +0.000 C 
ATOM      9  O   UNL     1       7.498   5.833  15.617  0.00  0.00    +0.000 OA
BRANCH   8  10
ATOM     10  O   UNL     1       6.576   3.828  14.977  0.00  0.00    +0.000 OA
BRANCH  10  12
ATOM     11  C   UNL     1       5.492   3.556  12.870  0.00  0.00    +0.000 C 
ATOM     12  C   UNL     1       6.700   4.141  13.581  0.00  0.00    +0.000 C 
ENDBRANCH  10  12
ENDBRANCH   8  10
ENDBRANCH   1   8
BRANCH   3  13
ATOM     13  C   UNL     1       2.140   4.223  17.489  0.00  0.00    +0.000 C 
ATOM     14  N   UNL     1       1.010   4.022  17.320  0.00  0.00    +0.000 NA
ENDBRANCH   3  13
BRANCH   4  15
ATOM     15  S   UNL     1       2.976   4.595  20.499  0.00  0.00    +0.000 S 
ATOM     16  C   UNL     1       2.986   2.805  20.816  0.00  0.00    +0.000 C 
ENDBRANCH   4  15
TORSDOF 5
ENDMDL
MODEL 9
REMARK VINA RESULT:      -5.8      2.056      3.371
REMARK  Name = 
REMARK  8 active torsions:
REMARK  status: ('A' for Active; 'I' for Inactive)
REMARK    1  A    between atoms: C_1  and  C_2
REMARK    2  A    between atoms: C_2  and  O_3
REMARK    3  A    between atoms: O_3  and  C_4
REMARK    4  A    between atoms: C_4  and  C_6
REMARK    5  A    between atoms: C_8  and  C_9
REMARK    6  A    between atoms: C_11  and  S_12
REMARK    7  A    between atoms: S_12  and  C_13
REMARK    8  A    between atoms: C_15  and  C_16
REMARK                            x       y       z     vdW  Elec       q    Type
REMARK                         _______ _______ _______ _____ _____    ______ ____
ROOT
ATOM      1  C   UNL     1       4.780   5.465  16.934  0.00  0.00    +0.000 A 
ATOM      2  C   UNL     1       3.979   5.882  18.005  0.00  0.00    +0.000 A 
ATOM      3  C   UNL     1       3.285   4.934  18.773  0.00  0.00    +0.000 A 
ATOM      4  C   UNL     1       3.417   3.587  18.443  0.00  0.00    +0.000 A 
ATOM      5  N   UNL     1       4.209   3.176  17.422  0.00  0.00    +0.000 NA
ATOM      6  C   UNL     1       4.882   4.096  16.683  0.00  0.00    +0.000 A 
ATOM      7  C   UNL     1       5.771   3.523  15.618  0.00  0.00    +0.000 C 
ENDROOT
BRANCH   1   8
ATOM      8  C   UNL     1       5.526   6.434  16.103  0.00  0.00    +0.000 C 
ATOM      9  O   UNL     1       5.031   7.068  15.183  0.00  0.00    +0.000 OA
BRANCH   8  10
ATOM     10  O   UNL     1       6.839   6.388  16.427  0.00  0.00    +0.000 OA
BRANCH  10  12
ATOM     11  C   UNL     1       7.841   6.519  18.587  0.00  0.00    +0.000 C 
ATOM     12  C   UNL     1       7.233   7.318  17.448  0.00  0.00    +0.000 C 
ENDBRANCH  10  12
ENDBRANCH   8  10
ENDBRANCH   1   8
BRANCH   3  13
ATOM     13  C   UNL     1       2.469   5.386  19.859  0.00  0.00    +0.000 C 
ATOM     14  N   UNL     1       1.835   5.724  20.770  0.00  0.00    +0.000 NA
ENDBRANCH   3  13
BRANCH   4  15
ATOM     15  S   UNL     1       2.564   2.287  19.328  0.00  0.00    +0.000 S 
ATOM     16  C   UNL     1       0.889   2.457  18.644  0.00  0.00    +0.000 C 
ENDBRANCH   4  15
TORSDOF 5
ENDMDL
