MODEL 1
REMARK VINA RESULT:      -7.2      0.000      0.000
REMARK  Name = 
REMARK  6 active torsions:
REMARK  status: ('A' for Active; 'I' for Inactive)
REMARK    1  A    between atoms: C_1  and  C_2
REMARK    2  A    between atoms: C_2  and  C_3
REMARK    3  A    between atoms: C_3  and  N_4
REMARK    4  A    between atoms: C_3  and  C_18
REMARK    5  A    between atoms: C_11  and  O_12
REMARK    6  A    between atoms: O_12  and  C_13
REMARK                            x       y       z     vdW  Elec       q    Type
REMARK                         _______ _______ _______ _____ _____    ______ ____
ROOT
ATOM      1  N   UNL     1       6.213   4.964  14.621  0.00  0.00    +0.000 N 
ATOM      2  C   UNL     1       6.839   5.061  15.839  0.00  0.00    +0.000 C 
ATOM      3  O   UNL     1       7.874   4.470  16.100  0.00  0.00    +0.000 OA
ATOM      4  N   UNL     1       6.196   5.924  16.716  0.00  0.00    +0.000 N 
ATOM      5  C   UNL     1       6.819   6.210  18.003  0.00  0.00    +0.000 C 
ATOM      6  C   UNL     1       6.224   5.325  19.099  0.00  0.00    +0.000 C 
ATOM      7  C   UNL     1       4.693   5.406  19.117  0.00  0.00    +0.000 C 
ATOM      8  C   UNL     1       4.080   5.160  17.726  0.00  0.00    +0.000 C 
ATOM      9  C   UNL     1       4.746   6.099  16.708  0.00  0.00    +0.000 C 
ATOM     10  H   UNL     1       5.758   5.824  14.349  0.00  0.00    +0.000 HD
ENDROOT
BRANCH   1  11
ATOM     11  C   UNL     1       6.800   4.222  13.501  0.00  0.00    +0.000 C 
BRANCH  11  12
ATOM     12  C   UNL     1       5.832   3.198  12.879  0.00  0.00    +0.000 C 
ATOM     13  F   UNL     1       4.707   3.834  12.459  0.00  0.00    +0.000 F 
ATOM     14  F   UNL     1       6.404   2.673  11.759  0.00  0.00    +0.000 F 
ENDBRANCH  11  12
BRANCH  11  16
ATOM     15  C   UNL     1       8.656   5.861  12.854  0.00  0.00    +0.000 C 
ATOM     16  C   UNL     1       7.391   5.135  12.416  0.00  0.00    +0.000 C 
ENDBRANCH  11  16
ENDBRANCH   1  11
BRANCH   8  17
ATOM     17  O   UNL     1       2.667   5.383  17.802  0.00  0.00    +0.000 OA
BRANCH  17  18
ATOM     18  C   UNL     1       1.798   4.226  17.743  0.00  0.00    +0.000 C 
ATOM     19  C   UNL     1       2.458   2.849  17.521  0.00  0.00    +0.000 C 
ATOM     20  C   UNL     1       1.629   2.286  18.683  0.00  0.00    +0.000 C 
ATOM     21  C   UNL     1       1.282   3.720  19.102  0.00  0.00    +0.000 C 
ENDBRANCH  17  18
ENDBRANCH   8  17
TORSDOF 5
ENDMDL
MODEL 2
REMARK VINA RESULT:      -7.0      2.829      6.260
REMARK  Name = 
REMARK  6 active torsions:
REMARK  status: ('A' for Active; 'I' for Inactive)
REMARK    1  A    between atoms: C_1  and  C_2
REMARK    2  A    between atoms: C_2  and  C_3
REMARK    3  A    between atoms: C_3  and  N_4
REMARK    4  A    between atoms: C_3  and  C_18
REMARK    5  A    between atoms: C_11  and  O_12
REMARK    6  A    between atoms: O_12  and  C_13
REMARK                            x       y       z     vdW  Elec       q    Type
REMARK                         _______ _______ _______ _____ _____    ______ ____
ROOT
ATOM      1  N   UNL     1       3.900   3.792  18.398  0.00  0.00    +0.000 N 
ATOM      2  C   UNL     1       4.926   4.529  18.935  0.00  0.00    +0.000 C 
ATOM      3  O   UNL     1       4.839   5.099  20.010  0.00  0.00    +0.000 OA
ATOM      4  N   UNL     1       6.072   4.521  18.151  0.00  0.00    +0.000 N 
ATOM      5  C   UNL     1       7.276   5.167  18.660  0.00  0.00    +0.000 C 
ATOM      6  C   UNL     1       7.407   6.583  18.099  0.00  0.00    +0.000 C 
ATOM      7  C   UNL     1       7.295   6.594  16.569  0.00  0.00    +0.000 C 
ATOM      8  C   UNL     1       6.043   5.848  16.072  0.00  0.00    +0.000 C 
ATOM      9  C   UNL     1       6.013   4.442  16.693  0.00  0.00    +0.000 C 
ATOM     10  H   UNL     1       4.228   2.996  17.870  0.00  0.00    +0.000 HD
ENDROOT
BRANCH   1  11
ATOM     11  C   UNL     1       2.651   3.547  19.128  0.00  0.00    +0.000 C 
BRANCH  11  12
ATOM     12  C   UNL     1       1.477   3.166  18.209  0.00  0.00    +0.000 C 
ATOM     13  F   UNL     1       0.409   2.799  18.966  0.00  0.00    +0.000 F 
ATOM     14  F   UNL     1       1.080   4.270  17.516  0.00  0.00    +0.000 F 
ENDBRANCH  11  12
BRANCH  11  16
ATOM     15  C   UNL     1       2.287   3.017  21.605  0.00  0.00    +0.000 C 
ATOM     16  C   UNL     1       2.807   2.522  20.262  0.00  0.00    +0.000 C 
ENDBRANCH  11  16
ENDBRANCH   1  11
BRANCH   8  17
ATOM     17  O   UNL     1       6.083   5.789  14.641  0.00  0.00    +0.000 OA
BRANCH  17  18
ATOM     18  C   UNL     1       6.790   4.682  14.032  0.00  0.00    +0.000 C 
ATOM     19  C   UNL     1       5.982   3.735  13.120  0.00  0.00    +0.000 C 
ATOM     20  C   UNL     1       7.086   3.847  12.059  0.00  0.00    +0.000 C 
ATOM     21  C   UNL     1       7.664   5.048  12.818  0.00  0.00    +0.000 C 
ENDBRANCH  17  18
ENDBRANCH   8  17
TORSDOF 5
ENDMDL
MODEL 3
REMARK VINA RESULT:      -6.9      2.896      4.532
REMARK  Name = 
REMARK  6 active torsions:
REMARK  status: ('A' for Active; 'I' for Inactive)
REMARK    1  A    between atoms: C_1  and  C_2
REMARK    2  A    between atoms: C_2  and  C_3
REMARK    3  A    between atoms: C_3  and  N_4
REMARK    4  A    between atoms: C_3  and  C_18
REMARK    5  A    between atoms: C_11  and  O_12
REMARK    6  A    between atoms: O_12  and  C_13
REMARK                            x       y       z     vdW  Elec       q    Type
REMARK                         _______ _______ _______ _____ _____    ______ ____
ROOT
ATOM      1  N   UNL     1       5.069   4.303  17.981  0.00  0.00    +0.000 N 
ATOM      2  C   UNL     1       4.152   3.341  18.326  0.00  0.00    +0.000 C 
ATOM      3  O   UNL     1       3.892   2.388  17.609  0.00  0.00    +0.000 OA
ATOM      4  N   UNL     1       3.589   3.546  19.578  0.00  0.00    +0.000 N 
ATOM      5  C   UNL     1       2.687   2.535  20.118  0.00  0.00    +0.000 C 
ATOM      6  C   UNL     1       1.230   2.921  19.863  0.00  0.00    +0.000 C 
ATOM      7  C   UNL     1       0.933   4.345  20.351  0.00  0.00    +0.000 C 
ATOM      8  C   UNL     1       1.946   5.370  19.809  0.00  0.00    +0.000 C 
ATOM      9  C   UNL     1       3.371   4.885  20.120  0.00  0.00    +0.000 C 
ATOM     10  H   UNL     1       5.566   4.668  18.781  0.00  0.00    +0.000 HD
ENDROOT
BRANCH   1  11
ATOM     11  C   UNL     1       5.885   4.202  16.767  0.00  0.00    +0.000 C 
BRANCH  11  12
ATOM     12  C   UNL     1       5.301   4.985  15.578  0.00  0.00    +0.000 C 
ATOM     13  F   UNL     1       4.820   6.180  16.013  0.00  0.00    +0.000 F 
ATOM     14  F   UNL     1       6.306   5.282  14.707  0.00  0.00    +0.000 F 
ENDBRANCH  11  12
BRANCH  11  16
ATOM     15  C   UNL     1       7.544   5.693  18.022  0.00  0.00    +0.000 C 
ATOM     16  C   UNL     1       7.356   4.583  16.996  0.00  0.00    +0.000 C 
ENDBRANCH  11  16
ENDBRANCH   1  11
BRANCH   8  17
ATOM     17  O   UNL     1       1.679   6.641  20.413  0.00  0.00    +0.000 OA
BRANCH  17  18
ATOM     18  C   UNL     1       2.172   7.824  19.739  0.00  0.00    +0.000 C 
ATOM     19  C   UNL     1       2.296   7.769  18.202  0.00  0.00    +0.000 C 
ATOM     20  C   UNL     1       1.576   9.122  18.115  0.00  0.00    +0.000 C 
ATOM     21  C   UNL     1       1.151   8.965  19.581  0.00  0.00    +0.000 C 
ENDBRANCH  17  18
ENDBRANCH   8  17
TORSDOF 5
ENDMDL
MODEL 4
REMARK VINA RESULT:      -6.7      2.881      6.270
REMARK  Name = 
REMARK  6 active torsions:
REMARK  status: ('A' for Active; 'I' for Inactive)
REMARK    1  A    between atoms: C_1  and  C_2
REMARK    2  A    between atoms: C_2  and  C_3
REMARK    3  A    between atoms: C_3  and  N_4
REMARK    4  A    between atoms: C_3  and  C_18
REMARK    5  A    between atoms: C_11  and  O_12
REMARK    6  A    between atoms: O_12  and  C_13
REMARK                            x       y       z     vdW  Elec       q    Type
REMARK                         _______ _______ _______ _____ _____    ______ ____
ROOT
ATOM      1  N   UNL     1       3.983   3.840  18.631  0.00  0.00    +0.000 N 
ATOM      2  C   UNL     1       5.044   4.603  19.052  0.00  0.00    +0.000 C 
ATOM      3  O   UNL     1       5.034   5.229  20.099  0.00  0.00    +0.000 OA
ATOM      4  N   UNL     1       6.129   4.554  18.188  0.00  0.00    +0.000 N 
ATOM      5  C   UNL     1       7.366   5.224  18.573  0.00  0.00    +0.000 C 
ATOM      6  C   UNL     1       7.451   6.608  17.931  0.00  0.00    +0.000 C 
ATOM      7  C   UNL     1       7.228   6.539  16.415  0.00  0.00    +0.000 C 
ATOM      8  C   UNL     1       5.945   5.769  16.050  0.00  0.00    +0.000 C 
ATOM      9  C   UNL     1       5.965   4.398  16.744  0.00  0.00    +0.000 C 
ATOM     10  H   UNL     1       4.275   3.017  18.123  0.00  0.00    +0.000 HD
ENDROOT
BRANCH   1  11
ATOM     11  C   UNL     1       2.792   3.636  19.462  0.00  0.00    +0.000 C 
BRANCH  11  12
ATOM     12  C   UNL     1       1.736   4.742  19.290  0.00  0.00    +0.000 C 
ATOM     13  F   UNL     1       1.922   5.698  20.238  0.00  0.00    +0.000 F 
ATOM     14  F   UNL     1       1.936   5.362  18.093  0.00  0.00    +0.000 F 
ENDBRANCH  11  12
BRANCH  11  16
ATOM     15  C   UNL     1       0.735   2.298  18.735  0.00  0.00    +0.000 C 
ATOM     16  C   UNL     1       2.158   2.249  19.275  0.00  0.00    +0.000 C 
ENDBRANCH  11  16
ENDBRANCH   1  11
BRANCH   8  17
ATOM     17  O   UNL     1       5.881   5.636  14.625  0.00  0.00    +0.000 OA
BRANCH  17  18
ATOM     18  C   UNL     1       6.615   4.546  14.017  0.00  0.00    +0.000 C 
ATOM     19  C   UNL     1       5.857   3.641  13.024  0.00  0.00    +0.000 C 
ATOM     20  C   UNL     1       7.022   3.782  12.035  0.00  0.00    +0.000 C 
ATOM     21  C   UNL     1       7.562   4.949  12.872  0.00  0.00    +0.000 C 
ENDBRANCH  17  18
ENDBRANCH   8  17
TORSDOF 5
ENDMDL
MODEL 5
REMARK VINA RESULT:      -6.5      2.819      5.785
REMARK  Name = 
REMARK  6 active torsions:
REMARK  status: ('A' for Active; 'I' for Inactive)
REMARK    1  A    between atoms: C_1  and  C_2
REMARK    2  A    between atoms: C_2  and  C_3
REMARK    3  A    between atoms: C_3  and  N_4
REMARK    4  A    between atoms: C_3  and  C_18
REMARK    5  A    between atoms: C_11  and  O_12
REMARK    6  A    between atoms: O_12  and  C_13
REMARK                            x       y       z     vdW  Elec       q    Type
REMARK                         _______ _______ _______ _____ _____    ______ ____
ROOT
ATOM      1  N   UNL     1       4.344   3.830  18.304  0.00  0.00    +0.000 N 
ATOM      2  C   UNL     1       5.128   4.774  18.920  0.00  0.00    +0.000 C 
ATOM      3  O   UNL     1       4.717   5.494  19.815  0.00  0.00    +0.000 OA
ATOM      4  N   UNL     1       6.433   4.792  18.448  0.00  0.00    +0.000 N 
ATOM      5  C   UNL     1       7.404   5.665  19.097  0.00  0.00    +0.000 C 
ATOM      6  C   UNL     1       7.551   6.976  18.326  0.00  0.00    +0.000 C 
ATOM      7  C   UNL     1       7.837   6.725  16.840  0.00  0.00    +0.000 C 
ATOM      8  C   UNL     1       6.827   5.749  16.209  0.00  0.00    +0.000 C 
ATOM      9  C   UNL     1       6.761   4.470  17.061  0.00  0.00    +0.000 C 
ATOM     10  H   UNL     1       4.866   3.010  18.031  0.00  0.00    +0.000 HD
ENDROOT
BRANCH   1  11
ATOM     11  C   UNL     1       2.976   3.544  18.748  0.00  0.00    +0.000 C 
BRANCH  11  12
ATOM     12  C   UNL     1       1.902   4.051  17.768  0.00  0.00    +0.000 C 
ATOM     13  F   UNL     1       0.676   3.638  18.185  0.00  0.00    +0.000 F 
ATOM     14  F   UNL     1       1.871   5.412  17.811  0.00  0.00    +0.000 F 
ENDBRANCH  11  12
BRANCH  11  16
ATOM     15  C   UNL     1       3.767   1.130  18.440  0.00  0.00    +0.000 C 
ATOM     16  C   UNL     1       2.748   2.062  19.081  0.00  0.00    +0.000 C 
ENDBRANCH  11  16
ENDBRANCH   1  11
BRANCH   8  17
ATOM     17  O   UNL     1       7.239   5.466  14.867  0.00  0.00    +0.000 OA
BRANCH  17  18
ATOM     18  C   UNL     1       6.760   4.242  14.259  0.00  0.00    +0.000 C 
ATOM     19  C   UNL     1       5.263   4.166  13.893  0.00  0.00    +0.000 C 
ATOM     20  C   UNL     1       5.650   3.639  12.504  0.00  0.00    +0.000 C 
ATOM     21  C   UNL     1       7.098   4.071  12.767  0.00  0.00    +0.000 C 
ENDBRANCH  17  18
ENDBRANCH   8  17
TORSDOF 5
ENDMDL
MODEL 6
REMARK VINA RESULT:      -6.5      0.945      1.170
REMARK  Name = 
REMARK  6 active torsions:
REMARK  status: ('A' for Active; 'I' for Inactive)
REMARK    1  A    between atoms: C_1  and  C_2
REMARK    2  A    between atoms: C_2  and  C_3
REMARK    3  A    between atoms: C_3  and  N_4
REMARK    4  A    between atoms: C_3  and  C_18
REMARK    5  A    between atoms: C_11  and  O_12
REMARK    6  A    between atoms: O_12  and  C_13
REMARK                            x       y       z     vdW  Elec       q    Type
REMARK                         _______ _______ _______ _____ _____    ______ ____
ROOT
ATOM      1  N   UNL     1       5.885   4.665  14.566  0.00  0.00    +0.000 N 
ATOM      2  C   UNL     1       6.679   4.985  15.640  0.00  0.00    +0.000 C 
ATOM      3  O   UNL     1       7.849   4.648  15.721  0.00  0.00    +0.000 OA
ATOM      4  N   UNL     1       6.026   5.756  16.592  0.00  0.00    +0.000 N 
ATOM      5  C   UNL     1       6.786   6.265  17.727  0.00  0.00    +0.000 C 
ATOM      6  C   UNL     1       6.607   5.360  18.945  0.00  0.00    +0.000 C 
ATOM      7  C   UNL     1       5.124   5.115  19.250  0.00  0.00    +0.000 C 
ATOM      8  C   UNL     1       4.345   4.640  18.010  0.00  0.00    +0.000 C 
ATOM      9  C   UNL     1       4.594   5.619  16.851  0.00  0.00    +0.000 C 
ATOM     10  H   UNL     1       5.209   5.385  14.355  0.00  0.00    +0.000 HD
ENDROOT
BRANCH   1  11
ATOM     11  C   UNL     1       6.415   3.981  13.382  0.00  0.00    +0.000 C 
BRANCH  11  12
ATOM     12  C   UNL     1       5.402   3.019  12.734  0.00  0.00    +0.000 C 
ATOM     13  F   UNL     1       4.484   3.733  12.030  0.00  0.00    +0.000 F 
ATOM     14  F   UNL     1       6.050   2.243  11.821  0.00  0.00    +0.000 F 
ENDBRANCH  11  12
BRANCH  11  16
ATOM     15  C   UNL     1       8.314   5.575  12.749  0.00  0.00    +0.000 C 
ATOM     16  C   UNL     1       6.990   4.946  12.335  0.00  0.00    +0.000 C 
ENDBRANCH  11  16
ENDBRANCH   1  11
BRANCH   8  17
ATOM     17  O   UNL     1       2.954   4.564  18.344  0.00  0.00    +0.000 OA
BRANCH  17  18
ATOM     18  C   UNL     1       2.606   4.147  19.686  0.00  0.00    +0.000 C 
ATOM     19  C   UNL     1       1.165   4.420  20.166  0.00  0.00    +0.000 C 
ATOM     20  C   UNL     1       1.077   2.971  20.665  0.00  0.00    +0.000 C 
ATOM     21  C   UNL     1       2.341   2.641  19.861  0.00  0.00    +0.000 C 
ENDBRANCH  17  18
ENDBRANCH   8  17
TORSDOF 5
ENDMDL
MODEL 7
REMARK VINA RESULT:      -6.5      4.219      6.366
REMARK  Name = 
REMARK  6 active torsions:
REMARK  status: ('A' for Active; 'I' for Inactive)
REMARK    1  A    between atoms: C_1  and  C_2
REMARK    2  A    between atoms: C_2  and  C_3
REMARK    3  A    between atoms: C_3  and  N_4
REMARK    4  A    between atoms: C_3  and  C_18
REMARK    5  A    between atoms: C_11  and  O_12
REMARK    6  A    between atoms: O_12  and  C_13
REMARK                            x       y       z     vdW  Elec       q    Type
REMARK                         _______ _______ _______ _____ _____    ______ ____
ROOT
ATOM      1  N   UNL     1       3.200   3.565  19.180  0.00  0.00    +0.000 N 
ATOM      2  C   UNL     1       4.542   3.704  18.928  0.00  0.00    +0.000 C 
ATOM      3  O   UNL     1       5.403   3.219  19.644  0.00  0.00    +0.000 OA
ATOM      4  N   UNL     1       4.809   4.413  17.765  0.00  0.00    +0.000 N 
ATOM      5  C   UNL     1       6.192   4.533  17.317  0.00  0.00    +0.000 C 
ATOM      6  C   UNL     1       6.791   5.864  17.768  0.00  0.00    +0.000 C 
ATOM      7  C   UNL     1       5.902   7.047  17.364  0.00  0.00    +0.000 C 
ATOM      8  C   UNL     1       4.439   6.850  17.801  0.00  0.00    +0.000 C 
ATOM      9  C   UNL     1       3.939   5.488  17.295  0.00  0.00    +0.000 C 
ATOM     10  H   UNL     1       2.651   3.507  18.334  0.00  0.00    +0.000 HD
ENDROOT
BRANCH   1  11
ATOM     11  C   UNL     1       2.694   2.731  20.275  0.00  0.00    +0.000 C 
BRANCH  11  12
ATOM     12  C   UNL     1       2.338   3.539  21.536  0.00  0.00    +0.000 C 
ATOM     13  F   UNL     1       2.041   4.819  21.187  0.00  0.00    +0.000 F 
ATOM     14  F   UNL     1       1.199   3.028  22.082  0.00  0.00    +0.000 F 
ENDBRANCH  11  12
BRANCH  11  16
ATOM     15  C   UNL     1       0.649   2.439  18.765  0.00  0.00    +0.000 C 
ATOM     16  C   UNL     1       1.520   1.834  19.858  0.00  0.00    +0.000 C 
ENDBRANCH  11  16
ENDBRANCH   1  11
BRANCH   8  17
ATOM     17  O   UNL     1       3.655   7.927  17.273  0.00  0.00    +0.000 OA
BRANCH  17  18
ATOM     18  C   UNL     1       2.301   8.078  17.765  0.00  0.00    +0.000 C 
ATOM     19  C   UNL     1       2.081   7.976  19.289  0.00  0.00    +0.000 C 
ATOM     20  C   UNL     1       1.241   9.260  19.234  0.00  0.00    +0.000 C 
ATOM     21  C   UNL     1       1.779   9.526  17.822  0.00  0.00    +0.000 C 
ENDBRANCH  17  18
ENDBRANCH   8  17
TORSDOF 5
ENDMDL
MODEL 8
REMARK VINA RESULT:      -6.4      2.781      6.439
REMARK  Name = 
REMARK  6 active torsions:
REMARK  status: ('A' for Active; 'I' for Inactive)
REMARK    1  A    between atoms: C_1  and  C_2
REMARK    2  A    between atoms: C_2  and  C_3
REMARK    3  A    between atoms: C_3  and  N_4
REMARK    4  A    between atoms: C_3  and  C_18
REMARK    5  A    between atoms: C_11  and  O_12
REMARK    6  A    between atoms: O_12  and  C_13
REMARK                            x       y       z     vdW  Elec       q    Type
REMARK                         _______ _______ _______ _____ _____    ______ ____
ROOT
ATOM      1  N   UNL     1       3.367   3.745  18.873  0.00  0.00    +0.000 N 
ATOM      2  C   UNL     1       4.151   4.848  19.103  0.00  0.00    +0.000 C 
ATOM      3  O   UNL     1       3.724   5.865  19.625  0.00  0.00    +0.000 OA
ATOM      4  N   UNL     1       5.472   4.669  18.718  0.00  0.00    +0.000 N 
ATOM      5  C   UNL     1       6.439   5.720  19.014  0.00  0.00    +0.000 C 
ATOM      6  C   UNL     1       6.646   6.621  17.798  0.00  0.00    +0.000 C 
ATOM      7  C   UNL     1       6.980   5.805  16.543  0.00  0.00    +0.000 C 
ATOM      8  C   UNL     1       5.970   4.668  16.303  0.00  0.00    +0.000 C 
ATOM      9  C   UNL     1       5.842   3.827  17.583  0.00  0.00    +0.000 C 
ATOM     10  H   UNL     1       3.879   2.879  18.965  0.00  0.00    +0.000 HD
ENDROOT
BRANCH   1  11
ATOM     11  C   UNL     1       1.977   3.666  19.334  0.00  0.00    +0.000 C 
BRANCH  11  12
ATOM     12  C   UNL     1       1.275   2.360  18.922  0.00  0.00    +0.000 C 
ATOM     13  F   UNL     1       0.038   2.643  18.436  0.00  0.00    +0.000 F 
ATOM     14  F   UNL     1       1.961   1.795  17.889  0.00  0.00    +0.000 F 
ENDBRANCH  11  12
BRANCH  11  16
ATOM     15  C   UNL     1       2.120   2.676  21.690  0.00  0.00    +0.000 C 
ATOM     16  C   UNL     1       1.828   3.909  20.844  0.00  0.00    +0.000 C 
ENDBRANCH  11  16
ENDBRANCH   1  11
BRANCH   8  17
ATOM     17  O   UNL     1       6.425   3.877  15.198  0.00  0.00    +0.000 OA
BRANCH  17  18
ATOM     18  C   UNL     1       6.248   4.417  13.866  0.00  0.00    +0.000 C 
ATOM     19  C   UNL     1       7.509   4.897  13.117  0.00  0.00    +0.000 C 
ATOM     20  C   UNL     1       7.051   4.111  11.881  0.00  0.00    +0.000 C 
ATOM     21  C   UNL     1       6.029   3.373  12.756  0.00  0.00    +0.000 C 
ENDBRANCH  17  18
ENDBRANCH   8  17
TORSDOF 5
ENDMDL
MODEL 9
REMARK VINA RESULT:      -6.4      1.779      2.394
REMARK  Name = 
REMARK  6 active torsions:
REMARK  status: ('A' for Active; 'I' for Inactive)
REMARK    1  A    between atoms: C_1  and  C_2
REMARK    2  A    between atoms: C_2  and  C_3
REMARK    3  A    between atoms: C_3  and  N_4
REMARK    4  A    between atoms: C_3  and  C_18
REMARK    5  A    between atoms: C_11  and  O_12
REMARK    6  A    between atoms: O_12  and  C_13
REMARK                            x       y       z     vdW  Elec       q    Type
REMARK                         _______ _______ _______ _____ _____    ______ ____
ROOT
ATOM      1  N   UNL     1       5.002   4.082  13.563  0.00  0.00    +0.000 N 
ATOM      2  C   UNL     1       5.924   4.786  14.298  0.00  0.00    +0.000 C 
ATOM      3  O   UNL     1       7.057   5.005  13.901  0.00  0.00    +0.000 OA
ATOM      4  N   UNL     1       5.421   5.249  15.506  0.00  0.00    +0.000 N 
ATOM      5  C   UNL     1       6.259   6.112  16.331  0.00  0.00    +0.000 C 
ATOM      6  C   UNL     1       6.966   5.300  17.416  0.00  0.00    +0.000 C 
ATOM      7  C   UNL     1       5.974   4.447  18.216  0.00  0.00    +0.000 C 
ATOM      8  C   UNL     1       5.067   3.599  17.304  0.00  0.00    +0.000 C 
ATOM      9  C   UNL     1       4.408   4.512  16.258  0.00  0.00    +0.000 C 
ATOM     10  H   UNL     1       4.059   4.417  13.702  0.00  0.00    +0.000 HD
ENDROOT
BRANCH   1  11
ATOM     11  C   UNL     1       5.277   3.628  12.197  0.00  0.00    +0.000 C 
BRANCH  11  12
ATOM     12  C   UNL     1       6.409   2.589  12.120  0.00  0.00    +0.000 C 
ATOM     13  F   UNL     1       6.003   1.528  11.374  0.00  0.00    +0.000 F 
ATOM     14  F   UNL     1       7.464   3.132  11.450  0.00  0.00    +0.000 F 
ENDBRANCH  11  12
BRANCH  11  16
ATOM     15  C   UNL     1       3.583   4.012  10.316  0.00  0.00    +0.000 C 
ATOM     16  C   UNL     1       4.024   3.118  11.467  0.00  0.00    +0.000 C 
ENDBRANCH  11  16
ENDBRANCH   1  11
BRANCH   8  17
ATOM     17  O   UNL     1       4.089   2.940  18.117  0.00  0.00    +0.000 OA
BRANCH  17  18
ATOM     18  C   UNL     1       2.807   3.592  18.290  0.00  0.00    +0.000 C 
ATOM     19  C   UNL     1       1.560   2.691  18.415  0.00  0.00    +0.000 C 
ATOM     20  C   UNL     1       1.122   3.503  19.642  0.00  0.00    +0.000 C 
ATOM     21  C   UNL     1       2.524   4.121  19.708  0.00  0.00    +0.000 C 
ENDBRANCH  17  18
ENDBRANCH   8  17
TORSDOF 5
ENDMDL
