MODEL 1
REMARK VINA RESULT:      -8.2      0.000      0.000
REMARK  Name = 
REMARK  5 active torsions:
REMARK  status: ('A' for Active; 'I' for Inactive)
REMARK    1  A    between atoms: C_1  and  C_2
REMARK    2  A    between atoms: C_3  and  C_4
REMARK    3  A    between atoms: N_6  and  C_7
REMARK    4  A    between atoms: C_12  and  C_13
REMARK    5  A    between atoms: N_15  and  C_16
REMARK                            x       y       z     vdW  Elec       q    Type
REMARK                         _______ _______ _______ _____ _____    ______ ____
ROOT
ATOM      1  C   UNL     1       2.419   4.947  20.283  0.00  0.00    +0.000 A 
ATOM      2  C   UNL     1       1.451   4.084  20.828  0.00  0.00    +0.000 A 
ATOM      3  C   UNL     1       1.547   2.704  20.665  0.00  0.00    +0.000 A 
ATOM      4  C   UNL     1       2.629   2.159  19.983  0.00  0.00    +0.000 A 
ATOM      5  C   UNL     1       3.606   3.002  19.453  0.00  0.00    +0.000 A 
ATOM      6  C   UNL     1       3.522   4.402  19.586  0.00  0.00    +0.000 A 
ENDROOT
BRANCH   1   9
ATOM      7  C   UNL     1       1.942   7.215  19.504  0.00  0.00    +0.000 C 
ATOM      8  O   UNL     1       2.003   6.897  18.327  0.00  0.00    +0.000 OA
ATOM      9  N   UNL     1       2.246   6.331  20.540  0.00  0.00    +0.000 N 
ATOM     10  H   UNL     1       1.711   6.558  21.376  0.00  0.00    +0.000 HD
BRANCH   7  13
ATOM     11  C   UNL     1       1.893   9.680  17.696  0.00  0.00    +0.000 C 
ATOM     12  C   UNL     1       1.474   9.686  19.153  0.00  0.00    +0.000 C 
ATOM     13  C   UNL     1       1.516   8.610  19.969  0.00  0.00    +0.000 C 
ATOM     14  S   UNL     1       1.096   8.725  21.683  0.00  0.00    +0.000 S 
ATOM     15  C   UNL     1       0.183  10.277  21.682  0.00  0.00    +0.000 C 
ATOM     16  C   UNL     1       0.936  11.315  20.877  0.00  0.00    +0.000 C 
ATOM     17  O   UNL     1       1.080  10.969  19.503  0.00  0.00    +0.000 OA
ENDBRANCH   7  13
ENDBRANCH   1   9
BRANCH   6  18
ATOM     18  C   UNL     1       4.700   5.169  19.054  0.00  0.00    +0.000 C 
ATOM     19  O   UNL     1       5.597   5.540  19.806  0.00  0.00    +0.000 OA
ATOM     20  N   UNL     1       4.683   5.492  17.720  0.00  0.00    +0.000 N 
ATOM     21  H   UNL     1       3.885   5.176  17.188  0.00  0.00    +0.000 HD
BRANCH  20  22
ATOM     22  C   UNL     1       5.657   6.349  17.058  0.00  0.00    +0.000 C 
ATOM     23  C   UNL     1       7.065   5.757  17.222  0.00  0.00    +0.000 C 
ATOM     24  C   UNL     1       7.232   4.444  16.450  0.00  0.00    +0.000 C 
ATOM     25  C   UNL     1       6.826   4.568  14.983  0.00  0.00    +0.000 C 
ATOM     26  C   UNL     1       5.451   5.204  14.806  0.00  0.00    +0.000 C 
ATOM     27  C   UNL     1       5.345   6.525  15.566  0.00  0.00    +0.000 C 
ENDBRANCH  20  22
ENDBRANCH   6  18
TORSDOF 4
ENDMDL
MODEL 2
REMARK VINA RESULT:      -8.2      2.402      6.889
REMARK  Name = 
REMARK  5 active torsions:
REMARK  status: ('A' for Active; 'I' for Inactive)
REMARK    1  A    between atoms: C_1  and  C_2
REMARK    2  A    between atoms: C_3  and  C_4
REMARK    3  A    between atoms: N_6  and  C_7
REMARK    4  A    between atoms: C_12  and  C_13
REMARK    5  A    between atoms: N_15  and  C_16
REMARK                            x       y       z     vdW  Elec       q    Type
REMARK                         _______ _______ _______ _____ _____    ______ ____
ROOT
ATOM      1  C   UNL     1       2.740   4.332  18.740  0.00  0.00    +0.000 A 
ATOM      2  C   UNL     1       2.376   2.974  18.764  0.00  0.00    +0.000 A 
ATOM      3  C   UNL     1       1.464   2.491  19.699  0.00  0.00    +0.000 A 
ATOM      4  C   UNL     1       0.874   3.363  20.607  0.00  0.00    +0.000 A 
ATOM      5  C   UNL     1       1.211   4.717  20.583  0.00  0.00    +0.000 A 
ATOM      6  C   UNL     1       2.146   5.226  19.661  0.00  0.00    +0.000 A 
ENDROOT
BRANCH   1   9
ATOM      7  C   UNL     1       5.018   4.501  17.865  0.00  0.00    +0.000 C 
ATOM      8  O   UNL     1       5.522   4.151  18.921  0.00  0.00    +0.000 OA
ATOM      9  N   UNL     1       3.647   4.725  17.723  0.00  0.00    +0.000 N 
ATOM     10  H   UNL     1       3.348   4.530  16.771  0.00  0.00    +0.000 HD
BRANCH   7  13
ATOM     11  C   UNL     1       7.421   6.381  17.668  0.00  0.00    +0.000 C 
ATOM     12  C   UNL     1       6.906   5.535  16.520  0.00  0.00    +0.000 C 
ATOM     13  C   UNL     1       5.829   4.721  16.587  0.00  0.00    +0.000 C 
ATOM     14  S   UNL     1       5.240   3.838  15.172  0.00  0.00    +0.000 S 
ATOM     15  C   UNL     1       6.696   3.926  14.115  0.00  0.00    +0.000 C 
ATOM     16  C   UNL     1       7.248   5.335  14.120  0.00  0.00    +0.000 C 
ATOM     17  O   UNL     1       7.696   5.762  15.403  0.00  0.00    +0.000 OA
ENDBRANCH   7  13
ENDBRANCH   1   9
BRANCH   6  18
ATOM     18  C   UNL     1       2.329   6.718  19.690  0.00  0.00    +0.000 C 
ATOM     19  O   UNL     1       3.067   7.275  18.881  0.00  0.00    +0.000 OA
ATOM     20  N   UNL     1       1.698   7.404  20.697  0.00  0.00    +0.000 N 
ATOM     21  H   UNL     1       1.142   6.857  21.339  0.00  0.00    +0.000 HD
BRANCH  20  22
ATOM     22  C   UNL     1       1.871   8.824  20.974  0.00  0.00    +0.000 C 
ATOM     23  C   UNL     1       1.110   9.653  19.928  0.00  0.00    +0.000 C 
ATOM     24  C   UNL     1      -0.408   9.494  20.060  0.00  0.00    +0.000 C 
ATOM     25  C   UNL     1      -0.906   9.759  21.479  0.00  0.00    +0.000 C 
ATOM     26  C   UNL     1      -0.122   8.981  22.531  0.00  0.00    +0.000 C 
ATOM     27  C   UNL     1       1.383   9.198  22.379  0.00  0.00    +0.000 C 
ENDBRANCH  20  22
ENDBRANCH   6  18
TORSDOF 4
ENDMDL
MODEL 3
REMARK VINA RESULT:      -8.0      1.123      1.501
REMARK  Name = 
REMARK  5 active torsions:
REMARK  status: ('A' for Active; 'I' for Inactive)
REMARK    1  A    between atoms: C_1  and  C_2
REMARK    2  A    between atoms: C_3  and  C_4
REMARK    3  A    between atoms: N_6  and  C_7
REMARK    4  A    between atoms: C_12  and  C_13
REMARK    5  A    between atoms: N_15  and  C_16
REMARK                            x       y       z     vdW  Elec       q    Type
REMARK                         _______ _______ _______ _____ _____    ______ ____
ROOT
ATOM      1  C   UNL     1       2.562   5.335  20.228  0.00  0.00    +0.000 A 
ATOM      2  C   UNL     1       1.578   4.590  20.903  0.00  0.00    +0.000 A 
ATOM      3  C   UNL     1       1.680   3.205  21.017  0.00  0.00    +0.000 A 
ATOM      4  C   UNL     1       2.783   2.544  20.489  0.00  0.00    +0.000 A 
ATOM      5  C   UNL     1       3.776   3.273  19.834  0.00  0.00    +0.000 A 
ATOM      6  C   UNL     1       3.687   4.671  19.686  0.00  0.00    +0.000 A 
ENDROOT
BRANCH   1   9
ATOM      7  C   UNL     1       1.982   7.387  19.031  0.00  0.00    +0.000 C 
ATOM      8  O   UNL     1       1.963   6.829  17.945  0.00  0.00    +0.000 OA
ATOM      9  N   UNL     1       2.381   6.741  20.203  0.00  0.00    +0.000 N 
ATOM     10  H   UNL     1       1.904   7.136  21.010  0.00  0.00    +0.000 HD
BRANCH   7  13
ATOM     11  C   UNL     1       0.453   8.418  21.470  0.00  0.00    +0.000 C 
ATOM     12  C   UNL     1       0.911   9.294  20.320  0.00  0.00    +0.000 C 
ATOM     13  C   UNL     1       1.564   8.846  19.225  0.00  0.00    +0.000 C 
ATOM     14  S   UNL     1       1.980   9.923  17.885  0.00  0.00    +0.000 S 
ATOM     15  C   UNL     1       1.829  11.520  18.703  0.00  0.00    +0.000 C 
ATOM     16  C   UNL     1       0.553  11.561  19.515  0.00  0.00    +0.000 C 
ATOM     17  O   UNL     1       0.522  10.602  20.568  0.00  0.00    +0.000 OA
ENDBRANCH   7  13
ENDBRANCH   1   9
BRANCH   6  18
ATOM     18  C   UNL     1       4.880   5.326  19.050  0.00  0.00    +0.000 C 
ATOM     19  O   UNL     1       5.875   5.600  19.717  0.00  0.00    +0.000 OA
ATOM     20  N   UNL     1       4.773   5.666  17.724  0.00  0.00    +0.000 N 
ATOM     21  H   UNL     1       3.902   5.435  17.267  0.00  0.00    +0.000 HD
BRANCH  20  22
ATOM     22  C   UNL     1       5.761   6.432  16.977  0.00  0.00    +0.000 C 
ATOM     23  C   UNL     1       7.144   5.780  17.126  0.00  0.00    +0.000 C 
ATOM     24  C   UNL     1       7.217   4.417  16.430  0.00  0.00    +0.000 C 
ATOM     25  C   UNL     1       6.762   4.475  14.974  0.00  0.00    +0.000 C 
ATOM     26  C   UNL     1       5.413   5.168  14.808  0.00  0.00    +0.000 C 
ATOM     27  C   UNL     1       5.400   6.536  15.490  0.00  0.00    +0.000 C 
ENDBRANCH  20  22
ENDBRANCH   6  18
TORSDOF 4
ENDMDL
MODEL 4
REMARK VINA RESULT:      -7.8      1.333      1.920
REMARK  Name = 
REMARK  5 active torsions:
REMARK  status: ('A' for Active; 'I' for Inactive)
REMARK    1  A    between atoms: C_1  and  C_2
REMARK    2  A    between atoms: C_3  and  C_4
REMARK    3  A    between atoms: N_6  and  C_7
REMARK    4  A    between atoms: C_12  and  C_13
REMARK    5  A    between atoms: N_15  and  C_16
REMARK                            x       y       z     vdW  Elec       q    Type
REMARK                         _______ _______ _______ _____ _____    ______ ____
ROOT
ATOM      1  C   UNL     1       2.954   4.805  20.290  0.00  0.00    +0.000 A 
ATOM      2  C   UNL     1       1.934   4.123  20.978  0.00  0.00    +0.000 A 
ATOM      3  C   UNL     1       2.014   2.750  21.203  0.00  0.00    +0.000 A 
ATOM      4  C   UNL     1       3.129   2.041  20.774  0.00  0.00    +0.000 A 
ATOM      5  C   UNL     1       4.157   2.707  20.106  0.00  0.00    +0.000 A 
ATOM      6  C   UNL     1       4.091   4.090  19.847  0.00  0.00    +0.000 A 
ENDROOT
BRANCH   1   9
ATOM      7  C   UNL     1       2.264   6.747  18.974  0.00  0.00    +0.000 C 
ATOM      8  O   UNL     1       2.105   6.089  17.958  0.00  0.00    +0.000 OA
ATOM      9  N   UNL     1       2.791   6.206  20.148  0.00  0.00    +0.000 N 
ATOM     10  H   UNL     1       2.422   6.689  20.964  0.00  0.00    +0.000 HD
BRANCH   7  13
ATOM     11  C   UNL     1       0.945   8.021  21.421  0.00  0.00    +0.000 C 
ATOM     12  C   UNL     1       1.334   8.785  20.170  0.00  0.00    +0.000 C 
ATOM     13  C   UNL     1       1.893   8.229  19.073  0.00  0.00    +0.000 C 
ATOM     14  S   UNL     1       2.231   9.177  17.619  0.00  0.00    +0.000 S 
ATOM     15  C   UNL     1       2.177  10.841  18.306  0.00  0.00    +0.000 C 
ATOM     16  C   UNL     1       0.967  10.986  19.203  0.00  0.00    +0.000 C 
ATOM     17  O   UNL     1       0.994  10.120  20.333  0.00  0.00    +0.000 OA
ENDBRANCH   7  13
ENDBRANCH   1   9
BRANCH   6  18
ATOM     18  C   UNL     1       5.317   4.683  19.212  0.00  0.00    +0.000 C 
ATOM     19  O   UNL     1       5.922   5.604  19.755  0.00  0.00    +0.000 OA
ATOM     20  N   UNL     1       5.676   4.201  17.978  0.00  0.00    +0.000 N 
ATOM     21  H   UNL     1       5.098   3.468  17.592  0.00  0.00    +0.000 HD
BRANCH  20  22
ATOM     22  C   UNL     1       6.741   4.746  17.147  0.00  0.00    +0.000 C 
ATOM     23  C   UNL     1       6.771   4.016  15.796  0.00  0.00    +0.000 C 
ATOM     24  C   UNL     1       5.530   4.318  14.949  0.00  0.00    +0.000 C 
ATOM     25  C   UNL     1       5.279   5.816  14.789  0.00  0.00    +0.000 C 
ATOM     26  C   UNL     1       5.299   6.561  16.120  0.00  0.00    +0.000 C 
ATOM     27  C   UNL     1       6.569   6.253  16.912  0.00  0.00    +0.000 C 
ENDBRANCH  20  22
ENDBRANCH   6  18
TORSDOF 4
ENDMDL
MODEL 5
REMARK VINA RESULT:      -7.5      1.583      2.448
REMARK  Name = 
REMARK  5 active torsions:
REMARK  status: ('A' for Active; 'I' for Inactive)
REMARK    1  A    between atoms: C_1  and  C_2
REMARK    2  A    between atoms: C_3  and  C_4
REMARK    3  A    between atoms: N_6  and  C_7
REMARK    4  A    between atoms: C_12  and  C_13
REMARK    5  A    between atoms: N_15  and  C_16
REMARK                            x       y       z     vdW  Elec       q    Type
REMARK                         _______ _______ _______ _____ _____    ______ ____
ROOT
ATOM      1  C   UNL     1       1.863   4.277  20.135  0.00  0.00    +0.000 A 
ATOM      2  C   UNL     1       1.670   3.692  21.400  0.00  0.00    +0.000 A 
ATOM      3  C   UNL     1       2.010   2.362  21.634  0.00  0.00    +0.000 A 
ATOM      4  C   UNL     1       2.578   1.602  20.619  0.00  0.00    +0.000 A 
ATOM      5  C   UNL     1       2.792   2.174  19.365  0.00  0.00    +0.000 A 
ATOM      6  C   UNL     1       2.438   3.511  19.096  0.00  0.00    +0.000 A 
ENDROOT
BRANCH   1   9
ATOM      7  C   UNL     1       2.505   6.616  19.816  0.00  0.00    +0.000 C 
ATOM      8  O   UNL     1       3.697   6.375  19.931  0.00  0.00    +0.000 OA
ATOM      9  N   UNL     1       1.519   5.648  20.015  0.00  0.00    +0.000 N 
ATOM     10  H   UNL     1       0.700   5.846  19.444  0.00  0.00    +0.000 HD
BRANCH   7  13
ATOM     11  C   UNL     1       0.977   8.448  21.728  0.00  0.00    +0.000 C 
ATOM     12  C   UNL     1       1.316   8.807  20.295  0.00  0.00    +0.000 C 
ATOM     13  C   UNL     1       1.967   7.995  19.432  0.00  0.00    +0.000 C 
ATOM     14  S   UNL     1       2.241   8.457  17.747  0.00  0.00    +0.000 S 
ATOM     15  C   UNL     1       1.979  10.235  17.859  0.00  0.00    +0.000 C 
ATOM     16  C   UNL     1       0.733  10.520  18.670  0.00  0.00    +0.000 C 
ATOM     17  O   UNL     1       0.823  10.074  20.019  0.00  0.00    +0.000 OA
ENDBRANCH   7  13
ENDBRANCH   1   9
BRANCH   6  18
ATOM     18  C   UNL     1       2.823   4.015  17.733  0.00  0.00    +0.000 C 
ATOM     19  O   UNL     1       2.024   3.975  16.801  0.00  0.00    +0.000 OA
ATOM     20  N   UNL     1       4.117   4.444  17.569  0.00  0.00    +0.000 N 
ATOM     21  H   UNL     1       4.713   4.405  18.382  0.00  0.00    +0.000 HD
BRANCH  20  22
ATOM     22  C   UNL     1       4.712   4.828  16.296  0.00  0.00    +0.000 C 
ATOM     23  C   UNL     1       4.879   6.354  16.241  0.00  0.00    +0.000 C 
ATOM     24  C   UNL     1       5.928   6.855  17.239  0.00  0.00    +0.000 C 
ATOM     25  C   UNL     1       7.262   6.125  17.105  0.00  0.00    +0.000 C 
ATOM     26  C   UNL     1       7.104   4.608  17.106  0.00  0.00    +0.000 C 
ATOM     27  C   UNL     1       6.072   4.155  16.073  0.00  0.00    +0.000 C 
ENDBRANCH  20  22
ENDBRANCH   6  18
TORSDOF 4
ENDMDL
MODEL 6
REMARK VINA RESULT:      -7.5      2.454      6.819
REMARK  Name = 
REMARK  5 active torsions:
REMARK  status: ('A' for Active; 'I' for Inactive)
REMARK    1  A    between atoms: C_1  and  C_2
REMARK    2  A    between atoms: C_3  and  C_4
REMARK    3  A    between atoms: N_6  and  C_7
REMARK    4  A    between atoms: C_12  and  C_13
REMARK    5  A    between atoms: N_15  and  C_16
REMARK                            x       y       z     vdW  Elec       q    Type
REMARK                         _______ _______ _______ _____ _____    ______ ____
ROOT
ATOM      1  C   UNL     1       2.833   4.785  18.671  0.00  0.00    +0.000 A 
ATOM      2  C   UNL     1       2.513   3.440  18.930  0.00  0.00    +0.000 A 
ATOM      3  C   UNL     1       1.635   3.096  19.956  0.00  0.00    +0.000 A 
ATOM      4  C   UNL     1       1.037   4.090  20.720  0.00  0.00    +0.000 A 
ATOM      5  C   UNL     1       1.331   5.430  20.463  0.00  0.00    +0.000 A 
ATOM      6  C   UNL     1       2.230   5.803  19.445  0.00  0.00    +0.000 A 
ENDROOT
BRANCH   1   9
ATOM      7  C   UNL     1       5.089   4.913  17.736  0.00  0.00    +0.000 C 
ATOM      8  O   UNL     1       5.622   4.800  18.829  0.00  0.00    +0.000 OA
ATOM      9  N   UNL     1       3.707   5.027  17.581  0.00  0.00    +0.000 N 
ATOM     10  H   UNL     1       3.412   4.637  16.689  0.00  0.00    +0.000 HD
BRANCH   7  13
ATOM     11  C   UNL     1       7.524   6.690  17.225  0.00  0.00    +0.000 C 
ATOM     12  C   UNL     1       6.967   5.701  16.220  0.00  0.00    +0.000 C 
ATOM     13  C   UNL     1       5.876   4.930  16.424  0.00  0.00    +0.000 C 
ATOM     14  S   UNL     1       5.238   3.869  15.161  0.00  0.00    +0.000 S 
ATOM     15  C   UNL     1       6.670   3.773  14.074  0.00  0.00    +0.000 C 
ATOM     16  C   UNL     1       7.250   5.155  13.867  0.00  0.00    +0.000 C 
ATOM     17  O   UNL     1       7.736   5.750  15.067  0.00  0.00    +0.000 OA
ENDBRANCH   7  13
ENDBRANCH   1   9
BRANCH   6  18
ATOM     18  C   UNL     1       2.366   7.283  19.221  0.00  0.00    +0.000 C 
ATOM     19  O   UNL     1       3.221   7.725  18.457  0.00  0.00    +0.000 OA
ATOM     20  N   UNL     1       1.551   8.104  19.959  0.00  0.00    +0.000 N 
ATOM     21  H   UNL     1       0.905   7.652  20.590  0.00  0.00    +0.000 HD
BRANCH  20  22
ATOM     22  C   UNL     1       1.636   9.558  19.986  0.00  0.00    +0.000 C 
ATOM     23  C   UNL     1       1.284  10.125  18.602  0.00  0.00    +0.000 C 
ATOM     24  C   UNL     1      -0.191   9.906  18.247  0.00  0.00    +0.000 C 
ATOM     25  C   UNL     1      -1.137  10.411  19.334  0.00  0.00    +0.000 C 
ATOM     26  C   UNL     1      -0.766   9.897  20.721  0.00  0.00    +0.000 C 
ATOM     27  C   UNL     1       0.703  10.167  21.041  0.00  0.00    +0.000 C 
ENDBRANCH  20  22
ENDBRANCH   6  18
TORSDOF 4
ENDMDL
MODEL 7
REMARK VINA RESULT:      -7.5      1.738      2.349
REMARK  Name = 
REMARK  5 active torsions:
REMARK  status: ('A' for Active; 'I' for Inactive)
REMARK    1  A    between atoms: C_1  and  C_2
REMARK    2  A    between atoms: C_3  and  C_4
REMARK    3  A    between atoms: N_6  and  C_7
REMARK    4  A    between atoms: C_12  and  C_13
REMARK    5  A    between atoms: N_15  and  C_16
REMARK                            x       y       z     vdW  Elec       q    Type
REMARK                         _______ _______ _______ _____ _____    ______ ____
ROOT
ATOM      1  C   UNL     1       1.964   6.818  19.911  0.00  0.00    +0.000 A 
ATOM      2  C   UNL     1       1.207   6.013  20.782  0.00  0.00    +0.000 A 
ATOM      3  C   UNL     1       1.167   4.628  20.626  0.00  0.00    +0.000 A 
ATOM      4  C   UNL     1       1.909   4.022  19.619  0.00  0.00    +0.000 A 
ATOM      5  C   UNL     1       2.679   4.806  18.760  0.00  0.00    +0.000 A 
ATOM      6  C   UNL     1       2.720   6.209  18.883  0.00  0.00    +0.000 A 
ENDROOT
BRANCH   1   9
ATOM      7  C   UNL     1       1.104   9.069  19.498  0.00  0.00    +0.000 C 
ATOM      8  O   UNL     1       0.463   8.718  18.519  0.00  0.00    +0.000 OA
ATOM      9  N   UNL     1       1.966   8.210  20.181  0.00  0.00    +0.000 N 
ATOM     10  H   UNL     1       2.022   8.465  21.165  0.00  0.00    +0.000 HD
BRANCH   7  13
ATOM     11  C   UNL     1      -0.063   9.713  22.250  0.00  0.00    +0.000 C 
ATOM     12  C   UNL     1       0.529  10.748  21.314  0.00  0.00    +0.000 C 
ATOM     13  C   UNL     1       1.023  10.480  20.084  0.00  0.00    +0.000 C 
ATOM     14  S   UNL     1       1.610  11.763  19.018  0.00  0.00    +0.000 S 
ATOM     15  C   UNL     1       1.845  13.087  20.215  0.00  0.00    +0.000 C 
ATOM     16  C   UNL     1       0.643  13.171  21.130  0.00  0.00    +0.000 C 
ATOM     17  O   UNL     1       0.446  11.997  21.912  0.00  0.00    +0.000 OA
ENDBRANCH   7  13
ENDBRANCH   1   9
BRANCH   6  18
ATOM     18  C   UNL     1       3.672   6.907  17.953  0.00  0.00    +0.000 C 
ATOM     19  O   UNL     1       3.359   7.966  17.415  0.00  0.00    +0.000 OA
ATOM     20  N   UNL     1       4.858   6.271  17.681  0.00  0.00    +0.000 N 
ATOM     21  H   UNL     1       5.012   5.385  18.140  0.00  0.00    +0.000 HD
BRANCH  20  22
ATOM     22  C   UNL     1       5.837   6.718  16.700  0.00  0.00    +0.000 C 
ATOM     23  C   UNL     1       7.231   6.197  17.082  0.00  0.00    +0.000 C 
ATOM     24  C   UNL     1       7.332   4.673  16.952  0.00  0.00    +0.000 C 
ATOM     25  C   UNL     1       6.885   4.169  15.581  0.00  0.00    +0.000 C 
ATOM     26  C   UNL     1       5.525   4.723  15.167  0.00  0.00    +0.000 C 
ATOM     27  C   UNL     1       5.484   6.246  15.283  0.00  0.00    +0.000 C 
ENDBRANCH  20  22
ENDBRANCH   6  18
TORSDOF 4
ENDMDL
MODEL 8
REMARK VINA RESULT:      -7.3      1.475      2.035
REMARK  Name = 
REMARK  5 active torsions:
REMARK  status: ('A' for Active; 'I' for Inactive)
REMARK    1  A    between atoms: C_1  and  C_2
REMARK    2  A    between atoms: C_3  and  C_4
REMARK    3  A    between atoms: N_6  and  C_7
REMARK    4  A    between atoms: C_12  and  C_13
REMARK    5  A    between atoms: N_15  and  C_16
REMARK                            x       y       z     vdW  Elec       q    Type
REMARK                         _______ _______ _______ _____ _____    ______ ____
ROOT
ATOM      1  C   UNL     1       1.830   5.495  20.048  0.00  0.00    +0.000 A 
ATOM      2  C   UNL     1       1.367   4.553  20.984  0.00  0.00    +0.000 A 
ATOM      3  C   UNL     1       2.026   3.338  21.166  0.00  0.00    +0.000 A 
ATOM      4  C   UNL     1       3.176   3.058  20.439  0.00  0.00    +0.000 A 
ATOM      5  C   UNL     1       3.658   3.991  19.520  0.00  0.00    +0.000 A 
ATOM      6  C   UNL     1       2.999   5.217  19.303  0.00  0.00    +0.000 A 
ENDROOT
BRANCH   1   9
ATOM      7  C   UNL     1       1.445   7.795  20.787  0.00  0.00    +0.000 C 
ATOM      8  O   UNL     1       2.221   7.695  21.725  0.00  0.00    +0.000 OA
ATOM      9  N   UNL     1       1.108   6.713  19.971  0.00  0.00    +0.000 N 
ATOM     10  H   UNL     1       0.883   7.030  19.030  0.00  0.00    +0.000 HD
BRANCH   7  13
ATOM     11  C   UNL     1      -0.507   9.309  22.589  0.00  0.00    +0.000 C 
ATOM     12  C   UNL     1      -0.071   9.785  21.217  0.00  0.00    +0.000 C 
ATOM     13  C   UNL     1       0.770   9.112  20.401  0.00  0.00    +0.000 C 
ATOM     14  S   UNL     1       1.154   9.695  18.776  0.00  0.00    +0.000 S 
ATOM     15  C   UNL     1       0.645  11.416  18.928  0.00  0.00    +0.000 C 
ATOM     16  C   UNL     1      -0.705  11.493  19.606  0.00  0.00    +0.000 C 
ATOM     17  O   UNL     1      -0.698  10.991  20.939  0.00  0.00    +0.000 OA
ENDBRANCH   7  13
ENDBRANCH   1   9
BRANCH   6  18
ATOM     18  C   UNL     1       3.692   6.160  18.360  0.00  0.00    +0.000 C 
ATOM     19  O   UNL     1       3.076   7.081  17.829  0.00  0.00    +0.000 OA
ATOM     20  N   UNL     1       5.008   5.897  18.070  0.00  0.00    +0.000 N 
ATOM     21  H   UNL     1       5.420   5.096  18.525  0.00  0.00    +0.000 HD
BRANCH  20  22
ATOM     22  C   UNL     1       5.799   6.607  17.075  0.00  0.00    +0.000 C 
ATOM     23  C   UNL     1       7.271   6.181  17.181  0.00  0.00    +0.000 C 
ATOM     24  C   UNL     1       7.481   4.722  16.762  0.00  0.00    +0.000 C 
ATOM     25  C   UNL     1       6.891   4.416  15.387  0.00  0.00    +0.000 C 
ATOM     26  C   UNL     1       5.445   4.883  15.251  0.00  0.00    +0.000 C 
ATOM     27  C   UNL     1       5.293   6.350  15.649  0.00  0.00    +0.000 C 
ENDBRANCH  20  22
ENDBRANCH   6  18
TORSDOF 4
ENDMDL
MODEL 9
REMARK VINA RESULT:      -7.3      1.215      4.443
REMARK  Name = 
REMARK  5 active torsions:
REMARK  status: ('A' for Active; 'I' for Inactive)
REMARK    1  A    between atoms: C_1  and  C_2
REMARK    2  A    between atoms: C_3  and  C_4
REMARK    3  A    between atoms: N_6  and  C_7
REMARK    4  A    between atoms: C_12  and  C_13
REMARK    5  A    between atoms: N_15  and  C_16
REMARK                            x       y       z     vdW  Elec       q    Type
REMARK                         _______ _______ _______ _____ _____    ______ ____
ROOT
ATOM      1  C   UNL     1       4.692   6.578  17.164  0.00  0.00    +0.000 A 
ATOM      2  C   UNL     1       4.913   6.901  15.813  0.00  0.00    +0.000 A 
ATOM      3  C   UNL     1       5.644   6.052  14.983  0.00  0.00    +0.000 A 
ATOM      4  C   UNL     1       6.139   4.853  15.480  0.00  0.00    +0.000 A 
ATOM      5  C   UNL     1       5.911   4.511  16.814  0.00  0.00    +0.000 A 
ATOM      6  C   UNL     1       5.194   5.360  17.679  0.00  0.00    +0.000 A 
ENDROOT
BRANCH   1   9
ATOM      7  C   UNL     1       2.574   7.198  18.219  0.00  0.00    +0.000 C 
ATOM      8  O   UNL     1       1.971   6.265  17.713  0.00  0.00    +0.000 OA
ATOM      9  N   UNL     1       3.904   7.491  17.909  0.00  0.00    +0.000 N 
ATOM     10  H   UNL     1       4.370   7.926  18.702  0.00  0.00    +0.000 HD
BRANCH   7  13
ATOM     11  C   UNL     1       1.761  10.086  17.630  0.00  0.00    +0.000 C 
ATOM     12  C   UNL     1       1.565   9.403  18.970  0.00  0.00    +0.000 C 
ATOM     13  C   UNL     1       1.944   8.136  19.249  0.00  0.00    +0.000 C 
ATOM     14  S   UNL     1       1.762   7.447  20.868  0.00  0.00    +0.000 S 
ATOM     15  C   UNL     1       0.559   8.592  21.566  0.00  0.00    +0.000 C 
ATOM     16  C   UNL     1       0.959  10.015  21.244  0.00  0.00    +0.000 C 
ATOM     17  O   UNL     1       0.971  10.297  19.848  0.00  0.00    +0.000 OA
ENDBRANCH   7  13
ENDBRANCH   1   9
BRANCH   6  18
ATOM     18  C   UNL     1       4.943   4.811  19.055  0.00  0.00    +0.000 C 
ATOM     19  O   UNL     1       5.845   4.772  19.888  0.00  0.00    +0.000 OA
ATOM     20  N   UNL     1       3.696   4.294  19.303  0.00  0.00    +0.000 N 
ATOM     21  H   UNL     1       3.030   4.335  18.545  0.00  0.00    +0.000 HD
BRANCH  20  22
ATOM     22  C   UNL     1       3.312   3.591  20.519  0.00  0.00    +0.000 C 
ATOM     23  C   UNL     1       2.004   4.181  21.069  0.00  0.00    +0.000 C 
ATOM     24  C   UNL     1       0.811   3.891  20.152  0.00  0.00    +0.000 C 
ATOM     25  C   UNL     1       0.676   2.408  19.815  0.00  0.00    +0.000 C 
ATOM     26  C   UNL     1       1.983   1.798  19.318  0.00  0.00    +0.000 C 
ATOM     27  C   UNL     1       3.135   2.086  20.281  0.00  0.00    +0.000 C 
ENDBRANCH  20  22
ENDBRANCH   6  18
TORSDOF 4
ENDMDL
