MODEL 1
REMARK VINA RESULT:      -7.9      0.000      0.000
REMARK  Name = 
REMARK  8 active torsions:
REMARK  status: ('A' for Active; 'I' for Inactive)
REMARK    1  A    between atoms: C_1  and  C_2
REMARK    2  A    between atoms: N_5  and  C_6
REMARK    3  A    between atoms: C_7  and  C_9
REMARK    4  A    between atoms: C_9  and  C_10
REMARK    5  A    between atoms: C_13  and  C_14
REMARK    6  A    between atoms: N_19  and  C_20
REMARK    7  A    between atoms: C_24  and  S_25
REMARK    8  A    between atoms: S_25  and  N_26
REMARK                            x       y       z     vdW  Elec       q    Type
REMARK                         _______ _______ _______ _____ _____    ______ ____
ROOT
ATOM      1  C   UNL     1       5.836   7.338  17.427  0.00  0.00    +0.000 C 
ATOM      2  C   UNL     1       5.095   6.056  17.304  0.00  0.00    +0.000 A 
ATOM      3  N   UNL     1       3.927   5.901  18.032  0.00  0.00    +0.000 NA
ATOM      4  C   UNL     1       3.444   4.686  17.913  0.00  0.00    +0.000 A 
ATOM      5  N   UNL     1       2.372   4.151  18.625  0.00  0.00    +0.000 N 
ATOM      6  C   UNL     1       1.647   2.943  18.243  0.00  0.00    +0.000 C 
ATOM      7  C   UNL     1       1.856   4.817  19.754  0.00  0.00    +0.000 C 
ATOM      8  O   UNL     1       0.812   4.419  20.301  0.00  0.00    +0.000 OA
ATOM      9  S   UNL     1       4.280   3.713  16.774  0.00  0.00    +0.000 S 
ATOM     10  C   UNL     1       5.435   4.957  16.541  0.00  0.00    +0.000 A 
ENDROOT
BRANCH  10  11
ATOM     11  S   UNL     1       6.760   4.609  15.437  0.00  0.00    +0.000 S 
ATOM     12  O   UNL     1       6.766   5.705  14.500  0.00  0.00    +0.000 OA
ATOM     13  O   UNL     1       7.882   4.270  16.269  0.00  0.00    +0.000 OA
BRANCH  11  14
ATOM     14  N   UNL     1       6.320   3.239  14.576  0.00  0.00    +0.000 NA
ATOM     15  H   UNL     1       5.441   3.341  14.075  0.00  0.00    +0.000 HD
ATOM     16  H   UNL     1       6.446   2.375  15.099  0.00  0.00    +0.000 HD
ENDBRANCH  11  14
ENDBRANCH  10  11
BRANCH   7  17
ATOM     17  C   UNL     1       2.591   6.028  20.333  0.00  0.00    +0.000 C 
BRANCH  17  18
ATOM     18  C   UNL     1       1.840   7.338  20.211  0.00  0.00    +0.000 A 
ATOM     19  C   UNL     1       1.061   7.784  21.282  0.00  0.00    +0.000 A 
ATOM     20  C   UNL     1       0.396   9.010  21.213  0.00  0.00    +0.000 A 
ATOM     21  C   UNL     1       0.510   9.852  20.088  0.00  0.00    +0.000 A 
ATOM     22  C   UNL     1       1.341   9.403  19.045  0.00  0.00    +0.000 A 
ATOM     23  C   UNL     1       1.961   8.147  19.083  0.00  0.00    +0.000 A 
BRANCH  21  24
ATOM     24  C   UNL     1      -0.152  11.175  20.096  0.00  0.00    +0.000 A 
ATOM     25  C   UNL     1       0.278  12.190  20.979  0.00  0.00    +0.000 A 
ATOM     26  C   UNL     1      -0.345  13.430  21.009  0.00  0.00    +0.000 A 
ATOM     27  C   UNL     1      -1.376  13.676  20.126  0.00  0.00    +0.000 A 
ATOM     28  C   UNL     1      -1.791  12.668  19.267  0.00  0.00    +0.000 A 
ATOM     29  N   UNL     1      -1.224  11.433  19.280  0.00  0.00    +0.000 N 
ATOM     30  C   UNL     1      -1.881  10.390  18.461  0.00  0.00    +0.000 C 
ENDBRANCH  21  24
ENDBRANCH  17  18
ENDBRANCH   7  17
TORSDOF 5
ENDMDL
MODEL 2
REMARK VINA RESULT:      -7.9      4.965      9.411
REMARK  Name = 
REMARK  8 active torsions:
REMARK  status: ('A' for Active; 'I' for Inactive)
REMARK    1  A    between atoms: C_1  and  C_2
REMARK    2  A    between atoms: N_5  and  C_6
REMARK    3  A    between atoms: C_7  and  C_9
REMARK    4  A    between atoms: C_9  and  C_10
REMARK    5  A    between atoms: C_13  and  C_14
REMARK    6  A    between atoms: N_19  and  C_20
REMARK    7  A    between atoms: C_24  and  S_25
REMARK    8  A    between atoms: S_25  and  N_26
REMARK                            x       y       z     vdW  Elec       q    Type
REMARK                         _______ _______ _______ _____ _____    ______ ____
ROOT
ATOM      1  C   UNL     1      -2.761  11.044  16.408  0.00  0.00    +0.000 C 
ATOM      2  C   UNL     1      -2.632  11.590  17.784  0.00  0.00    +0.000 A 
ATOM      3  N   UNL     1      -1.361  11.797  18.292  0.00  0.00    +0.000 NA
ATOM      4  C   UNL     1      -1.401  12.174  19.548  0.00  0.00    +0.000 A 
ATOM      5  N   UNL     1      -0.306  12.321  20.400  0.00  0.00    +0.000 N 
ATOM      6  C   UNL     1      -0.336  13.055  21.661  0.00  0.00    +0.000 C 
ATOM      7  C   UNL     1       0.958  11.818  20.039  0.00  0.00    +0.000 C 
ATOM      8  O   UNL     1       1.962  12.076  20.727  0.00  0.00    +0.000 OA
ATOM      9  S   UNL     1      -2.984  12.468  20.137  0.00  0.00    +0.000 S 
ATOM     10  C   UNL     1      -3.649  11.921  18.656  0.00  0.00    +0.000 A 
ENDROOT
BRANCH  10  11
ATOM     11  S   UNL     1      -5.406  11.885  18.544  0.00  0.00    +0.000 S 
ATOM     12  O   UNL     1      -5.736  10.509  18.268  0.00  0.00    +0.000 OA
ATOM     13  O   UNL     1      -5.885  12.602  19.694  0.00  0.00    +0.000 OA
BRANCH  11  14
ATOM     14  N   UNL     1      -5.816  12.765  17.176  0.00  0.00    +0.000 NA
ATOM     15  H   UNL     1      -6.565  12.342  16.633  0.00  0.00    +0.000 HD
ATOM     16  H   UNL     1      -5.010  13.100  16.653  0.00  0.00    +0.000 HD
ENDBRANCH  11  14
ENDBRANCH  10  11
BRANCH   7  17
ATOM     17  C   UNL     1       1.105  10.928  18.802  0.00  0.00    +0.000 C 
BRANCH  17  18
ATOM     18  C   UNL     1       1.486   9.493  19.101  0.00  0.00    +0.000 A 
ATOM     19  C   UNL     1       1.144   8.937  20.337  0.00  0.00    +0.000 A 
ATOM     20  C   UNL     1       1.442   7.602  20.619  0.00  0.00    +0.000 A 
ATOM     21  C   UNL     1       2.060   6.763  19.670  0.00  0.00    +0.000 A 
ATOM     22  C   UNL     1       2.347   7.334  18.416  0.00  0.00    +0.000 A 
ATOM     23  C   UNL     1       2.107   8.689  18.148  0.00  0.00    +0.000 A 
BRANCH  21  24
ATOM     24  C   UNL     1       2.284   5.337  19.991  0.00  0.00    +0.000 A 
ATOM     25  C   UNL     1       1.271   4.570  20.607  0.00  0.00    +0.000 A 
ATOM     26  C   UNL     1       1.473   3.235  20.929  0.00  0.00    +0.000 A 
ATOM     27  C   UNL     1       2.678   2.648  20.599  0.00  0.00    +0.000 A 
ATOM     28  C   UNL     1       3.665   3.415  19.997  0.00  0.00    +0.000 A 
ATOM     29  N   UNL     1       3.492   4.737  19.738  0.00  0.00    +0.000 N 
ATOM     30  C   UNL     1       4.683   5.487  19.280  0.00  0.00    +0.000 C 
ENDBRANCH  21  24
ENDBRANCH  17  18
ENDBRANCH   7  17
TORSDOF 5
ENDMDL
MODEL 3
REMARK VINA RESULT:      -7.9      0.678      1.293
REMARK  Name = 
REMARK  8 active torsions:
REMARK  status: ('A' for Active; 'I' for Inactive)
REMARK    1  A    between atoms: C_1  and  C_2
REMARK    2  A    between atoms: N_5  and  C_6
REMARK    3  A    between atoms: C_7  and  C_9
REMARK    4  A    between atoms: C_9  and  C_10
REMARK    5  A    between atoms: C_13  and  C_14
REMARK    6  A    between atoms: N_19  and  C_20
REMARK    7  A    between atoms: C_24  and  S_25
REMARK    8  A    between atoms: S_25  and  N_26
REMARK                            x       y       z     vdW  Elec       q    Type
REMARK                         _______ _______ _______ _____ _____    ______ ____
ROOT
ATOM      1  C   UNL     1       5.853   7.499  17.222  0.00  0.00    +0.000 C 
ATOM      2  C   UNL     1       5.112   6.211  17.195  0.00  0.00    +0.000 A 
ATOM      3  N   UNL     1       3.949   6.108  17.940  0.00  0.00    +0.000 NA
ATOM      4  C   UNL     1       3.467   4.888  17.910  0.00  0.00    +0.000 A 
ATOM      5  N   UNL     1       2.399   4.404  18.667  0.00  0.00    +0.000 N 
ATOM      6  C   UNL     1       1.673   3.172  18.376  0.00  0.00    +0.000 C 
ATOM      7  C   UNL     1       1.890   5.148  19.749  0.00  0.00    +0.000 C 
ATOM      8  O   UNL     1       0.851   4.790  20.329  0.00  0.00    +0.000 OA
ATOM      9  S   UNL     1       4.295   3.837  16.838  0.00  0.00    +0.000 S 
ATOM     10  C   UNL     1       5.447   5.062  16.510  0.00  0.00    +0.000 A 
ENDROOT
BRANCH  10  11
ATOM     11  S   UNL     1       6.766   4.637  15.423  0.00  0.00    +0.000 S 
ATOM     12  O   UNL     1       6.793   5.688  14.437  0.00  0.00    +0.000 OA
ATOM     13  O   UNL     1       7.881   4.314  16.271  0.00  0.00    +0.000 OA
BRANCH  11  14
ATOM     14  N   UNL     1       6.298   3.237  14.627  0.00  0.00    +0.000 NA
ATOM     15  H   UNL     1       7.066   2.593  14.455  0.00  0.00    +0.000 HD
ATOM     16  H   UNL     1       5.666   3.406  13.848  0.00  0.00    +0.000 HD
ENDBRANCH  11  14
ENDBRANCH  10  11
BRANCH   7  17
ATOM     17  C   UNL     1       2.629   6.398  20.236  0.00  0.00    +0.000 C 
BRANCH  17  18
ATOM     18  C   UNL     1       1.820   7.676  20.160  0.00  0.00    +0.000 A 
ATOM     19  C   UNL     1       1.163   8.139  21.304  0.00  0.00    +0.000 A 
ATOM     20  C   UNL     1       0.449   9.339  21.273  0.00  0.00    +0.000 A 
ATOM     21  C   UNL     1       0.392  10.138  20.114  0.00  0.00    +0.000 A 
ATOM     22  C   UNL     1       1.105   9.675  18.993  0.00  0.00    +0.000 A 
ATOM     23  C   UNL     1       1.771   8.442  18.998  0.00  0.00    +0.000 A 
BRANCH  21  24
ATOM     24  C   UNL     1      -0.313  11.438  20.157  0.00  0.00    +0.000 A 
ATOM     25  C   UNL     1      -1.692  11.519  19.861  0.00  0.00    +0.000 A 
ATOM     26  C   UNL     1      -2.363  12.733  19.882  0.00  0.00    +0.000 A 
ATOM     27  C   UNL     1      -1.667  13.870  20.240  0.00  0.00    +0.000 A 
ATOM     28  C   UNL     1      -0.312  13.776  20.524  0.00  0.00    +0.000 A 
ATOM     29  N   UNL     1       0.360  12.598  20.443  0.00  0.00    +0.000 N 
ATOM     30  C   UNL     1       1.833  12.662  20.575  0.00  0.00    +0.000 C 
ENDBRANCH  21  24
ENDBRANCH  17  18
ENDBRANCH   7  17
TORSDOF 5
ENDMDL
MODEL 4
REMARK VINA RESULT:      -7.8      0.457      1.012
REMARK  Name = 
REMARK  8 active torsions:
REMARK  status: ('A' for Active; 'I' for Inactive)
REMARK    1  A    between atoms: C_1  and  C_2
REMARK    2  A    between atoms: N_5  and  C_6
REMARK    3  A    between atoms: C_7  and  C_9
REMARK    4  A    between atoms: C_9  and  C_10
REMARK    5  A    between atoms: C_13  and  C_14
REMARK    6  A    between atoms: N_19  and  C_20
REMARK    7  A    between atoms: C_24  and  S_25
REMARK    8  A    between atoms: S_25  and  N_26
REMARK                            x       y       z     vdW  Elec       q    Type
REMARK                         _______ _______ _______ _____ _____    ______ ____
ROOT
ATOM      1  C   UNL     1       5.863   7.398  17.387  0.00  0.00    +0.000 C 
ATOM      2  C   UNL     1       5.104   6.125  17.275  0.00  0.00    +0.000 A 
ATOM      3  N   UNL     1       3.933   5.994  18.003  0.00  0.00    +0.000 NA
ATOM      4  C   UNL     1       3.433   4.786  17.894  0.00  0.00    +0.000 A 
ATOM      5  N   UNL     1       2.351   4.273  18.610  0.00  0.00    +0.000 N 
ATOM      6  C   UNL     1       1.610   3.073  18.238  0.00  0.00    +0.000 C 
ATOM      7  C   UNL     1       1.845   4.956  19.733  0.00  0.00    +0.000 C 
ATOM      8  O   UNL     1       0.795   4.578  20.282  0.00  0.00    +0.000 OA
ATOM      9  S   UNL     1       4.254   3.791  16.765  0.00  0.00    +0.000 S 
ATOM     10  C   UNL     1       5.427   5.016  16.522  0.00  0.00    +0.000 A 
ENDROOT
BRANCH  10  11
ATOM     11  S   UNL     1       6.748   4.638  15.421  0.00  0.00    +0.000 S 
ATOM     12  O   UNL     1       6.743   5.703  14.449  0.00  0.00    +0.000 OA
ATOM     13  O   UNL     1       7.877   4.332  16.257  0.00  0.00    +0.000 OA
BRANCH  11  14
ATOM     14  N   UNL     1       6.310   3.238  14.609  0.00  0.00    +0.000 NA
ATOM     15  H   UNL     1       6.515   3.267  13.613  0.00  0.00    +0.000 HD
ATOM     16  H   UNL     1       5.392   2.887  14.873  0.00  0.00    +0.000 HD
ENDBRANCH  11  14
ENDBRANCH  10  11
BRANCH   7  17
ATOM     17  C   UNL     1       2.597   6.161  20.302  0.00  0.00    +0.000 C 
BRANCH  17  18
ATOM     18  C   UNL     1       1.778   7.432  20.386  0.00  0.00    +0.000 A 
ATOM     19  C   UNL     1       1.839   8.356  19.339  0.00  0.00    +0.000 A 
ATOM     20  C   UNL     1       1.058   9.513  19.370  0.00  0.00    +0.000 A 
ATOM     21  C   UNL     1       0.163   9.776  20.427  0.00  0.00    +0.000 A 
ATOM     22  C   UNL     1       0.084   8.805  21.442  0.00  0.00    +0.000 A 
ATOM     23  C   UNL     1       0.909   7.673  21.448  0.00  0.00    +0.000 A 
BRANCH  21  24
ATOM     24  C   UNL     1      -0.697  10.979  20.374  0.00  0.00    +0.000 A 
ATOM     25  C   UNL     1      -0.659  11.938  21.410  0.00  0.00    +0.000 A 
ATOM     26  C   UNL     1      -1.472  13.062  21.381  0.00  0.00    +0.000 A 
ATOM     27  C   UNL     1      -2.299  13.255  20.293  0.00  0.00    +0.000 A 
ATOM     28  C   UNL     1      -2.328  12.303  19.284  0.00  0.00    +0.000 A 
ATOM     29  N   UNL     1      -1.579  11.171  19.341  0.00  0.00    +0.000 N 
ATOM     30  C   UNL     1      -1.844  10.144  18.308  0.00  0.00    +0.000 C 
ENDBRANCH  21  24
ENDBRANCH  17  18
ENDBRANCH   7  17
TORSDOF 5
ENDMDL
MODEL 5
REMARK VINA RESULT:      -7.6      5.056      9.579
REMARK  Name = 
REMARK  8 active torsions:
REMARK  status: ('A' for Active; 'I' for Inactive)
REMARK    1  A    between atoms: C_1  and  C_2
REMARK    2  A    between atoms: N_5  and  C_6
REMARK    3  A    between atoms: C_7  and  C_9
REMARK    4  A    between atoms: C_9  and  C_10
REMARK    5  A    between atoms: C_13  and  C_14
REMARK    6  A    between atoms: N_19  and  C_20
REMARK    7  A    between atoms: C_24  and  S_25
REMARK    8  A    between atoms: S_25  and  N_26
REMARK                            x       y       z     vdW  Elec       q    Type
REMARK                         _______ _______ _______ _____ _____    ______ ____
ROOT
ATOM      1  C   UNL     1      -3.217  11.067  16.383  0.00  0.00    +0.000 C 
ATOM      2  C   UNL     1      -3.105  11.526  17.792  0.00  0.00    +0.000 A 
ATOM      3  N   UNL     1      -1.839  11.707  18.324  0.00  0.00    +0.000 NA
ATOM      4  C   UNL     1      -1.894  12.004  19.601  0.00  0.00    +0.000 A 
ATOM      5  N   UNL     1      -0.808  12.103  20.472  0.00  0.00    +0.000 N 
ATOM      6  C   UNL     1      -0.854  12.756  21.776  0.00  0.00    +0.000 C 
ATOM      7  C   UNL     1       0.462  11.630  20.093  0.00  0.00    +0.000 C 
ATOM      8  O   UNL     1       1.458  11.848  20.806  0.00  0.00    +0.000 OA
ATOM      9  S   UNL     1      -3.484  12.253  20.192  0.00  0.00    +0.000 S 
ATOM     10  C   UNL     1      -4.132  11.797  18.673  0.00  0.00    +0.000 A 
ENDROOT
BRANCH  10  11
ATOM     11  S   UNL     1      -5.887  11.759  18.541  0.00  0.00    +0.000 S 
ATOM     12  O   UNL     1      -6.235  10.360  18.557  0.00  0.00    +0.000 OA
ATOM     13  O   UNL     1      -6.371  12.709  19.505  0.00  0.00    +0.000 OA
BRANCH  11  14
ATOM     14  N   UNL     1      -6.265  12.334  17.011  0.00  0.00    +0.000 NA
ATOM     15  H   UNL     1      -7.103  11.915  16.617  0.00  0.00    +0.000 HD
ATOM     16  H   UNL     1      -5.458  12.402  16.394  0.00  0.00    +0.000 HD
ENDBRANCH  11  14
ENDBRANCH  10  11
BRANCH   7  17
ATOM     17  C   UNL     1       0.626  10.820  18.804  0.00  0.00    +0.000 C 
BRANCH  17  18
ATOM     18  C   UNL     1       1.210   9.437  19.000  0.00  0.00    +0.000 A 
ATOM     19  C   UNL     1       1.835   8.798  17.925  0.00  0.00    +0.000 A 
ATOM     20  C   UNL     1       2.422   7.542  18.092  0.00  0.00    +0.000 A 
ATOM     21  C   UNL     1       2.440   6.892  19.343  0.00  0.00    +0.000 A 
ATOM     22  C   UNL     1       1.850   7.579  20.419  0.00  0.00    +0.000 A 
ATOM     23  C   UNL     1       1.205   8.811  20.245  0.00  0.00    +0.000 A 
BRANCH  21  24
ATOM     24  C   UNL     1       3.142   5.597  19.483  0.00  0.00    +0.000 A 
ATOM     25  C   UNL     1       4.473   5.448  19.034  0.00  0.00    +0.000 A 
ATOM     26  C   UNL     1       5.138   4.235  19.144  0.00  0.00    +0.000 A 
ATOM     27  C   UNL     1       4.490   3.175  19.743  0.00  0.00    +0.000 A 
ATOM     28  C   UNL     1       3.182   3.335  20.177  0.00  0.00    +0.000 A 
ATOM     29  N   UNL     1       2.507   4.503  20.013  0.00  0.00    +0.000 N 
ATOM     30  C   UNL     1       1.062   4.488  20.334  0.00  0.00    +0.000 C 
ENDBRANCH  21  24
ENDBRANCH  17  18
ENDBRANCH   7  17
TORSDOF 5
ENDMDL
MODEL 6
REMARK VINA RESULT:      -7.6      4.974      9.369
REMARK  Name = 
REMARK  8 active torsions:
REMARK  status: ('A' for Active; 'I' for Inactive)
REMARK    1  A    between atoms: C_1  and  C_2
REMARK    2  A    between atoms: N_5  and  C_6
REMARK    3  A    between atoms: C_7  and  C_9
REMARK    4  A    between atoms: C_9  and  C_10
REMARK    5  A    between atoms: C_13  and  C_14
REMARK    6  A    between atoms: N_19  and  C_20
REMARK    7  A    between atoms: C_24  and  S_25
REMARK    8  A    between atoms: S_25  and  N_26
REMARK                            x       y       z     vdW  Elec       q    Type
REMARK                         _______ _______ _______ _____ _____    ______ ____
ROOT
ATOM      1  C   UNL     1      -2.497  10.960  16.252  0.00  0.00    +0.000 C 
ATOM      2  C   UNL     1      -2.492  11.492  17.639  0.00  0.00    +0.000 A 
ATOM      3  N   UNL     1      -1.270  11.739  18.243  0.00  0.00    +0.000 NA
ATOM      4  C   UNL     1      -1.417  12.097  19.496  0.00  0.00    +0.000 A 
ATOM      5  N   UNL     1      -0.395  12.273  20.430  0.00  0.00    +0.000 N 
ATOM      6  C   UNL     1      -0.546  12.989  21.692  0.00  0.00    +0.000 C 
ATOM      7  C   UNL     1       0.910  11.821  20.159  0.00  0.00    +0.000 C 
ATOM      8  O   UNL     1       1.849  12.105  20.923  0.00  0.00    +0.000 OA
ATOM      9  S   UNL     1      -3.050  12.327  19.968  0.00  0.00    +0.000 S 
ATOM     10  C   UNL     1      -3.582  11.775  18.436  0.00  0.00    +0.000 A 
ENDROOT
BRANCH  10  11
ATOM     11  S   UNL     1      -5.323  11.677  18.192  0.00  0.00    +0.000 S 
ATOM     12  O   UNL     1      -5.560  12.314  16.921  0.00  0.00    +0.000 OA
ATOM     13  O   UNL     1      -5.680  10.313  18.475  0.00  0.00    +0.000 OA
BRANCH  11  14
ATOM     14  N   UNL     1      -6.026  12.651  19.361  0.00  0.00    +0.000 NA
ATOM     15  H   UNL     1      -6.903  13.071  19.064  0.00  0.00    +0.000 HD
ATOM     16  H   UNL     1      -5.364  13.268  19.827  0.00  0.00    +0.000 HD
ENDBRANCH  11  14
ENDBRANCH  10  11
BRANCH   7  17
ATOM     17  C   UNL     1       1.182  10.953  18.927  0.00  0.00    +0.000 C 
BRANCH  17  18
ATOM     18  C   UNL     1       1.372   9.480  19.225  0.00  0.00    +0.000 A 
ATOM     19  C   UNL     1       1.879   8.640  18.230  0.00  0.00    +0.000 A 
ATOM     20  C   UNL     1       2.108   7.288  18.493  0.00  0.00    +0.000 A 
ATOM     21  C   UNL     1       1.873   6.730  19.767  0.00  0.00    +0.000 A 
ATOM     22  C   UNL     1       1.412   7.609  20.764  0.00  0.00    +0.000 A 
ATOM     23  C   UNL     1       1.123   8.952  20.490  0.00  0.00    +0.000 A 
BRANCH  21  24
ATOM     24  C   UNL     1       2.205   5.310  20.014  0.00  0.00    +0.000 A 
ATOM     25  C   UNL     1       1.256   4.440  20.596  0.00  0.00    +0.000 A 
ATOM     26  C   UNL     1       1.559   3.110  20.848  0.00  0.00    +0.000 A 
ATOM     27  C   UNL     1       2.800   2.631  20.482  0.00  0.00    +0.000 A 
ATOM     28  C   UNL     1       3.723   3.498  19.915  0.00  0.00    +0.000 A 
ATOM     29  N   UNL     1       3.450   4.815  19.725  0.00  0.00    +0.000 N 
ATOM     30  C   UNL     1       4.579   5.673  19.299  0.00  0.00    +0.000 C 
ENDBRANCH  21  24
ENDBRANCH  17  18
ENDBRANCH   7  17
TORSDOF 5
ENDMDL
MODEL 7
REMARK VINA RESULT:      -7.6      5.620      9.154
REMARK  Name = 
REMARK  8 active torsions:
REMARK  status: ('A' for Active; 'I' for Inactive)
REMARK    1  A    between atoms: C_1  and  C_2
REMARK    2  A    between atoms: N_5  and  C_6
REMARK    3  A    between atoms: C_7  and  C_9
REMARK    4  A    between atoms: C_9  and  C_10
REMARK    5  A    between atoms: C_13  and  C_14
REMARK    6  A    between atoms: N_19  and  C_20
REMARK    7  A    between atoms: C_24  and  S_25
REMARK    8  A    between atoms: S_25  and  N_26
REMARK                            x       y       z     vdW  Elec       q    Type
REMARK                         _______ _______ _______ _____ _____    ______ ____
ROOT
ATOM      1  C   UNL     1       3.911  14.272  18.562  0.00  0.00    +0.000 C 
ATOM      2  C   UNL     1       2.443  14.368  18.772  0.00  0.00    +0.000 A 
ATOM      3  N   UNL     1       1.742  13.205  19.042  0.00  0.00    +0.000 NA
ATOM      4  C   UNL     1       0.449  13.425  19.092  0.00  0.00    +0.000 A 
ATOM      5  N   UNL     1      -0.549  12.456  19.195  0.00  0.00    +0.000 N 
ATOM      6  C   UNL     1      -1.928  12.730  19.588  0.00  0.00    +0.000 C 
ATOM      7  C   UNL     1      -0.251  11.094  18.994  0.00  0.00    +0.000 C 
ATOM      8  O   UNL     1      -1.104  10.219  19.228  0.00  0.00    +0.000 OA
ATOM      9  S   UNL     1       0.019  15.082  18.989  0.00  0.00    +0.000 S 
ATOM     10  C   UNL     1       1.658  15.502  18.721  0.00  0.00    +0.000 A 
ENDROOT
BRANCH  10  11
ATOM     11  S   UNL     1       2.003  17.206  18.445  0.00  0.00    +0.000 S 
ATOM     12  O   UNL     1       2.731  17.245  17.201  0.00  0.00    +0.000 OA
ATOM     13  O   UNL     1       0.759  17.895  18.659  0.00  0.00    +0.000 OA
BRANCH  11  14
ATOM     14  N   UNL     1       3.072  17.680  19.647  0.00  0.00    +0.000 NA
ATOM     15  H   UNL     1       3.012  18.669  19.874  0.00  0.00    +0.000 HD
ATOM     16  H   UNL     1       4.008  17.298  19.530  0.00  0.00    +0.000 HD
ENDBRANCH  11  14
ENDBRANCH  10  11
BRANCH   7  17
ATOM     17  C   UNL     1       1.123  10.679  18.464  0.00  0.00    +0.000 C 
BRANCH  17  18
ATOM     18  C   UNL     1       1.536   9.267  18.823  0.00  0.00    +0.000 A 
ATOM     19  C   UNL     1       1.392   8.825  20.140  0.00  0.00    +0.000 A 
ATOM     20  C   UNL     1       1.721   7.513  20.487  0.00  0.00    +0.000 A 
ATOM     21  C   UNL     1       2.173   6.583  19.528  0.00  0.00    +0.000 A 
ATOM     22  C   UNL     1       2.260   7.040  18.200  0.00  0.00    +0.000 A 
ATOM     23  C   UNL     1       1.990   8.371  17.857  0.00  0.00    +0.000 A 
BRANCH  21  24
ATOM     24  C   UNL     1       2.435   5.185  19.933  0.00  0.00    +0.000 A 
ATOM     25  C   UNL     1       1.442   4.429  20.596  0.00  0.00    +0.000 A 
ATOM     26  C   UNL     1       1.680   3.122  20.996  0.00  0.00    +0.000 A 
ATOM     27  C   UNL     1       2.899   2.548  20.698  0.00  0.00    +0.000 A 
ATOM     28  C   UNL     1       3.866   3.303  20.050  0.00  0.00    +0.000 A 
ATOM     29  N   UNL     1       3.657   4.603  19.714  0.00  0.00    +0.000 N 
ATOM     30  C   UNL     1       4.828   5.356  19.209  0.00  0.00    +0.000 C 
ENDBRANCH  21  24
ENDBRANCH  17  18
ENDBRANCH   7  17
TORSDOF 5
ENDMDL
MODEL 8
REMARK VINA RESULT:      -7.6      1.089      1.454
REMARK  Name = 
REMARK  8 active torsions:
REMARK  status: ('A' for Active; 'I' for Inactive)
REMARK    1  A    between atoms: C_1  and  C_2
REMARK    2  A    between atoms: N_5  and  C_6
REMARK    3  A    between atoms: C_7  and  C_9
REMARK    4  A    between atoms: C_9  and  C_10
REMARK    5  A    between atoms: C_13  and  C_14
REMARK    6  A    between atoms: N_19  and  C_20
REMARK    7  A    between atoms: C_24  and  S_25
REMARK    8  A    between atoms: S_25  and  N_26
REMARK                            x       y       z     vdW  Elec       q    Type
REMARK                         _______ _______ _______ _____ _____    ______ ____
ROOT
ATOM      1  C   UNL     1       6.008   7.225  17.477  0.00  0.00    +0.000 C 
ATOM      2  C   UNL     1       5.209   5.974  17.410  0.00  0.00    +0.000 A 
ATOM      3  N   UNL     1       4.006   5.927  18.093  0.00  0.00    +0.000 NA
ATOM      4  C   UNL     1       3.468   4.731  18.037  0.00  0.00    +0.000 A 
ATOM      5  N   UNL     1       2.341   4.300  18.735  0.00  0.00    +0.000 N 
ATOM      6  C   UNL     1       1.573   3.104  18.406  0.00  0.00    +0.000 C 
ATOM      7  C   UNL     1       1.812   5.069  19.791  0.00  0.00    +0.000 C 
ATOM      8  O   UNL     1       0.728   4.761  20.316  0.00  0.00    +0.000 OA
ATOM      9  S   UNL     1       4.300   3.641  17.007  0.00  0.00    +0.000 S 
ATOM     10  C   UNL     1       5.525   4.809  16.741  0.00  0.00    +0.000 A 
ENDROOT
BRANCH  10  11
ATOM     11  S   UNL     1       6.876   4.320  15.724  0.00  0.00    +0.000 S 
ATOM     12  O   UNL     1       7.984   4.144  16.630  0.00  0.00    +0.000 OA
ATOM     13  O   UNL     1       6.369   3.274  14.878  0.00  0.00    +0.000 OA
BRANCH  11  14
ATOM     14  N   UNL     1       7.248   5.637  14.755  0.00  0.00    +0.000 NA
ATOM     15  H   UNL     1       6.896   5.552  13.805  0.00  0.00    +0.000 HD
ATOM     16  H   UNL     1       8.209   5.955  14.855  0.00  0.00    +0.000 HD
ENDBRANCH  11  14
ENDBRANCH  10  11
BRANCH   7  17
ATOM     17  C   UNL     1       2.583   6.282  20.317  0.00  0.00    +0.000 C 
BRANCH  17  18
ATOM     18  C   UNL     1       1.867   7.605  20.144  0.00  0.00    +0.000 A 
ATOM     19  C   UNL     1       1.311   8.235  21.261  0.00  0.00    +0.000 A 
ATOM     20  C   UNL     1       0.687   9.478  21.136  0.00  0.00    +0.000 A 
ATOM     21  C   UNL     1       0.624  10.155  19.901  0.00  0.00    +0.000 A 
ATOM     22  C   UNL     1       1.237   9.523  18.804  0.00  0.00    +0.000 A 
ATOM     23  C   UNL     1       1.810   8.249  18.909  0.00  0.00    +0.000 A 
BRANCH  21  24
ATOM     24  C   UNL     1       0.020  11.504  19.838  0.00  0.00    +0.000 A 
ATOM     25  C   UNL     1      -1.317  11.714  20.244  0.00  0.00    +0.000 A 
ATOM     26  C   UNL     1      -1.902  12.970  20.175  0.00  0.00    +0.000 A 
ATOM     27  C   UNL     1      -1.139  14.034  19.738  0.00  0.00    +0.000 A 
ATOM     28  C   UNL     1       0.172  13.813  19.340  0.00  0.00    +0.000 A 
ATOM     29  N   UNL     1       0.726  12.572  19.347  0.00  0.00    +0.000 N 
ATOM     30  C   UNL     1       2.058  12.434  18.714  0.00  0.00    +0.000 C 
ENDBRANCH  21  24
ENDBRANCH  17  18
ENDBRANCH   7  17
TORSDOF 5
ENDMDL
MODEL 9
REMARK VINA RESULT:      -7.6      0.869      1.005
REMARK  Name = 
REMARK  8 active torsions:
REMARK  status: ('A' for Active; 'I' for Inactive)
REMARK    1  A    between atoms: C_1  and  C_2
REMARK    2  A    between atoms: N_5  and  C_6
REMARK    3  A    between atoms: C_7  and  C_9
REMARK    4  A    between atoms: C_9  and  C_10
REMARK    5  A    between atoms: C_13  and  C_14
REMARK    6  A    between atoms: N_19  and  C_20
REMARK    7  A    between atoms: C_24  and  S_25
REMARK    8  A    between atoms: S_25  and  N_26
REMARK                            x       y       z     vdW  Elec       q    Type
REMARK                         _______ _______ _______ _____ _____    ______ ____
ROOT
ATOM      1  C   UNL     1       5.565   7.394  17.319  0.00  0.00    +0.000 C 
ATOM      2  C   UNL     1       4.841   6.097  17.282  0.00  0.00    +0.000 A 
ATOM      3  N   UNL     1       3.703   5.959  18.059  0.00  0.00    +0.000 NA
ATOM      4  C   UNL     1       3.237   4.733  18.013  0.00  0.00    +0.000 A 
ATOM      5  N   UNL     1       2.199   4.216  18.789  0.00  0.00    +0.000 N 
ATOM      6  C   UNL     1       1.481   2.981  18.489  0.00  0.00    +0.000 C 
ATOM      7  C   UNL     1       1.714   4.925  19.904  0.00  0.00    +0.000 C 
ATOM      8  O   UNL     1       0.697   4.537  20.507  0.00  0.00    +0.000 OA
ATOM      9  S   UNL     1       4.046   3.721  16.890  0.00  0.00    +0.000 S 
ATOM     10  C   UNL     1       5.171   4.970  16.558  0.00  0.00    +0.000 A 
ENDROOT
BRANCH  10  11
ATOM     11  S   UNL     1       6.461   4.591  15.422  0.00  0.00    +0.000 S 
ATOM     12  O   UNL     1       6.134   3.285  14.905  0.00  0.00    +0.000 OA
ATOM     13  O   UNL     1       6.608   5.758  14.595  0.00  0.00    +0.000 OA
BRANCH  11  14
ATOM     14  N   UNL     1       7.861   4.417  16.327  0.00  0.00    +0.000 NA
ATOM     15  H   UNL     1       7.714   4.532  17.326  0.00  0.00    +0.000 HD
ATOM     16  H   UNL     1       8.664   4.900  15.929  0.00  0.00    +0.000 HD
ENDBRANCH  11  14
ENDBRANCH  10  11
BRANCH   7  17
ATOM     17  C   UNL     1       2.450   6.172  20.400  0.00  0.00    +0.000 C 
BRANCH  17  18
ATOM     18  C   UNL     1       1.613   7.434  20.412  0.00  0.00    +0.000 A 
ATOM     19  C   UNL     1       0.776   7.691  21.501  0.00  0.00    +0.000 A 
ATOM     20  C   UNL     1       0.030   8.870  21.558  0.00  0.00    +0.000 A 
ATOM     21  C   UNL     1       0.114   9.851  20.549  0.00  0.00    +0.000 A 
ATOM     22  C   UNL     1       1.002   9.590  19.489  0.00  0.00    +0.000 A 
ATOM     23  C   UNL     1       1.708   8.383  19.396  0.00  0.00    +0.000 A 
BRANCH  21  24
ATOM     24  C   UNL     1      -0.639  11.115  20.695  0.00  0.00    +0.000 A 
ATOM     25  C   UNL     1      -0.517  11.895  21.866  0.00  0.00    +0.000 A 
ATOM     26  C   UNL     1      -1.230  13.075  22.023  0.00  0.00    +0.000 A 
ATOM     27  C   UNL     1      -2.039  13.504  20.991  0.00  0.00    +0.000 A 
ATOM     28  C   UNL     1      -2.152  12.726  19.847  0.00  0.00    +0.000 A 
ATOM     29  N   UNL     1      -1.504  11.539  19.718  0.00  0.00    +0.000 N 
ATOM     30  C   UNL     1      -1.859  10.711  18.543  0.00  0.00    +0.000 C 
ENDBRANCH  21  24
ENDBRANCH  17  18
ENDBRANCH   7  17
TORSDOF 5
ENDMDL
