MODEL 1
REMARK VINA RESULT:      -8.3      0.000      0.000
REMARK  Name = 
REMARK  11 active torsions:
REMARK  status: ('A' for Active; 'I' for Inactive)
REMARK    1  A    between atoms: C_1  and  C_2
REMARK    2  A    between atoms: N_5  and  C_6
REMARK    3  A    between atoms: C_6  and  C_7
REMARK    4  A    between atoms: C_7  and  C_8
REMARK    5  A    between atoms: C_8  and  C_9
REMARK    6  A    between atoms: C_9  and  C_10
REMARK    7  A    between atoms: N_12  and  C_13
REMARK    8  A    between atoms: C_15  and  C_16
REMARK    9  A    between atoms: C_16  and  O_17
REMARK   10  A    between atoms: C_19  and  N_20
REMARK   11  A    between atoms: N_20  and  C_21
REMARK                            x       y       z     vdW  Elec       q    Type
REMARK                         _______ _______ _______ _____ _____    ______ ____
ROOT
ATOM      1  C   UNL     1       1.533   8.059  20.275  0.00  0.00    +0.000 A 
ATOM      2  C   UNL     1       0.935   8.130  21.514  0.00  0.00    +0.000 A 
ATOM      3  C   UNL     1       0.047   9.181  21.806  0.00  0.00    +0.000 A 
ATOM      4  C   UNL     1      -0.320  10.112  20.796  0.00  0.00    +0.000 A 
ATOM      5  C   UNL     1       0.195  10.003  19.506  0.00  0.00    +0.000 A 
ATOM      6  C   UNL     1       1.160   8.972  19.281  0.00  0.00    +0.000 A 
ENDROOT
BRANCH   1   9
ATOM      7  C   UNL     1       2.309   5.732  20.212  0.00  0.00    +0.000 C 
ATOM      8  O   UNL     1       1.219   5.199  20.502  0.00  0.00    +0.000 OA
ATOM      9  N   UNL     1       2.543   7.087  20.126  0.00  0.00    +0.000 N 
ATOM     10  H   UNL     1       3.306   7.337  19.507  0.00  0.00    +0.000 HD
BRANCH   7  11
ATOM     11  C   UNL     1       3.526   4.900  19.872  0.00  0.00    +0.000 C 
BRANCH  11  12
ATOM     12  C   UNL     1       3.174   3.914  18.762  0.00  0.00    +0.000 C 
BRANCH  12  13
ATOM     13  C   UNL     1       3.385   4.491  17.363  0.00  0.00    +0.000 C 
BRANCH  13  14
ATOM     14  C   UNL     1       4.536   3.833  16.589  0.00  0.00    +0.000 C 
BRANCH  14  19
ATOM     15  C   UNL     1       7.832   6.111  18.970  0.00  0.00    +0.000 C 
ATOM     16  C   UNL     1       7.268   6.020  17.555  0.00  0.00    +0.000 C 
ATOM     17  C   UNL     1       5.795   6.451  17.535  0.00  0.00    +0.000 C 
ATOM     18  C   UNL     1       5.153   6.179  16.174  0.00  0.00    +0.000 C 
ATOM     19  N   UNL     1       5.285   4.777  15.740  0.00  0.00    +0.000 NA
ATOM     20  C   UNL     1       6.711   4.426  15.662  0.00  0.00    +0.000 C 
ATOM     21  C   UNL     1       7.452   4.604  16.990  0.00  0.00    +0.000 C 
ENDBRANCH  14  19
ENDBRANCH  13  14
ENDBRANCH  12  13
ENDBRANCH  11  12
ENDBRANCH   7  11
ENDBRANCH   1   9
BRANCH   5  22
ATOM     22  N   UNL     1       0.155  11.029  18.490  0.00  0.00    +0.000 N 
ATOM     23  H   UNL     1       0.606  11.764  19.080  0.00  0.00    +0.000 HD
BRANCH  22  24
ATOM     24  C   UNL     1      -0.854  11.872  17.712  0.00  0.00    +0.000 A 
ATOM     25  C   UNL     1      -0.627  13.193  18.093  0.00  0.00    +0.000 A 
ATOM     26  C   UNL     1      -1.175  13.503  19.327  0.00  0.00    +0.000 A 
ATOM     27  N   UNL     1      -2.189  12.764  19.844  0.00  0.00    +0.000 NA
ATOM     28  C   UNL     1      -2.835  11.950  18.970  0.00  0.00    +0.000 A 
ATOM     29  C   UNL     1      -4.183  11.672  19.130  0.00  0.00    +0.000 A 
ATOM     30  C   UNL     1      -4.976  11.328  18.036  0.00  0.00    +0.000 A 
ATOM     31 CL   UNL     1      -6.647  10.988  18.257  0.00  0.00    +0.000 Cl
ATOM     32  C   UNL     1      -4.431  11.327  16.759  0.00  0.00    +0.000 A 
ATOM     33  C   UNL     1      -3.051  11.468  16.620  0.00  0.00    +0.000 A 
ATOM     34  C   UNL     1      -2.217  11.615  17.769  0.00  0.00    +0.000 A 
ENDBRANCH  22  24
ENDBRANCH   5  22
BRANCH   3  35
ATOM     35  C   UNL     1      -0.335   9.326  23.258  0.00  0.00    +0.000 C 
BRANCH  35  36
ATOM     36  O   UNL     1       0.826   9.642  24.015  0.00  0.00    +0.000 OA
ATOM     37  H   UNL     1       1.585   9.541  23.425  0.00  0.00    +0.000 HD
ENDBRANCH  35  36
ENDBRANCH   3  35
TORSDOF 10
ENDMDL
MODEL 2
REMARK VINA RESULT:      -8.0      6.644      9.378
REMARK  Name = 
REMARK  11 active torsions:
REMARK  status: ('A' for Active; 'I' for Inactive)
REMARK    1  A    between atoms: C_1  and  C_2
REMARK    2  A    between atoms: N_5  and  C_6
REMARK    3  A    between atoms: C_6  and  C_7
REMARK    4  A    between atoms: C_7  and  C_8
REMARK    5  A    between atoms: C_8  and  C_9
REMARK    6  A    between atoms: C_9  and  C_10
REMARK    7  A    between atoms: N_12  and  C_13
REMARK    8  A    between atoms: C_15  and  C_16
REMARK    9  A    between atoms: C_16  and  O_17
REMARK   10  A    between atoms: C_19  and  N_20
REMARK   11  A    between atoms: N_20  and  C_21
REMARK                            x       y       z     vdW  Elec       q    Type
REMARK                         _______ _______ _______ _____ _____    ______ ____
ROOT
ATOM      1  C   UNL     1       8.927  10.153  18.515  0.00  0.00    +0.000 A 
ATOM      2  C   UNL     1       9.797  10.935  17.789  0.00  0.00    +0.000 A 
ATOM      3  C   UNL     1      10.547  11.936  18.433  0.00  0.00    +0.000 A 
ATOM      4  C   UNL     1      10.492  12.075  19.847  0.00  0.00    +0.000 A 
ATOM      5  C   UNL     1       9.694  11.230  20.616  0.00  0.00    +0.000 A 
ATOM      6  C   UNL     1       8.885  10.286  19.908  0.00  0.00    +0.000 A 
ENDROOT
BRANCH   1   9
ATOM      7  C   UNL     1       7.931   7.960  18.042  0.00  0.00    +0.000 C 
ATOM      8  O   UNL     1       8.558   7.317  18.908  0.00  0.00    +0.000 OA
ATOM      9  N   UNL     1       8.084   9.302  17.770  0.00  0.00    +0.000 N 
ATOM     10  H   UNL     1       7.264   9.739  17.368  0.00  0.00    +0.000 HD
BRANCH   7  11
ATOM     11  C   UNL     1       6.865   7.304  17.194  0.00  0.00    +0.000 C 
BRANCH  11  12
ATOM     12  C   UNL     1       6.344   6.059  17.905  0.00  0.00    +0.000 C 
BRANCH  12  13
ATOM     13  C   UNL     1       5.112   5.458  17.229  0.00  0.00    +0.000 C 
BRANCH  13  14
ATOM     14  C   UNL     1       4.399   4.393  18.075  0.00  0.00    +0.000 C 
BRANCH  14  19
ATOM     15  C   UNL     1       1.321   2.865  21.224  0.00  0.00    +0.000 C 
ATOM     16  C   UNL     1       1.468   3.013  19.712  0.00  0.00    +0.000 C 
ATOM     17  C   UNL     1       2.639   2.164  19.199  0.00  0.00    +0.000 C 
ATOM     18  C   UNL     1       2.932   2.449  17.726  0.00  0.00    +0.000 C 
ATOM     19  N   UNL     1       3.169   3.876  17.448  0.00  0.00    +0.000 NA
ATOM     20  C   UNL     1       1.986   4.652  17.847  0.00  0.00    +0.000 C 
ATOM     21  C   UNL     1       1.627   4.491  19.326  0.00  0.00    +0.000 C 
ENDBRANCH  14  19
ENDBRANCH  13  14
ENDBRANCH  12  13
ENDBRANCH  11  12
ENDBRANCH   7  11
ENDBRANCH   1   9
BRANCH   5  22
ATOM     22  N   UNL     1       9.310  11.449  21.990  0.00  0.00    +0.000 N 
ATOM     23  H   UNL     1       8.340  11.076  21.878  0.00  0.00    +0.000 HD
BRANCH  22  24
ATOM     24  C   UNL     1       9.061  12.592  22.973  0.00  0.00    +0.000 A 
ATOM     25  C   UNL     1       8.488  12.011  24.102  0.00  0.00    +0.000 A 
ATOM     26  C   UNL     1       7.141  11.727  23.942  0.00  0.00    +0.000 A 
ATOM     27  N   UNL     1       6.401  12.369  23.003  0.00  0.00    +0.000 NA
ATOM     28  C   UNL     1       6.950  13.498  22.486  0.00  0.00    +0.000 A 
ATOM     29  C   UNL     1       6.145  14.549  22.077  0.00  0.00    +0.000 A 
ATOM     30  C   UNL     1       6.629  15.857  22.063  0.00  0.00    +0.000 A 
ATOM     31 CL   UNL     1       5.614  17.147  21.553  0.00  0.00    +0.000 Cl
ATOM     32  C   UNL     1       7.911  16.125  22.528  0.00  0.00    +0.000 A 
ATOM     33  C   UNL     1       8.760  15.054  22.804  0.00  0.00    +0.000 A 
ATOM     34  C   UNL     1       8.319  13.710  22.616  0.00  0.00    +0.000 A 
ENDBRANCH  22  24
ENDBRANCH   5  22
BRANCH   3  35
ATOM     35  C   UNL     1      11.252  12.909  17.522  0.00  0.00    +0.000 C 
BRANCH  35  36
ATOM     36  O   UNL     1      10.297  13.805  16.969  0.00  0.00    +0.000 OA
ATOM     37  H   UNL     1       9.782  13.305  16.322  0.00  0.00    +0.000 HD
ENDBRANCH  35  36
ENDBRANCH   3  35
TORSDOF 10
ENDMDL
MODEL 3
REMARK VINA RESULT:      -7.9      3.074      9.480
REMARK  Name = 
REMARK  11 active torsions:
REMARK  status: ('A' for Active; 'I' for Inactive)
REMARK    1  A    between atoms: C_1  and  C_2
REMARK    2  A    between atoms: N_5  and  C_6
REMARK    3  A    between atoms: C_6  and  C_7
REMARK    4  A    between atoms: C_7  and  C_8
REMARK    5  A    between atoms: C_8  and  C_9
REMARK    6  A    between atoms: C_9  and  C_10
REMARK    7  A    between atoms: N_12  and  C_13
REMARK    8  A    between atoms: C_15  and  C_16
REMARK    9  A    between atoms: C_16  and  O_17
REMARK   10  A    between atoms: C_19  and  N_20
REMARK   11  A    between atoms: N_20  and  C_21
REMARK                            x       y       z     vdW  Elec       q    Type
REMARK                         _______ _______ _______ _____ _____    ______ ____
ROOT
ATOM      1  C   UNL     1       2.560   5.088  20.291  0.00  0.00    +0.000 A 
ATOM      2  C   UNL     1       1.885   3.986  19.813  0.00  0.00    +0.000 A 
ATOM      3  C   UNL     1       2.553   3.051  19.002  0.00  0.00    +0.000 A 
ATOM      4  C   UNL     1       3.948   3.179  18.759  0.00  0.00    +0.000 A 
ATOM      5  C   UNL     1       4.675   4.231  19.313  0.00  0.00    +0.000 A 
ATOM      6  C   UNL     1       3.936   5.203  20.058  0.00  0.00    +0.000 A 
ENDROOT
BRANCH   1   9
ATOM      7  C   UNL     1       1.591   7.337  20.445  0.00  0.00    +0.000 C 
ATOM      8  O   UNL     1       2.136   7.808  19.427  0.00  0.00    +0.000 OA
ATOM      9  N   UNL     1       1.777   6.065  20.940  0.00  0.00    +0.000 N 
ATOM     10  H   UNL     1       0.998   5.714  21.483  0.00  0.00    +0.000 HD
BRANCH   7  11
ATOM     11  C   UNL     1       0.596   8.144  21.250  0.00  0.00    +0.000 C 
BRANCH  11  12
ATOM     12  C   UNL     1       1.256   9.433  21.729  0.00  0.00    +0.000 C 
BRANCH  12  13
ATOM     13  C   UNL     1       0.591  10.688  21.165  0.00  0.00    +0.000 C 
BRANCH  13  14
ATOM     14  C   UNL     1      -0.587  10.396  20.225  0.00  0.00    +0.000 C 
BRANCH  14  19
ATOM     15  C   UNL     1      -4.620  10.970  17.960  0.00  0.00    +0.000 C 
ATOM     16  C   UNL     1      -3.122  11.163  17.742  0.00  0.00    +0.000 C 
ATOM     17  C   UNL     1      -2.388   9.818  17.825  0.00  0.00    +0.000 C 
ATOM     18  C   UNL     1      -0.871  10.007  17.811  0.00  0.00    +0.000 C 
ATOM     19  N   UNL     1      -0.392  10.922  18.861  0.00  0.00    +0.000 NA
ATOM     20  C   UNL     1      -1.028  12.236  18.688  0.00  0.00    +0.000 C 
ATOM     21  C   UNL     1      -2.557  12.181  18.743  0.00  0.00    +0.000 C 
ENDBRANCH  14  19
ENDBRANCH  13  14
ENDBRANCH  12  13
ENDBRANCH  11  12
ENDBRANCH   7  11
ENDBRANCH   1   9
BRANCH   5  22
ATOM     22  N   UNL     1       5.996   4.650  18.911  0.00  0.00    +0.000 N 
ATOM     23  H   UNL     1       6.036   5.470  19.558  0.00  0.00    +0.000 HD
BRANCH  22  24
ATOM     24  C   UNL     1       6.730   5.214  17.695  0.00  0.00    +0.000 A 
ATOM     25  C   UNL     1       6.568   6.596  17.754  0.00  0.00    +0.000 A 
ATOM     26  C   UNL     1       5.322   7.016  17.317  0.00  0.00    +0.000 A 
ATOM     27  N   UNL     1       4.570   6.232  16.502  0.00  0.00    +0.000 NA
ATOM     28  C   UNL     1       5.226   5.211  15.893  0.00  0.00    +0.000 A 
ATOM     29  C   UNL     1       4.839   4.777  14.635  0.00  0.00    +0.000 A 
ATOM     30  C   UNL     1       5.752   4.160  13.780  0.00  0.00    +0.000 A 
ATOM     31 CL   UNL     1       5.252   3.630  12.223  0.00  0.00    +0.000 Cl
ATOM     32  C   UNL     1       7.082   4.036  14.161  0.00  0.00    +0.000 A 
ATOM     33  C   UNL     1       7.433   4.344  15.475  0.00  0.00    +0.000 A 
ATOM     34  C   UNL     1       6.446   4.782  16.407  0.00  0.00    +0.000 A 
ENDBRANCH  22  24
ENDBRANCH   5  22
BRANCH   3  35
ATOM     35  C   UNL     1       1.671   2.043  18.309  0.00  0.00    +0.000 C 
BRANCH  35  36
ATOM     36  O   UNL     1       0.345   2.165  18.806  0.00  0.00    +0.000 OA
ATOM     37  H   UNL     1       0.003   3.014  18.496  0.00  0.00    +0.000 HD
ENDBRANCH  35  36
ENDBRANCH   3  35
TORSDOF 10
ENDMDL
MODEL 4
REMARK VINA RESULT:      -7.9      3.332      4.637
REMARK  Name = 
REMARK  11 active torsions:
REMARK  status: ('A' for Active; 'I' for Inactive)
REMARK    1  A    between atoms: C_1  and  C_2
REMARK    2  A    between atoms: N_5  and  C_6
REMARK    3  A    between atoms: C_6  and  C_7
REMARK    4  A    between atoms: C_7  and  C_8
REMARK    5  A    between atoms: C_8  and  C_9
REMARK    6  A    between atoms: C_9  and  C_10
REMARK    7  A    between atoms: N_12  and  C_13
REMARK    8  A    between atoms: C_15  and  C_16
REMARK    9  A    between atoms: C_16  and  O_17
REMARK   10  A    between atoms: C_19  and  N_20
REMARK   11  A    between atoms: N_20  and  C_21
REMARK                            x       y       z     vdW  Elec       q    Type
REMARK                         _______ _______ _______ _____ _____    ______ ____
ROOT
ATOM      1  C   UNL     1       0.630  10.093  18.205  0.00  0.00    +0.000 A 
ATOM      2  C   UNL     1      -0.652  10.022  17.707  0.00  0.00    +0.000 A 
ATOM      3  C   UNL     1      -1.608  10.980  18.088  0.00  0.00    +0.000 A 
ATOM      4  C   UNL     1      -1.232  12.085  18.901  0.00  0.00    +0.000 A 
ATOM      5  C   UNL     1       0.082  12.234  19.338  0.00  0.00    +0.000 A 
ATOM      6  C   UNL     1       0.997  11.188  18.997  0.00  0.00    +0.000 A 
ENDROOT
BRANCH   1   9
ATOM      7  C   UNL     1       1.944   8.136  18.886  0.00  0.00    +0.000 C 
ATOM      8  O   UNL     1       1.762   8.249  20.115  0.00  0.00    +0.000 OA
ATOM      9  N   UNL     1       1.471   8.998  17.921  0.00  0.00    +0.000 N 
ATOM     10  H   UNL     1       1.345   8.571  17.011  0.00  0.00    +0.000 HD
BRANCH   7  11
ATOM     11  C   UNL     1       2.705   6.964  18.309  0.00  0.00    +0.000 C 
BRANCH  11  12
ATOM     12  C   UNL     1       2.423   5.715  19.138  0.00  0.00    +0.000 C 
BRANCH  12  13
ATOM     13  C   UNL     1       3.501   4.643  18.989  0.00  0.00    +0.000 C 
BRANCH  13  14
ATOM     14  C   UNL     1       4.932   5.180  19.136  0.00  0.00    +0.000 C 
BRANCH  14  19
ATOM     15  C   UNL     1       7.853   8.536  17.746  0.00  0.00    +0.000 C 
ATOM     16  C   UNL     1       7.530   7.075  17.450  0.00  0.00    +0.000 C 
ATOM     17  C   UNL     1       6.095   6.937  16.923  0.00  0.00    +0.000 C 
ATOM     18  C   UNL     1       5.681   5.470  16.809  0.00  0.00    +0.000 C 
ATOM     19  N   UNL     1       5.841   4.723  18.068  0.00  0.00    +0.000 NA
ATOM     20  C   UNL     1       7.248   4.779  18.490  0.00  0.00    +0.000 C 
ATOM     21  C   UNL     1       7.763   6.205  18.694  0.00  0.00    +0.000 C 
ENDBRANCH  14  19
ENDBRANCH  13  14
ENDBRANCH  12  13
ENDBRANCH  11  12
ENDBRANCH   7  11
ENDBRANCH   1   9
BRANCH   5  22
ATOM     22  N   UNL     1       0.528  13.110  20.395  0.00  0.00    +0.000 N 
ATOM     23  H   UNL     1      -0.390  13.131  20.894  0.00  0.00    +0.000 HD
BRANCH  22  24
ATOM     24  C   UNL     1       0.998  14.548  20.608  0.00  0.00    +0.000 A 
ATOM     25  C   UNL     1       0.301  15.021  21.717  0.00  0.00    +0.000 A 
ATOM     26  C   UNL     1      -1.002  15.388  21.423  0.00  0.00    +0.000 A 
ATOM     27  N   UNL     1      -1.369  15.694  20.153  0.00  0.00    +0.000 NA
ATOM     28  C   UNL     1      -0.353  15.940  19.286  0.00  0.00    +0.000 A 
ATOM     29  C   UNL     1      -0.516  16.843  18.247  0.00  0.00    +0.000 A 
ATOM     30  C   UNL     1       0.580  17.512  17.704  0.00  0.00    +0.000 A 
ATOM     31 CL   UNL     1       0.355  18.630  16.417  0.00  0.00    +0.000 Cl
ATOM     32  C   UNL     1       1.844  17.326  18.249  0.00  0.00    +0.000 A 
ATOM     33  C   UNL     1       2.024  16.317  19.194  0.00  0.00    +0.000 A 
ATOM     34  C   UNL     1       0.929  15.495  19.596  0.00  0.00    +0.000 A 
ENDBRANCH  22  24
ENDBRANCH   5  22
BRANCH   3  35
ATOM     35  C   UNL     1      -3.035  10.662  17.715  0.00  0.00    +0.000 C 
BRANCH  35  36
ATOM     36  O   UNL     1      -3.366  11.348  16.515  0.00  0.00    +0.000 OA
ATOM     37  H   UNL     1      -2.943  12.216  16.559  0.00  0.00    +0.000 HD
ENDBRANCH  35  36
ENDBRANCH   3  35
TORSDOF 10
ENDMDL
MODEL 5
REMARK VINA RESULT:      -7.9      4.363      9.939
REMARK  Name = 
REMARK  11 active torsions:
REMARK  status: ('A' for Active; 'I' for Inactive)
REMARK    1  A    between atoms: C_1  and  C_2
REMARK    2  A    between atoms: N_5  and  C_6
REMARK    3  A    between atoms: C_6  and  C_7
REMARK    4  A    between atoms: C_7  and  C_8
REMARK    5  A    between atoms: C_8  and  C_9
REMARK    6  A    between atoms: C_9  and  C_10
REMARK    7  A    between atoms: N_12  and  C_13
REMARK    8  A    between atoms: C_15  and  C_16
REMARK    9  A    between atoms: C_16  and  O_17
REMARK   10  A    between atoms: C_19  and  N_20
REMARK   11  A    between atoms: N_20  and  C_21
REMARK                            x       y       z     vdW  Elec       q    Type
REMARK                         _______ _______ _______ _____ _____    ______ ____
ROOT
ATOM      1  C   UNL     1      -4.250  11.771  17.477  0.00  0.00    +0.000 A 
ATOM      2  C   UNL     1      -4.249  11.009  16.331  0.00  0.00    +0.000 A 
ATOM      3  C   UNL     1      -3.058  10.406  15.889  0.00  0.00    +0.000 A 
ATOM      4  C   UNL     1      -1.876  10.490  16.676  0.00  0.00    +0.000 A 
ATOM      5  C   UNL     1      -1.876  11.173  17.891  0.00  0.00    +0.000 A 
ATOM      6  C   UNL     1      -3.087  11.842  18.255  0.00  0.00    +0.000 A 
ENDROOT
BRANCH   1   9
ATOM      7  C   UNL     1      -6.570  11.902  18.266  0.00  0.00    +0.000 C 
ATOM      8  O   UNL     1      -6.726  10.684  18.485  0.00  0.00    +0.000 OA
ATOM      9  N   UNL     1      -5.434  12.486  17.749  0.00  0.00    +0.000 N 
ATOM     10  H   UNL     1      -5.311  13.457  18.013  0.00  0.00    +0.000 HD
BRANCH   7  11
ATOM     11  C   UNL     1      -7.650  12.907  18.601  0.00  0.00    +0.000 C 
BRANCH  11  12
ATOM     12  C   UNL     1      -7.192  13.777  19.767  0.00  0.00    +0.000 C 
BRANCH  12  13
ATOM     13  C   UNL     1      -6.898  12.973  21.032  0.00  0.00    +0.000 C 
BRANCH  13  14
ATOM     14  C   UNL     1      -5.409  12.924  21.403  0.00  0.00    +0.000 C 
BRANCH  14  19
ATOM     15  C   UNL     1      -0.936  12.492  22.642  0.00  0.00    +0.000 C 
ATOM     16  C   UNL     1      -2.195  13.246  23.061  0.00  0.00    +0.000 C 
ATOM     17  C   UNL     1      -3.289  12.264  23.502  0.00  0.00    +0.000 C 
ATOM     18  C   UNL     1      -4.620  12.979  23.734  0.00  0.00    +0.000 C 
ATOM     19  N   UNL     1      -5.069  13.761  22.569  0.00  0.00    +0.000 NA
ATOM     20  C   UNL     1      -4.050  14.768  22.239  0.00  0.00    +0.000 C 
ATOM     21  C   UNL     1      -2.679  14.163  21.928  0.00  0.00    +0.000 C 
ENDBRANCH  14  19
ENDBRANCH  13  14
ENDBRANCH  12  13
ENDBRANCH  11  12
ENDBRANCH   7  11
ENDBRANCH   1   9
BRANCH   5  22
ATOM     22  N   UNL     1      -0.706  11.593  18.625  0.00  0.00    +0.000 N 
ATOM     23  H   UNL     1      -0.145  11.834  17.777  0.00  0.00    +0.000 HD
BRANCH  22  24
ATOM     24  C   UNL     1       0.382  11.018  19.529  0.00  0.00    +0.000 A 
ATOM     25  C   UNL     1       1.373  11.994  19.608  0.00  0.00    +0.000 A 
ATOM     26  C   UNL     1       2.189  12.031  18.489  0.00  0.00    +0.000 A 
ATOM     27  N   UNL     1       2.297  10.954  17.671  0.00  0.00    +0.000 NA
ATOM     28  C   UNL     1       1.847   9.777  18.177  0.00  0.00    +0.000 A 
ATOM     29  C   UNL     1       2.439   8.580  17.809  0.00  0.00    +0.000 A 
ATOM     30  C   UNL     1       2.400   7.473  18.657  0.00  0.00    +0.000 A 
ATOM     31 CL   UNL     1       3.142   5.997  18.182  0.00  0.00    +0.000 Cl
ATOM     32  C   UNL     1       1.821   7.585  19.915  0.00  0.00    +0.000 A 
ATOM     33  C   UNL     1       1.107   8.743  20.222  0.00  0.00    +0.000 A 
ATOM     34  C   UNL     1       0.978   9.792  19.264  0.00  0.00    +0.000 A 
ENDBRANCH  22  24
ENDBRANCH   5  22
BRANCH   3  35
ATOM     35  C   UNL     1      -3.096   9.831  14.495  0.00  0.00    +0.000 C 
BRANCH  35  36
ATOM     36  O   UNL     1      -4.424   9.911  13.995  0.00  0.00    +0.000 OA
ATOM     37  H   UNL     1      -4.420  10.563  13.282  0.00  0.00    +0.000 HD
ENDBRANCH  35  36
ENDBRANCH   3  35
TORSDOF 10
ENDMDL
MODEL 6
REMARK VINA RESULT:      -7.8      3.832      6.031
REMARK  Name = 
REMARK  11 active torsions:
REMARK  status: ('A' for Active; 'I' for Inactive)
REMARK    1  A    between atoms: C_1  and  C_2
REMARK    2  A    between atoms: N_5  and  C_6
REMARK    3  A    between atoms: C_6  and  C_7
REMARK    4  A    between atoms: C_7  and  C_8
REMARK    5  A    between atoms: C_8  and  C_9
REMARK    6  A    between atoms: C_9  and  C_10
REMARK    7  A    between atoms: N_12  and  C_13
REMARK    8  A    between atoms: C_15  and  C_16
REMARK    9  A    between atoms: C_16  and  O_17
REMARK   10  A    between atoms: C_19  and  N_20
REMARK   11  A    between atoms: N_20  and  C_21
REMARK                            x       y       z     vdW  Elec       q    Type
REMARK                         _______ _______ _______ _____ _____    ______ ____
ROOT
ATOM      1  C   UNL     1       4.477   5.436  19.166  0.00  0.00    +0.000 A 
ATOM      2  C   UNL     1       4.196   4.113  19.430  0.00  0.00    +0.000 A 
ATOM      3  C   UNL     1       3.054   3.772  20.176  0.00  0.00    +0.000 A 
ATOM      4  C   UNL     1       2.128   4.778  20.570  0.00  0.00    +0.000 A 
ATOM      5  C   UNL     1       2.338   6.113  20.230  0.00  0.00    +0.000 A 
ATOM      6  C   UNL     1       3.556   6.420  19.546  0.00  0.00    +0.000 A 
ENDROOT
BRANCH   1   9
ATOM      7  C   UNL     1       5.888   6.511  17.471  0.00  0.00    +0.000 C 
ATOM      8  O   UNL     1       4.966   7.041  16.818  0.00  0.00    +0.000 OA
ATOM      9  N   UNL     1       5.728   5.701  18.574  0.00  0.00    +0.000 N 
ATOM     10  H   UNL     1       6.522   5.698  19.203  0.00  0.00    +0.000 HD
BRANCH   7  11
ATOM     11  C   UNL     1       7.339   6.751  17.119  0.00  0.00    +0.000 C 
BRANCH  11  12
ATOM     12  C   UNL     1       7.990   7.609  18.200  0.00  0.00    +0.000 C 
BRANCH  12  13
ATOM     13  C   UNL     1       8.021   9.094  17.844  0.00  0.00    +0.000 C 
BRANCH  13  14
ATOM     14  C   UNL     1       8.900   9.937  18.779  0.00  0.00    +0.000 C 
BRANCH  14  19
ATOM     15  C   UNL     1       9.904  13.612  21.464  0.00  0.00    +0.000 C 
ATOM     16  C   UNL     1      10.158  13.096  20.051  0.00  0.00    +0.000 C 
ATOM     17  C   UNL     1       8.836  12.949  19.286  0.00  0.00    +0.000 C 
ATOM     18  C   UNL     1       9.043  12.247  17.943  0.00  0.00    +0.000 C 
ATOM     19  N   UNL     1       9.713  10.942  18.069  0.00  0.00    +0.000 NA
ATOM     20  C   UNL     1      11.025  11.129  18.705  0.00  0.00    +0.000 C 
ATOM     21  C   UNL     1      10.940  11.775  20.090  0.00  0.00    +0.000 C 
ENDBRANCH  14  19
ENDBRANCH  13  14
ENDBRANCH  12  13
ENDBRANCH  11  12
ENDBRANCH   7  11
ENDBRANCH   1   9
BRANCH   5  22
ATOM     22  N   UNL     1       1.664   7.249  20.811  0.00  0.00    +0.000 N 
ATOM     23  H   UNL     1       0.759   7.086  20.316  0.00  0.00    +0.000 HD
BRANCH  22  24
ATOM     24  C   UNL     1       1.718   8.776  20.805  0.00  0.00    +0.000 A 
ATOM     25  C   UNL     1       1.507   9.174  22.123  0.00  0.00    +0.000 A 
ATOM     26  C   UNL     1       0.174   9.127  22.498  0.00  0.00    +0.000 A 
ATOM     27  N   UNL     1      -0.812   9.155  21.566  0.00  0.00    +0.000 NA
ATOM     28  C   UNL     1      -0.443   9.560  20.324  0.00  0.00    +0.000 A 
ATOM     29  C   UNL     1      -1.334  10.242  19.512  0.00  0.00    +0.000 A 
ATOM     30  C   UNL     1      -0.876  11.114  18.524  0.00  0.00    +0.000 A 
ATOM     31 CL   UNL     1      -1.998  11.952  17.527  0.00  0.00    +0.000 Cl
ATOM     32  C   UNL     1       0.486  11.356  18.391  0.00  0.00    +0.000 A 
ATOM     33  C   UNL     1       1.379  10.565  19.112  0.00  0.00    +0.000 A 
ATOM     34  C   UNL     1       0.903   9.530  19.971  0.00  0.00    +0.000 A 
ENDBRANCH  22  24
ENDBRANCH   5  22
BRANCH   3  35
ATOM     35  C   UNL     1       2.985   2.340  20.643  0.00  0.00    +0.000 C 
BRANCH  35  36
ATOM     36  O   UNL     1       2.776   2.318  22.049  0.00  0.00    +0.000 OA
ATOM     37  H   UNL     1       1.993   2.857  22.227  0.00  0.00    +0.000 HD
ENDBRANCH  35  36
ENDBRANCH   3  35
TORSDOF 10
ENDMDL
MODEL 7
REMARK VINA RESULT:      -7.7      3.414      5.052
REMARK  Name = 
REMARK  11 active torsions:
REMARK  status: ('A' for Active; 'I' for Inactive)
REMARK    1  A    between atoms: C_1  and  C_2
REMARK    2  A    between atoms: N_5  and  C_6
REMARK    3  A    between atoms: C_6  and  C_7
REMARK    4  A    between atoms: C_7  and  C_8
REMARK    5  A    between atoms: C_8  and  C_9
REMARK    6  A    between atoms: C_9  and  C_10
REMARK    7  A    between atoms: N_12  and  C_13
REMARK    8  A    between atoms: C_15  and  C_16
REMARK    9  A    between atoms: C_16  and  O_17
REMARK   10  A    between atoms: C_19  and  N_20
REMARK   11  A    between atoms: N_20  and  C_21
REMARK                            x       y       z     vdW  Elec       q    Type
REMARK                         _______ _______ _______ _____ _____    ______ ____
ROOT
ATOM      1  C   UNL     1       1.495   9.962  18.081  0.00  0.00    +0.000 A 
ATOM      2  C   UNL     1       0.121  10.054  18.108  0.00  0.00    +0.000 A 
ATOM      3  C   UNL     1      -0.495  11.251  18.515  0.00  0.00    +0.000 A 
ATOM      4  C   UNL     1       0.291  12.403  18.797  0.00  0.00    +0.000 A 
ATOM      5  C   UNL     1       1.679  12.364  18.682  0.00  0.00    +0.000 A 
ATOM      6  C   UNL     1       2.264  11.101  18.349  0.00  0.00    +0.000 A 
ENDROOT
BRANCH   1   9
ATOM      7  C   UNL     1       2.168   7.720  18.818  0.00  0.00    +0.000 C 
ATOM      8  O   UNL     1       1.921   7.878  20.031  0.00  0.00    +0.000 OA
ATOM      9  N   UNL     1       2.028   8.680  17.839  0.00  0.00    +0.000 N 
ATOM     10  H   UNL     1       1.869   8.304  16.912  0.00  0.00    +0.000 HD
BRANCH   7  11
ATOM     11  C   UNL     1       2.629   6.386  18.276  0.00  0.00    +0.000 C 
BRANCH  11  12
ATOM     12  C   UNL     1       3.964   6.562  17.558  0.00  0.00    +0.000 C 
BRANCH  12  13
ATOM     13  C   UNL     1       4.662   5.235  17.264  0.00  0.00    +0.000 C 
BRANCH  13  14
ATOM     14  C   UNL     1       3.708   4.034  17.201  0.00  0.00    +0.000 C 
BRANCH  14  19
ATOM     15  C   UNL     1       0.918   3.188  20.838  0.00  0.00    +0.000 C 
ATOM     16  C   UNL     1       2.182   2.638  20.185  0.00  0.00    +0.000 C 
ATOM     17  C   UNL     1       3.302   3.688  20.209  0.00  0.00    +0.000 C 
ATOM     18  C   UNL     1       4.509   3.236  19.387  0.00  0.00    +0.000 C 
ATOM     19  N   UNL     1       4.165   2.881  18.000  0.00  0.00    +0.000 NA
ATOM     20  C   UNL     1       3.173   1.796  18.007  0.00  0.00    +0.000 C 
ATOM     21  C   UNL     1       1.888   2.156  18.757  0.00  0.00    +0.000 C 
ENDBRANCH  14  19
ENDBRANCH  13  14
ENDBRANCH  12  13
ENDBRANCH  11  12
ENDBRANCH   7  11
ENDBRANCH   1   9
BRANCH   5  22
ATOM     22  N   UNL     1       2.600  13.336  19.221  0.00  0.00    +0.000 N 
ATOM     23  H   UNL     1       2.323  13.185  20.217  0.00  0.00    +0.000 HD
BRANCH  22  24
ATOM     24  C   UNL     1       2.849  14.843  19.222  0.00  0.00    +0.000 A 
ATOM     25  C   UNL     1       3.148  15.184  20.539  0.00  0.00    +0.000 A 
ATOM     26  C   UNL     1       2.024  15.272  21.344  0.00  0.00    +0.000 A 
ATOM     27  N   UNL     1       0.795  15.473  20.805  0.00  0.00    +0.000 NA
ATOM     28  C   UNL     1       0.777  15.905  19.517  0.00  0.00    +0.000 A 
ATOM     29  C   UNL     1      -0.237  16.737  19.068  0.00  0.00    +0.000 A 
ATOM     30  C   UNL     1      -0.026  17.606  17.998  0.00  0.00    +0.000 A 
ATOM     31 CL   UNL     1      -1.296  18.630  17.456  0.00  0.00    +0.000 Cl
ATOM     32  C   UNL     1       1.232  17.692  17.414  0.00  0.00    +0.000 A 
ATOM     33  C   UNL     1       2.203  16.758  17.774  0.00  0.00    +0.000 A 
ATOM     34  C   UNL     1       1.910  15.737  18.727  0.00  0.00    +0.000 A 
ENDBRANCH  22  24
ENDBRANCH   5  22
BRANCH   3  35
ATOM     35  C   UNL     1      -1.978  11.165  18.774  0.00  0.00    +0.000 C 
BRANCH  35  36
ATOM     36  O   UNL     1      -2.360  12.219  19.647  0.00  0.00    +0.000 OA
ATOM     37  H   UNL     1      -1.776  12.967  19.461  0.00  0.00    +0.000 HD
ENDBRANCH  35  36
ENDBRANCH   3  35
TORSDOF 10
ENDMDL
MODEL 8
REMARK VINA RESULT:      -7.7      2.151      3.551
REMARK  Name = 
REMARK  11 active torsions:
REMARK  status: ('A' for Active; 'I' for Inactive)
REMARK    1  A    between atoms: C_1  and  C_2
REMARK    2  A    between atoms: N_5  and  C_6
REMARK    3  A    between atoms: C_6  and  C_7
REMARK    4  A    between atoms: C_7  and  C_8
REMARK    5  A    between atoms: C_8  and  C_9
REMARK    6  A    between atoms: C_9  and  C_10
REMARK    7  A    between atoms: N_12  and  C_13
REMARK    8  A    between atoms: C_15  and  C_16
REMARK    9  A    between atoms: C_16  and  O_17
REMARK   10  A    between atoms: C_19  and  N_20
REMARK   11  A    between atoms: N_20  and  C_21
REMARK                            x       y       z     vdW  Elec       q    Type
REMARK                         _______ _______ _______ _____ _____    ______ ____
ROOT
ATOM      1  C   UNL     1       2.012   8.466  18.779  0.00  0.00    +0.000 A 
ATOM      2  C   UNL     1       1.854   8.213  20.124  0.00  0.00    +0.000 A 
ATOM      3  C   UNL     1       0.857   8.886  20.852  0.00  0.00    +0.000 A 
ATOM      4  C   UNL     1      -0.060   9.747  20.188  0.00  0.00    +0.000 A 
ATOM      5  C   UNL     1       0.018   9.944  18.811  0.00  0.00    +0.000 A 
ATOM      6  C   UNL     1       1.101   9.306  18.128  0.00  0.00    +0.000 A 
ENDROOT
BRANCH   1   9
ATOM      7  C   UNL     1       3.193   6.582  17.739  0.00  0.00    +0.000 C 
ATOM      8  O   UNL     1       2.296   5.731  17.902  0.00  0.00    +0.000 OA
ATOM      9  N   UNL     1       3.145   7.892  18.166  0.00  0.00    +0.000 N 
ATOM     10  H   UNL     1       3.720   8.525  17.624  0.00  0.00    +0.000 HD
BRANCH   7  11
ATOM     11  C   UNL     1       4.463   6.253  16.987  0.00  0.00    +0.000 C 
BRANCH  11  12
ATOM     12  C   UNL     1       4.452   4.780  16.591  0.00  0.00    +0.000 C 
BRANCH  12  13
ATOM     13  C   UNL     1       5.412   3.932  17.424  0.00  0.00    +0.000 C 
BRANCH  13  14
ATOM     14  C   UNL     1       4.989   3.778  18.892  0.00  0.00    +0.000 C 
BRANCH  14  19
ATOM     15  C   UNL     1       0.551   3.208  20.197  0.00  0.00    +0.000 C 
ATOM     16  C   UNL     1       1.830   2.394  20.025  0.00  0.00    +0.000 C 
ATOM     17  C   UNL     1       2.925   2.907  20.970  0.00  0.00    +0.000 C 
ATOM     18  C   UNL     1       4.271   2.243  20.676  0.00  0.00    +0.000 C 
ATOM     19  N   UNL     1       4.693   2.385  19.272  0.00  0.00    +0.000 NA
ATOM     20  C   UNL     1       3.676   1.785  18.397  0.00  0.00    +0.000 C 
ATOM     21  C   UNL     1       2.290   2.413  18.560  0.00  0.00    +0.000 C 
ENDBRANCH  14  19
ENDBRANCH  13  14
ENDBRANCH  12  13
ENDBRANCH  11  12
ENDBRANCH   7  11
ENDBRANCH   1   9
BRANCH   5  22
ATOM     22  N   UNL     1      -0.630  11.000  18.070  0.00  0.00    +0.000 N 
ATOM     23  H   UNL     1       0.255  11.500  17.826  0.00  0.00    +0.000 HD
BRANCH  22  24
ATOM     24  C   UNL     1      -1.572  12.182  18.290  0.00  0.00    +0.000 A 
ATOM     25  C   UNL     1      -0.796  13.328  18.126  0.00  0.00    +0.000 A 
ATOM     26  C   UNL     1      -0.017  13.619  19.233  0.00  0.00    +0.000 A 
ATOM     27  N   UNL     1      -0.338  13.132  20.458  0.00  0.00    +0.000 NA
ATOM     28  C   UNL     1      -1.600  12.648  20.591  0.00  0.00    +0.000 A 
ATOM     29  C   UNL     1      -2.265  12.738  21.803  0.00  0.00    +0.000 A 
ATOM     30  C   UNL     1      -3.659  12.770  21.853  0.00  0.00    +0.000 A 
ATOM     31 CL   UNL     1      -4.464  12.884  23.368  0.00  0.00    +0.000 Cl
ATOM     32  C   UNL     1      -4.393  12.780  20.674  0.00  0.00    +0.000 A 
ATOM     33  C   UNL     1      -3.729  12.548  19.470  0.00  0.00    +0.000 A 
ATOM     34  C   UNL     1      -2.322  12.310  19.451  0.00  0.00    +0.000 A 
ENDBRANCH  22  24
ENDBRANCH   5  22
BRANCH   3  35
ATOM     35  C   UNL     1       0.943   8.751  22.352  0.00  0.00    +0.000 C 
BRANCH  35  36
ATOM     36  O   UNL     1       2.201   9.243  22.792  0.00  0.00    +0.000 OA
ATOM     37  H   UNL     1       2.878   8.806  22.258  0.00  0.00    +0.000 HD
ENDBRANCH  35  36
ENDBRANCH   3  35
TORSDOF 10
ENDMDL
MODEL 9
REMARK VINA RESULT:      -7.7      3.406      9.869
REMARK  Name = 
REMARK  11 active torsions:
REMARK  status: ('A' for Active; 'I' for Inactive)
REMARK    1  A    between atoms: C_1  and  C_2
REMARK    2  A    between atoms: N_5  and  C_6
REMARK    3  A    between atoms: C_6  and  C_7
REMARK    4  A    between atoms: C_7  and  C_8
REMARK    5  A    between atoms: C_8  and  C_9
REMARK    6  A    between atoms: C_9  and  C_10
REMARK    7  A    between atoms: N_12  and  C_13
REMARK    8  A    between atoms: C_15  and  C_16
REMARK    9  A    between atoms: C_16  and  O_17
REMARK   10  A    between atoms: C_19  and  N_20
REMARK   11  A    between atoms: N_20  and  C_21
REMARK                            x       y       z     vdW  Elec       q    Type
REMARK                         _______ _______ _______ _____ _____    ______ ____
ROOT
ATOM      1  C   UNL     1       2.830   5.532  19.911  0.00  0.00    +0.000 A 
ATOM      2  C   UNL     1       2.072   4.406  19.683  0.00  0.00    +0.000 A 
ATOM      3  C   UNL     1       2.664   3.263  19.117  0.00  0.00    +0.000 A 
ATOM      4  C   UNL     1       4.065   3.225  18.877  0.00  0.00    +0.000 A 
ATOM      5  C   UNL     1       4.872   4.317  19.191  0.00  0.00    +0.000 A 
ATOM      6  C   UNL     1       4.211   5.486  19.683  0.00  0.00    +0.000 A 
ENDROOT
BRANCH   1   9
ATOM      7  C   UNL     1       2.037   7.823  19.532  0.00  0.00    +0.000 C 
ATOM      8  O   UNL     1       2.613   8.006  18.441  0.00  0.00    +0.000 OA
ATOM      9  N   UNL     1       2.127   6.688  20.308  0.00  0.00    +0.000 N 
ATOM     10  H   UNL     1       1.324   6.531  20.906  0.00  0.00    +0.000 HD
BRANCH   7  11
ATOM     11  C   UNL     1       1.109   8.865  20.116  0.00  0.00    +0.000 C 
BRANCH  11  12
ATOM     12  C   UNL     1       1.021  10.057  19.168  0.00  0.00    +0.000 C 
BRANCH  12  13
ATOM     13  C   UNL     1      -0.418  10.466  18.857  0.00  0.00    +0.000 C 
BRANCH  13  14
ATOM     14  C   UNL     1      -1.200  10.959  20.083  0.00  0.00    +0.000 C 
BRANCH  14  19
ATOM     15  C   UNL     1      -3.580  12.355  23.839  0.00  0.00    +0.000 C 
ATOM     16  C   UNL     1      -2.535  12.879  22.859  0.00  0.00    +0.000 C 
ATOM     17  C   UNL     1      -3.107  12.925  21.436  0.00  0.00    +0.000 C 
ATOM     18  C   UNL     1      -2.023  13.255  20.409  0.00  0.00    +0.000 C 
ATOM     19  N   UNL     1      -0.869  12.342  20.471  0.00  0.00    +0.000 NA
ATOM     20  C   UNL     1      -0.274  12.403  21.815  0.00  0.00    +0.000 C 
ATOM     21  C   UNL     1      -1.255  12.033  22.929  0.00  0.00    +0.000 C 
ENDBRANCH  14  19
ENDBRANCH  13  14
ENDBRANCH  12  13
ENDBRANCH  11  12
ENDBRANCH   7  11
ENDBRANCH   1   9
BRANCH   5  22
ATOM     22  N   UNL     1       6.222   4.532  18.728  0.00  0.00    +0.000 N 
ATOM     23  H   UNL     1       6.381   5.394  19.297  0.00  0.00    +0.000 HD
BRANCH  22  24
ATOM     24  C   UNL     1       6.983   4.891  17.453  0.00  0.00    +0.000 A 
ATOM     25  C   UNL     1       7.203   6.266  17.510  0.00  0.00    +0.000 A 
ATOM     26  C   UNL     1       6.086   7.009  17.167  0.00  0.00    +0.000 A 
ATOM     27  N   UNL     1       5.090   6.466  16.422  0.00  0.00    +0.000 NA
ATOM     28  C   UNL     1       5.397   5.312  15.774  0.00  0.00    +0.000 A 
ATOM     29  C   UNL     1       4.810   5.012  14.555  0.00  0.00    +0.000 A 
ATOM     30  C   UNL     1       5.454   4.182  13.637  0.00  0.00    +0.000 A 
ATOM     31 CL   UNL     1       4.710   3.824  12.130  0.00  0.00    +0.000 Cl
ATOM     32  C   UNL     1       6.728   3.701  13.915  0.00  0.00    +0.000 A 
ATOM     33  C   UNL     1       7.251   3.889  15.193  0.00  0.00    +0.000 A 
ATOM     34  C   UNL     1       6.493   4.566  16.195  0.00  0.00    +0.000 A 
ENDBRANCH  22  24
ENDBRANCH   5  22
BRANCH   3  35
ATOM     35  C   UNL     1       1.706   2.193  18.656  0.00  0.00    +0.000 C 
BRANCH  35  36
ATOM     36  O   UNL     1       0.389   2.540  19.063  0.00  0.00    +0.000 OA
ATOM     37  H   UNL     1       0.128   1.908  19.746  0.00  0.00    +0.000 HD
ENDBRANCH  35  36
ENDBRANCH   3  35
TORSDOF 10
ENDMDL
