MODEL 1
REMARK VINA RESULT:      -8.2      0.000      0.000
REMARK  Name = 
REMARK  4 active torsions:
REMARK  status: ('A' for Active; 'I' for Inactive)
REMARK    1  A    between atoms: C_2  and  C_3
REMARK    2  A    between atoms: C_12  and  S_13
REMARK    3  A    between atoms: S_13  and  N_16
REMARK    4  A    between atoms: N_16  and  C_17
REMARK                            x       y       z     vdW  Elec       q    Type
REMARK                         _______ _______ _______ _____ _____    ______ ____
ROOT
ATOM      1  O   UNL     1       0.332   8.775  21.568  0.00  0.00    +0.000 OA
ATOM      2  C   UNL     1       0.664   9.297  20.497  0.00  0.00    +0.000 C 
ATOM      3  N   UNL     1       1.480   8.668  19.565  0.00  0.00    +0.000 N 
ATOM      4  C   UNL     1       2.007   9.280  18.334  0.00  0.00    +0.000 C 
ATOM      5  C   UNL     1       2.648   8.161  17.506  0.00  0.00    +0.000 C 
ATOM      6  C   UNL     1       2.676   7.033  18.485  0.00  0.00    +0.000 A 
ATOM      7  C   UNL     1       3.247   5.783  18.309  0.00  0.00    +0.000 A 
ATOM      8  C   UNL     1       3.108   4.844  19.337  0.00  0.00    +0.000 A 
ATOM      9  C   UNL     1       2.405   5.159  20.514  0.00  0.00    +0.000 A 
ATOM     10  C   UNL     1       1.830   6.426  20.670  0.00  0.00    +0.000 A 
ATOM     11  C   UNL     1       1.975   7.353  19.651  0.00  0.00    +0.000 A 
ENDROOT
BRANCH   2  12
ATOM     12  C   UNL     1       0.144  10.703  20.082  0.00  0.00    +0.000 C 
ATOM     13  C   UNL     1      -1.219  10.725  19.333  0.00  0.00    +0.000 C 
ATOM     14  C   UNL     1      -1.556  12.017  20.092  0.00  0.00    +0.000 C 
ATOM     15  C   UNL     1      -0.551  11.572  21.170  0.00  0.00    +0.000 C 
ENDBRANCH   2  12
BRANCH   8  16
ATOM     16  S   UNL     1       3.893   3.260  19.163  0.00  0.00    +0.000 S 
ATOM     17  O   UNL     1       3.718   2.566  20.421  0.00  0.00    +0.000 OA
ATOM     18  O   UNL     1       3.500   2.668  17.905  0.00  0.00    +0.000 OA
BRANCH  16  19
ATOM     19  N   UNL     1       5.538   3.640  19.082  0.00  0.00    +0.000 NA
ATOM     20  H   UNL     1       6.042   2.844  18.686  0.00  0.00    +0.000 HD
BRANCH  19  21
ATOM     21  C   UNL     1       5.938   4.962  18.582  0.00  0.00    +0.000 C 
ATOM     22  C   UNL     1       7.144   5.544  19.303  0.00  0.00    +0.000 C 
ATOM     23  C   UNL     1       7.644   6.610  18.339  0.00  0.00    +0.000 C 
ATOM     24  C   UNL     1       7.346   6.070  16.943  0.00  0.00    +0.000 C 
ATOM     25  C   UNL     1       6.441   4.855  17.142  0.00  0.00    +0.000 C 
ENDBRANCH  19  21
ENDBRANCH  16  19
ENDBRANCH   8  16
TORSDOF 4
ENDMDL
MODEL 2
REMARK VINA RESULT:      -8.0      3.144      4.187
REMARK  Name = 
REMARK  4 active torsions:
REMARK  status: ('A' for Active; 'I' for Inactive)
REMARK    1  A    between atoms: C_2  and  C_3
REMARK    2  A    between atoms: C_12  and  S_13
REMARK    3  A    between atoms: S_13  and  N_16
REMARK    4  A    between atoms: N_16  and  C_17
REMARK                            x       y       z     vdW  Elec       q    Type
REMARK                         _______ _______ _______ _____ _____    ______ ____
ROOT
ATOM      1  O   UNL     1       1.496   9.336  19.235  0.00  0.00    +0.000 OA
ATOM      2  C   UNL     1       1.340   8.379  20.002  0.00  0.00    +0.000 C 
ATOM      3  N   UNL     1       2.022   7.176  19.866  0.00  0.00    +0.000 N 
ATOM      4  C   UNL     1       1.793   5.963  20.669  0.00  0.00    +0.000 C 
ATOM      5  C   UNL     1       2.919   4.978  20.339  0.00  0.00    +0.000 C 
ATOM      6  C   UNL     1       3.547   5.619  19.145  0.00  0.00    +0.000 A 
ATOM      7  C   UNL     1       4.566   5.108  18.356  0.00  0.00    +0.000 A 
ATOM      8  C   UNL     1       5.054   5.903  17.313  0.00  0.00    +0.000 A 
ATOM      9  C   UNL     1       4.528   7.185  17.075  0.00  0.00    +0.000 A 
ATOM     10  C   UNL     1       3.503   7.687  17.887  0.00  0.00    +0.000 A 
ATOM     11  C   UNL     1       3.021   6.893  18.915  0.00  0.00    +0.000 A 
ENDROOT
BRANCH   2  12
ATOM     12  C   UNL     1       0.390   8.467  21.230  0.00  0.00    +0.000 C 
ATOM     13  C   UNL     1       1.010   9.074  22.522  0.00  0.00    +0.000 C 
ATOM     14  C   UNL     1      -0.344   9.749  22.791  0.00  0.00    +0.000 C 
ATOM     15  C   UNL     1      -0.626   9.645  21.281  0.00  0.00    +0.000 C 
ENDBRANCH   2  12
BRANCH   8  16
ATOM     16  S   UNL     1       6.309   5.240  16.245  0.00  0.00    +0.000 S 
ATOM     17  O   UNL     1       7.260   6.305  16.006  0.00  0.00    +0.000 OA
ATOM     18  O   UNL     1       6.722   3.946  16.739  0.00  0.00    +0.000 OA
BRANCH  16  19
ATOM     19  N   UNL     1       5.502   5.016  14.776  0.00  0.00    +0.000 NA
ATOM     20  H   UNL     1       5.343   5.929  14.345  0.00  0.00    +0.000 HD
BRANCH  19  21
ATOM     21  C   UNL     1       5.953   3.951  13.872  0.00  0.00    +0.000 C 
ATOM     22  C   UNL     1       4.916   3.556  12.833  0.00  0.00    +0.000 C 
ATOM     23  C   UNL     1       5.740   2.847  11.770  0.00  0.00    +0.000 C 
ATOM     24  C   UNL     1       7.095   3.551  11.766  0.00  0.00    +0.000 C 
ATOM     25  C   UNL     1       7.110   4.448  13.003  0.00  0.00    +0.000 C 
ENDBRANCH  19  21
ENDBRANCH  16  19
ENDBRANCH   8  16
TORSDOF 4
ENDMDL
MODEL 3
REMARK VINA RESULT:      -8.0      1.418      2.100
REMARK  Name = 
REMARK  4 active torsions:
REMARK  status: ('A' for Active; 'I' for Inactive)
REMARK    1  A    between atoms: C_2  and  C_3
REMARK    2  A    between atoms: C_12  and  S_13
REMARK    3  A    between atoms: S_13  and  N_16
REMARK    4  A    between atoms: N_16  and  C_17
REMARK                            x       y       z     vdW  Elec       q    Type
REMARK                         _______ _______ _______ _____ _____    ______ ____
ROOT
ATOM      1  O   UNL     1       1.913  10.152  17.402  0.00  0.00    +0.000 OA
ATOM      2  C   UNL     1       1.437  10.103  18.542  0.00  0.00    +0.000 C 
ATOM      3  N   UNL     1       1.499   8.970  19.344  0.00  0.00    +0.000 N 
ATOM      4  C   UNL     1       0.850   8.809  20.655  0.00  0.00    +0.000 C 
ATOM      5  C   UNL     1       1.382   7.511  21.273  0.00  0.00    +0.000 C 
ATOM      6  C   UNL     1       2.095   6.891  20.116  0.00  0.00    +0.000 A 
ATOM      7  C   UNL     1       2.691   5.641  20.070  0.00  0.00    +0.000 A 
ATOM      8  C   UNL     1       3.362   5.274  18.898  0.00  0.00    +0.000 A 
ATOM      9  C   UNL     1       3.433   6.150  17.800  0.00  0.00    +0.000 A 
ATOM     10  C   UNL     1       2.829   7.412  17.869  0.00  0.00    +0.000 A 
ATOM     11  C   UNL     1       2.162   7.767  19.030  0.00  0.00    +0.000 A 
ENDROOT
BRANCH   2  12
ATOM     12  C   UNL     1       0.762  11.342  19.197  0.00  0.00    +0.000 C 
ATOM     13  C   UNL     1       1.452  12.710  18.922  0.00  0.00    +0.000 C 
ATOM     14  C   UNL     1       0.052  13.340  18.849  0.00  0.00    +0.000 C 
ATOM     15  C   UNL     1      -0.490  11.944  18.496  0.00  0.00    +0.000 C 
ENDBRANCH   2  12
BRANCH   8  16
ATOM     16  S   UNL     1       4.072   3.649  18.790  0.00  0.00    +0.000 S 
ATOM     17  O   UNL     1       3.721   2.958  20.013  0.00  0.00    +0.000 OA
ATOM     18  O   UNL     1       3.788   3.088  17.490  0.00  0.00    +0.000 OA
BRANCH  16  19
ATOM     19  N   UNL     1       5.735   3.936  18.894  0.00  0.00    +0.000 NA
ATOM     20  H   UNL     1       6.229   3.207  18.377  0.00  0.00    +0.000 HD
BRANCH  19  21
ATOM     21  C   UNL     1       6.233   5.304  18.704  0.00  0.00    +0.000 C 
ATOM     22  C   UNL     1       7.533   5.586  19.442  0.00  0.00    +0.000 C 
ATOM     23  C   UNL     1       8.077   6.816  18.732  0.00  0.00    +0.000 C 
ATOM     24  C   UNL     1       7.642   6.673  17.275  0.00  0.00    +0.000 C 
ATOM     25  C   UNL     1       6.634   5.524  17.244  0.00  0.00    +0.000 C 
ENDBRANCH  19  21
ENDBRANCH  16  19
ENDBRANCH   8  16
TORSDOF 4
ENDMDL
MODEL 4
REMARK VINA RESULT:      -7.9      1.188      1.362
REMARK  Name = 
REMARK  4 active torsions:
REMARK  status: ('A' for Active; 'I' for Inactive)
REMARK    1  A    between atoms: C_2  and  C_3
REMARK    2  A    between atoms: C_12  and  S_13
REMARK    3  A    between atoms: S_13  and  N_16
REMARK    4  A    between atoms: N_16  and  C_17
REMARK                            x       y       z     vdW  Elec       q    Type
REMARK                         _______ _______ _______ _____ _____    ______ ____
ROOT
ATOM      1  O   UNL     1       0.515   9.048  22.385  0.00  0.00    +0.000 OA
ATOM      2  C   UNL     1       0.577   9.788  21.397  0.00  0.00    +0.000 C 
ATOM      3  N   UNL     1       1.122   9.391  20.182  0.00  0.00    +0.000 N 
ATOM      4  C   UNL     1       1.334  10.258  19.011  0.00  0.00    +0.000 C 
ATOM      5  C   UNL     1       1.727   9.353  17.838  0.00  0.00    +0.000 C 
ATOM      6  C   UNL     1       1.981   8.052  18.526  0.00  0.00    +0.000 A 
ATOM      7  C   UNL     1       2.468   6.885  17.960  0.00  0.00    +0.000 A 
ATOM      8  C   UNL     1       2.576   5.752  18.776  0.00  0.00    +0.000 A 
ATOM      9  C   UNL     1       2.197   5.797  20.129  0.00  0.00    +0.000 A 
ATOM     10  C   UNL     1       1.700   6.985  20.681  0.00  0.00    +0.000 A 
ATOM     11  C   UNL     1       1.601   8.103  19.870  0.00  0.00    +0.000 A 
ENDROOT
BRANCH   2  12
ATOM     12  C   UNL     1      -0.006  11.230  21.422  0.00  0.00    +0.000 C 
ATOM     13  C   UNL     1      -1.301  11.449  20.587  0.00  0.00    +0.000 C 
ATOM     14  C   UNL     1      -1.792  12.394  21.694  0.00  0.00    +0.000 C 
ATOM     15  C   UNL     1      -0.850  11.651  22.659  0.00  0.00    +0.000 C 
ENDBRANCH   2  12
BRANCH   8  16
ATOM     16  S   UNL     1       3.265   4.265  18.090  0.00  0.00    +0.000 S 
ATOM     17  O   UNL     1       3.751   3.478  19.203  0.00  0.00    +0.000 OA
ATOM     18  O   UNL     1       2.350   3.720  17.113  0.00  0.00    +0.000 OA
BRANCH  16  19
ATOM     19  N   UNL     1       4.647   4.806  17.281  0.00  0.00    +0.000 NA
ATOM     20  H   UNL     1       4.389   5.070  16.328  0.00  0.00    +0.000 HD
BRANCH  19  21
ATOM     21  C   UNL     1       5.564   5.721  17.973  0.00  0.00    +0.000 C 
ATOM     22  C   UNL     1       6.853   5.058  18.430  0.00  0.00    +0.000 C 
ATOM     23  C   UNL     1       7.791   6.236  18.651  0.00  0.00    +0.000 C 
ATOM     24  C   UNL     1       7.393   7.276  17.607  0.00  0.00    +0.000 C 
ATOM     25  C   UNL     1       6.074   6.791  17.006  0.00  0.00    +0.000 C 
ENDBRANCH  19  21
ENDBRANCH  16  19
ENDBRANCH   8  16
TORSDOF 4
ENDMDL
MODEL 5
REMARK VINA RESULT:      -7.9      3.123      4.395
REMARK  Name = 
REMARK  4 active torsions:
REMARK  status: ('A' for Active; 'I' for Inactive)
REMARK    1  A    between atoms: C_2  and  C_3
REMARK    2  A    between atoms: C_12  and  S_13
REMARK    3  A    between atoms: S_13  and  N_16
REMARK    4  A    between atoms: N_16  and  C_17
REMARK                            x       y       z     vdW  Elec       q    Type
REMARK                         _______ _______ _______ _____ _____    ______ ____
ROOT
ATOM      1  O   UNL     1      -0.394  10.504  23.290  0.00  0.00    +0.000 OA
ATOM      2  C   UNL     1      -0.717  11.195  22.317  0.00  0.00    +0.000 C 
ATOM      3  N   UNL     1      -0.256  10.958  21.028  0.00  0.00    +0.000 N 
ATOM      4  C   UNL     1      -0.507  11.812  19.855  0.00  0.00    +0.000 C 
ATOM      5  C   UNL     1      -0.019  11.047  18.620  0.00  0.00    +0.000 C 
ATOM      6  C   UNL     1       0.736   9.916  19.239  0.00  0.00    +0.000 A 
ATOM      7  C   UNL     1       1.485   8.950  18.585  0.00  0.00    +0.000 A 
ATOM      8  C   UNL     1       2.067   7.936  19.354  0.00  0.00    +0.000 A 
ATOM      9  C   UNL     1       1.895   7.897  20.749  0.00  0.00    +0.000 A 
ATOM     10  C   UNL     1       1.129   8.879  21.390  0.00  0.00    +0.000 A 
ATOM     11  C   UNL     1       0.559   9.883  20.624  0.00  0.00    +0.000 A 
ENDROOT
BRANCH   2  12
ATOM     12  C   UNL     1      -1.722  12.375  22.455  0.00  0.00    +0.000 C 
ATOM     13  C   UNL     1      -2.908  12.140  23.434  0.00  0.00    +0.000 C 
ATOM     14  C   UNL     1      -2.789  13.615  23.849  0.00  0.00    +0.000 C 
ATOM     15  C   UNL     1      -1.325  13.564  23.377  0.00  0.00    +0.000 C 
ENDBRANCH   2  12
BRANCH   8  16
ATOM     16  S   UNL     1       3.089   6.729  18.546  0.00  0.00    +0.000 S 
ATOM     17  O   UNL     1       3.478   7.295  17.272  0.00  0.00    +0.000 OA
ATOM     18  O   UNL     1       4.064   6.223  19.485  0.00  0.00    +0.000 OA
BRANCH  16  19
ATOM     19  N   UNL     1       2.010   5.481  18.176  0.00  0.00    +0.000 NA
ATOM     20  H   UNL     1       1.970   5.370  17.161  0.00  0.00    +0.000 HD
BRANCH  19  21
ATOM     21  C   UNL     1       2.067   4.237  18.954  0.00  0.00    +0.000 C 
ATOM     22  C   UNL     1       1.221   4.271  20.217  0.00  0.00    +0.000 C 
ATOM     23  C   UNL     1       1.051   2.799  20.562  0.00  0.00    +0.000 C 
ATOM     24  C   UNL     1       1.008   2.068  19.223  0.00  0.00    +0.000 C 
ATOM     25  C   UNL     1       1.430   3.090  18.168  0.00  0.00    +0.000 C 
ENDBRANCH  19  21
ENDBRANCH  16  19
ENDBRANCH   8  16
TORSDOF 4
ENDMDL
MODEL 6
REMARK VINA RESULT:      -7.9      3.220      8.075
REMARK  Name = 
REMARK  4 active torsions:
REMARK  status: ('A' for Active; 'I' for Inactive)
REMARK    1  A    between atoms: C_2  and  C_3
REMARK    2  A    between atoms: C_12  and  S_13
REMARK    3  A    between atoms: S_13  and  N_16
REMARK    4  A    between atoms: N_16  and  C_17
REMARK                            x       y       z     vdW  Elec       q    Type
REMARK                         _______ _______ _______ _____ _____    ______ ____
ROOT
ATOM      1  O   UNL     1       3.285   5.241  17.291  0.00  0.00    +0.000 OA
ATOM      2  C   UNL     1       2.862   4.934  18.411  0.00  0.00    +0.000 C 
ATOM      3  N   UNL     1       2.326   5.857  19.301  0.00  0.00    +0.000 N 
ATOM      4  C   UNL     1       1.918   5.575  20.687  0.00  0.00    +0.000 C 
ATOM      5  C   UNL     1       1.171   6.810  21.203  0.00  0.00    +0.000 C 
ATOM      6  C   UNL     1       1.466   7.814  20.137  0.00  0.00    +0.000 A 
ATOM      7  C   UNL     1       1.122   9.156  20.131  0.00  0.00    +0.000 A 
ATOM      8  C   UNL     1       1.445   9.914  18.998  0.00  0.00    +0.000 A 
ATOM      9  C   UNL     1       2.096   9.328  17.899  0.00  0.00    +0.000 A 
ATOM     10  C   UNL     1       2.431   7.968  17.922  0.00  0.00    +0.000 A 
ATOM     11  C   UNL     1       2.113   7.225  19.048  0.00  0.00    +0.000 A 
ENDROOT
BRANCH   2  12
ATOM     12  C   UNL     1       2.850   3.457  18.900  0.00  0.00    +0.000 C 
ATOM     13  C   UNL     1       2.566   2.386  17.807  0.00  0.00    +0.000 C 
ATOM     14  C   UNL     1       3.585   1.476  18.509  0.00  0.00    +0.000 C 
ATOM     15  C   UNL     1       4.220   2.747  19.100  0.00  0.00    +0.000 C 
ENDBRANCH   2  12
BRANCH   8  16
ATOM     16  S   UNL     1       1.077  11.652  18.997  0.00  0.00    +0.000 S 
ATOM     17  O   UNL     1       0.575  11.974  20.316  0.00  0.00    +0.000 OA
ATOM     18  O   UNL     1       2.179  12.373  18.404  0.00  0.00    +0.000 OA
BRANCH  16  19
ATOM     19  N   UNL     1      -0.256  11.773  17.964  0.00  0.00    +0.000 NA
ATOM     20  H   UNL     1       0.070  11.721  16.997  0.00  0.00    +0.000 HD
BRANCH  19  21
ATOM     21  C   UNL     1      -1.467  11.002  18.273  0.00  0.00    +0.000 C 
ATOM     22  C   UNL     1      -2.738  11.836  18.259  0.00  0.00    +0.000 C 
ATOM     23  C   UNL     1      -3.837  10.794  18.115  0.00  0.00    +0.000 C 
ATOM     24  C   UNL     1      -3.236   9.683  17.258  0.00  0.00    +0.000 C 
ATOM     25  C   UNL     1      -1.739   9.978  17.169  0.00  0.00    +0.000 C 
ENDBRANCH  19  21
ENDBRANCH  16  19
ENDBRANCH   8  16
TORSDOF 4
ENDMDL
MODEL 7
REMARK VINA RESULT:      -7.8      3.100      7.955
REMARK  Name = 
REMARK  4 active torsions:
REMARK  status: ('A' for Active; 'I' for Inactive)
REMARK    1  A    between atoms: C_2  and  C_3
REMARK    2  A    between atoms: C_12  and  S_13
REMARK    3  A    between atoms: S_13  and  N_16
REMARK    4  A    between atoms: N_16  and  C_17
REMARK                            x       y       z     vdW  Elec       q    Type
REMARK                         _______ _______ _______ _____ _____    ______ ____
ROOT
ATOM      1  O   UNL     1       2.307   4.816  21.180  0.00  0.00    +0.000 OA
ATOM      2  C   UNL     1       2.796   4.949  20.052  0.00  0.00    +0.000 C 
ATOM      3  N   UNL     1       2.656   6.105  19.294  0.00  0.00    +0.000 N 
ATOM      4  C   UNL     1       3.110   6.281  17.904  0.00  0.00    +0.000 C 
ATOM      5  C   UNL     1       2.965   7.768  17.561  0.00  0.00    +0.000 C 
ATOM      6  C   UNL     1       2.165   8.272  18.717  0.00  0.00    +0.000 A 
ATOM      7  C   UNL     1       1.648   9.547  18.887  0.00  0.00    +0.000 A 
ATOM      8  C   UNL     1       0.974   9.831  20.080  0.00  0.00    +0.000 A 
ATOM      9  C   UNL     1       0.828   8.852  21.079  0.00  0.00    +0.000 A 
ATOM     10  C   UNL     1       1.362   7.571  20.890  0.00  0.00    +0.000 A 
ATOM     11  C   UNL     1       2.025   7.295  19.705  0.00  0.00    +0.000 A 
ENDROOT
BRANCH   2  12
ATOM     12  C   UNL     1       3.665   3.833  19.405  0.00  0.00    +0.000 C 
ATOM     13  C   UNL     1       3.816   2.527  20.237  0.00  0.00    +0.000 C 
ATOM     14  C   UNL     1       3.754   1.742  18.917  0.00  0.00    +0.000 C 
ATOM     15  C   UNL     1       3.007   2.943  18.310  0.00  0.00    +0.000 C 
ENDBRANCH   2  12
BRANCH   8  16
ATOM     16  S   UNL     1       0.242  11.436  20.289  0.00  0.00    +0.000 S 
ATOM     17  O   UNL     1       0.242  11.714  21.710  0.00  0.00    +0.000 OA
ATOM     18  O   UNL     1       0.819  12.353  19.333  0.00  0.00    +0.000 OA
BRANCH  16  19
ATOM     19  N   UNL     1      -1.379  11.189  19.877  0.00  0.00    +0.000 NA
ATOM     20  H   UNL     1      -1.970  11.615  20.593  0.00  0.00    +0.000 HD
BRANCH  19  21
ATOM     21  C   UNL     1      -1.800  11.405  18.487  0.00  0.00    +0.000 C 
ATOM     22  C   UNL     1      -1.649  10.173  17.608  0.00  0.00    +0.000 C 
ATOM     23  C   UNL     1      -2.560  10.474  16.428  0.00  0.00    +0.000 C 
ATOM     24  C   UNL     1      -3.719  11.285  17.003  0.00  0.00    +0.000 C 
ATOM     25  C   UNL     1      -3.307  11.665  18.424  0.00  0.00    +0.000 C 
ENDBRANCH  19  21
ENDBRANCH  16  19
ENDBRANCH   8  16
TORSDOF 4
ENDMDL
MODEL 8
REMARK VINA RESULT:      -7.8      2.931      8.058
REMARK  Name = 
REMARK  4 active torsions:
REMARK  status: ('A' for Active; 'I' for Inactive)
REMARK    1  A    between atoms: C_2  and  C_3
REMARK    2  A    between atoms: C_12  and  S_13
REMARK    3  A    between atoms: S_13  and  N_16
REMARK    4  A    between atoms: N_16  and  C_17
REMARK                            x       y       z     vdW  Elec       q    Type
REMARK                         _______ _______ _______ _____ _____    ______ ____
ROOT
ATOM      1  O   UNL     1       4.803   7.266  15.630  0.00  0.00    +0.000 OA
ATOM      2  C   UNL     1       4.877   6.298  16.396  0.00  0.00    +0.000 C 
ATOM      3  N   UNL     1       4.224   6.246  17.622  0.00  0.00    +0.000 N 
ATOM      4  C   UNL     1       4.368   5.179  18.626  0.00  0.00    +0.000 C 
ATOM      5  C   UNL     1       3.294   5.411  19.695  0.00  0.00    +0.000 C 
ATOM      6  C   UNL     1       2.801   6.777  19.343  0.00  0.00    +0.000 A 
ATOM      7  C   UNL     1       1.883   7.543  20.043  0.00  0.00    +0.000 A 
ATOM      8  C   UNL     1       1.511   8.780  19.504  0.00  0.00    +0.000 A 
ATOM      9  C   UNL     1       2.051   9.231  18.286  0.00  0.00    +0.000 A 
ATOM     10  C   UNL     1       2.974   8.438  17.591  0.00  0.00    +0.000 A 
ATOM     11  C   UNL     1       3.341   7.217  18.132  0.00  0.00    +0.000 A 
ENDROOT
BRANCH   2  12
ATOM     12  C   UNL     1       5.681   5.021  16.019  0.00  0.00    +0.000 C 
ATOM     13  C   UNL     1       4.998   4.073  14.991  0.00  0.00    +0.000 C 
ATOM     14  C   UNL     1       6.387   3.812  14.388  0.00  0.00    +0.000 C 
ATOM     15  C   UNL     1       6.827   5.165  14.975  0.00  0.00    +0.000 C 
ENDBRANCH   2  12
BRANCH   8  16
ATOM     16  S   UNL     1       0.390   9.811  20.419  0.00  0.00    +0.000 S 
ATOM     17  O   UNL     1      -0.674   8.952  20.894  0.00  0.00    +0.000 OA
ATOM     18  O   UNL     1       1.143  10.658  21.315  0.00  0.00    +0.000 OA
BRANCH  16  19
ATOM     19  N   UNL     1      -0.312  10.786  19.229  0.00  0.00    +0.000 NA
ATOM     20  H   UNL     1       0.393  11.001  18.521  0.00  0.00    +0.000 HD
BRANCH  19  21
ATOM     21  C   UNL     1      -1.645  10.438  18.721  0.00  0.00    +0.000 C 
ATOM     22  C   UNL     1      -2.535  11.646  18.475  0.00  0.00    +0.000 C 
ATOM     23  C   UNL     1      -3.604  11.106  17.538  0.00  0.00    +0.000 C 
ATOM     24  C   UNL     1      -2.902  10.058  16.678  0.00  0.00    +0.000 C 
ATOM     25  C   UNL     1      -1.536   9.826  17.323  0.00  0.00    +0.000 C 
ENDBRANCH  19  21
ENDBRANCH  16  19
ENDBRANCH   8  16
TORSDOF 4
ENDMDL
MODEL 9
REMARK VINA RESULT:      -7.7      0.944      1.267
REMARK  Name = 
REMARK  4 active torsions:
REMARK  status: ('A' for Active; 'I' for Inactive)
REMARK    1  A    between atoms: C_2  and  C_3
REMARK    2  A    between atoms: C_12  and  S_13
REMARK    3  A    between atoms: S_13  and  N_16
REMARK    4  A    between atoms: N_16  and  C_17
REMARK                            x       y       z     vdW  Elec       q    Type
REMARK                         _______ _______ _______ _____ _____    ______ ____
ROOT
ATOM      1  O   UNL     1       0.553   8.662  21.740  0.00  0.00    +0.000 OA
ATOM      2  C   UNL     1       0.797   9.205  20.656  0.00  0.00    +0.000 C 
ATOM      3  N   UNL     1       1.526   8.590  19.645  0.00  0.00    +0.000 N 
ATOM      4  C   UNL     1       1.951   9.223  18.386  0.00  0.00    +0.000 C 
ATOM      5  C   UNL     1       2.510   8.117  17.484  0.00  0.00    +0.000 C 
ATOM      6  C   UNL     1       2.612   6.970  18.435  0.00  0.00    +0.000 A 
ATOM      7  C   UNL     1       3.157   5.720  18.186  0.00  0.00    +0.000 A 
ATOM      8  C   UNL     1       3.098   4.761  19.203  0.00  0.00    +0.000 A 
ATOM      9  C   UNL     1       2.501   5.056  20.442  0.00  0.00    +0.000 A 
ATOM     10  C   UNL     1       1.951   6.323  20.672  0.00  0.00    +0.000 A 
ATOM     11  C   UNL     1       2.016   7.270  19.662  0.00  0.00    +0.000 A 
ENDROOT
BRANCH   2  12
ATOM     12  C   UNL     1       0.255  10.622  20.314  0.00  0.00    +0.000 C 
ATOM     13  C   UNL     1      -0.841  11.174  21.271  0.00  0.00    +0.000 C 
ATOM     14  C   UNL     1      -0.203  12.563  21.115  0.00  0.00    +0.000 C 
ATOM     15  C   UNL     1       1.109  11.850  20.744  0.00  0.00    +0.000 C 
ENDBRANCH   2  12
BRANCH   8  16
ATOM     16  S   UNL     1       3.853   3.176  18.931  0.00  0.00    +0.000 S 
ATOM     17  O   UNL     1       3.895   2.507  20.215  0.00  0.00    +0.000 OA
ATOM     18  O   UNL     1       3.259   2.557  17.769  0.00  0.00    +0.000 OA
BRANCH  16  19
ATOM     19  N   UNL     1       5.459   3.560  18.568  0.00  0.00    +0.000 NA
ATOM     20  H   UNL     1       6.028   2.715  18.654  0.00  0.00    +0.000 HD
BRANCH  19  21
ATOM     21  C   UNL     1       5.742   4.405  17.401  0.00  0.00    +0.000 C 
ATOM     22  C   UNL     1       7.220   4.703  17.211  0.00  0.00    +0.000 C 
ATOM     23  C   UNL     1       7.303   5.139  15.756  0.00  0.00    +0.000 C 
ATOM     24  C   UNL     1       6.237   4.326  15.025  0.00  0.00    +0.000 C 
ATOM     25  C   UNL     1       5.392   3.662  16.111  0.00  0.00    +0.000 C 
ENDBRANCH  19  21
ENDBRANCH  16  19
ENDBRANCH   8  16
TORSDOF 4
ENDMDL
