MODEL 1
REMARK VINA RESULT:      -7.1      0.000      0.000
REMARK  Name = 
REMARK  5 active torsions:
REMARK  status: ('A' for Active; 'I' for Inactive)
REMARK    1  A    between atoms: C_1  and  O_2
REMARK    2  A    between atoms: O_2  and  C_3
REMARK    3  A    between atoms: C_6  and  N_7
REMARK    4  A    between atoms: C_10  and  S_11
REMARK    5  A    between atoms: S_11  and  C_14
REMARK                            x       y       z     vdW  Elec       q    Type
REMARK                         _______ _______ _______ _____ _____    ______ ____
ROOT
ATOM      1  C   UNL     1       2.652   6.983  18.995  0.00  0.00    +0.000 A 
ATOM      2  C   UNL     1       1.750   7.005  20.050  0.00  0.00    +0.000 A 
ATOM      3  C   UNL     1       1.515   5.821  20.748  0.00  0.00    +0.000 A 
ATOM      4  C   UNL     1       2.191   4.662  20.353  0.00  0.00    +0.000 A 
ATOM      5  C   UNL     1       3.017   4.712  19.253  0.00  0.00    +0.000 A 
ATOM      6  N   UNL     1       3.262   5.863  18.565  0.00  0.00    +0.000 NA
ENDROOT
BRANCH   4   7
ATOM      7  N   UNL     1       1.991   3.463  21.113  0.00  0.00    +0.000 N 
ATOM      8  O   UNL     1       2.598   3.360  22.185  0.00  0.00    +0.000 OA
ATOM      9  O   UNL     1       1.170   2.654  20.664  0.00  0.00    +0.000 OA
ENDBRANCH   4   7
BRANCH   5  10
ATOM     10  S   UNL     1       4.019   3.353  18.690  0.00  0.00    +0.000 S 
ATOM     11  O   UNL     1       4.839   2.898  19.800  0.00  0.00    +0.000 OA
ATOM     12  O   UNL     1       3.109   2.418  18.052  0.00  0.00    +0.000 OA
BRANCH  10  13
ATOM     13  C   UNL     1       5.166   3.946  17.468  0.00  0.00    +0.000 A 
ATOM     14  C   UNL     1       6.417   4.431  17.861  0.00  0.00    +0.000 A 
ATOM     15  C   UNL     1       7.336   4.820  16.885  0.00  0.00    +0.000 A 
ATOM     16  C   UNL     1       7.007   4.722  15.531  0.00  0.00    +0.000 A 
ATOM     17  C   UNL     1       5.752   4.247  15.147  0.00  0.00    +0.000 A 
ATOM     18  C   UNL     1       4.826   3.859  16.114  0.00  0.00    +0.000 A 
ENDBRANCH  10  13
ENDBRANCH   5  10
BRANCH   1  20
ATOM     19  C   UNL     1       1.745   8.895  18.015  0.00  0.00    +0.000 C 
ATOM     20  O   UNL     1       2.929   8.182  18.378  0.00  0.00    +0.000 OA
ENDBRANCH   1  20
TORSDOF 4
ENDMDL
MODEL 2
REMARK VINA RESULT:      -7.0      0.097      1.089
REMARK  Name = 
REMARK  5 active torsions:
REMARK  status: ('A' for Active; 'I' for Inactive)
REMARK    1  A    between atoms: C_1  and  O_2
REMARK    2  A    between atoms: O_2  and  C_3
REMARK    3  A    between atoms: C_6  and  N_7
REMARK    4  A    between atoms: C_10  and  S_11
REMARK    5  A    between atoms: S_11  and  C_14
REMARK                            x       y       z     vdW  Elec       q    Type
REMARK                         _______ _______ _______ _____ _____    ______ ____
ROOT
ATOM      1  C   UNL     1       2.655   6.943  18.997  0.00  0.00    +0.000 A 
ATOM      2  C   UNL     1       1.754   6.969  20.051  0.00  0.00    +0.000 A 
ATOM      3  C   UNL     1       1.518   5.787  20.753  0.00  0.00    +0.000 A 
ATOM      4  C   UNL     1       2.192   4.626  20.361  0.00  0.00    +0.000 A 
ATOM      5  C   UNL     1       3.019   4.673  19.261  0.00  0.00    +0.000 A 
ATOM      6  N   UNL     1       3.265   5.821  18.570  0.00  0.00    +0.000 NA
ENDROOT
BRANCH   4   7
ATOM      7  N   UNL     1       1.991   3.429  21.125  0.00  0.00    +0.000 N 
ATOM      8  O   UNL     1       2.593   3.332  22.200  0.00  0.00    +0.000 OA
ATOM      9  O   UNL     1       1.174   2.617  20.675  0.00  0.00    +0.000 OA
ENDBRANCH   4   7
BRANCH   5  10
ATOM     10  S   UNL     1       4.020   3.311  18.702  0.00  0.00    +0.000 S 
ATOM     11  O   UNL     1       4.832   2.853  19.817  0.00  0.00    +0.000 OA
ATOM     12  O   UNL     1       3.111   2.379  18.059  0.00  0.00    +0.000 OA
BRANCH  10  13
ATOM     13  C   UNL     1       5.175   3.902  17.487  0.00  0.00    +0.000 A 
ATOM     14  C   UNL     1       4.829   3.891  16.132  0.00  0.00    +0.000 A 
ATOM     15  C   UNL     1       5.715   4.430  15.197  0.00  0.00    +0.000 A 
ATOM     16  C   UNL     1       6.931   4.976  15.614  0.00  0.00    +0.000 A 
ATOM     17  C   UNL     1       7.273   4.974  16.967  0.00  0.00    +0.000 A 
ATOM     18  C   UNL     1       6.397   4.436  17.908  0.00  0.00    +0.000 A 
ENDBRANCH  10  13
ENDBRANCH   5  10
BRANCH   1  20
ATOM     19  C   UNL     1       1.758   8.912  18.129  0.00  0.00    +0.000 C 
ATOM     20  O   UNL     1       2.934   8.140  18.376  0.00  0.00    +0.000 OA
ENDBRANCH   1  20
TORSDOF 4
ENDMDL
MODEL 3
REMARK VINA RESULT:      -6.8      3.576      5.435
REMARK  Name = 
REMARK  5 active torsions:
REMARK  status: ('A' for Active; 'I' for Inactive)
REMARK    1  A    between atoms: C_1  and  O_2
REMARK    2  A    between atoms: O_2  and  C_3
REMARK    3  A    between atoms: C_6  and  N_7
REMARK    4  A    between atoms: C_10  and  S_11
REMARK    5  A    between atoms: S_11  and  C_14
REMARK                            x       y       z     vdW  Elec       q    Type
REMARK                         _______ _______ _______ _____ _____    ______ ____
ROOT
ATOM      1  C   UNL     1       7.772   8.784  17.741  0.00  0.00    +0.000 A 
ATOM      2  C   UNL     1       8.520   8.179  18.741  0.00  0.00    +0.000 A 
ATOM      3  C   UNL     1       8.387   6.803  18.929  0.00  0.00    +0.000 A 
ATOM      4  C   UNL     1       7.503   6.094  18.109  0.00  0.00    +0.000 A 
ATOM      5  C   UNL     1       6.750   6.784  17.186  0.00  0.00    +0.000 A 
ATOM      6  N   UNL     1       6.873   8.126  16.985  0.00  0.00    +0.000 NA
ENDROOT
BRANCH   4   7
ATOM      7  N   UNL     1       7.417   4.672  18.268  0.00  0.00    +0.000 N 
ATOM      8  O   UNL     1       8.307   3.986  17.751  0.00  0.00    +0.000 OA
ATOM      9  O   UNL     1       6.492   4.249  18.970  0.00  0.00    +0.000 OA
ENDBRANCH   4   7
BRANCH   5  10
ATOM     10  S   UNL     1       5.661   6.014  16.006  0.00  0.00    +0.000 S 
ATOM     11  O   UNL     1       5.104   7.050  15.154  0.00  0.00    +0.000 OA
ATOM     12  O   UNL     1       6.420   4.932  15.403  0.00  0.00    +0.000 OA
BRANCH  10  13
ATOM     13  C   UNL     1       4.273   5.315  16.870  0.00  0.00    +0.000 A 
ATOM     14  C   UNL     1       3.470   6.128  17.674  0.00  0.00    +0.000 A 
ATOM     15  C   UNL     1       2.338   5.582  18.283  0.00  0.00    +0.000 A 
ATOM     16  C   UNL     1       2.014   4.238  18.086  0.00  0.00    +0.000 A 
ATOM     17  C   UNL     1       2.827   3.430  17.290  0.00  0.00    +0.000 A 
ATOM     18  C   UNL     1       3.960   3.965  16.680  0.00  0.00    +0.000 A 
ENDBRANCH  10  13
ENDBRANCH   5  10
BRANCH   1  20
ATOM     19  C   UNL     1       9.052  10.647  18.315  0.00  0.00    +0.000 C 
ATOM     20  O   UNL     1       7.985  10.126  17.520  0.00  0.00    +0.000 OA
ENDBRANCH   1  20
TORSDOF 4
ENDMDL
MODEL 4
REMARK VINA RESULT:      -6.8      1.306      1.984
REMARK  Name = 
REMARK  5 active torsions:
REMARK  status: ('A' for Active; 'I' for Inactive)
REMARK    1  A    between atoms: C_1  and  O_2
REMARK    2  A    between atoms: O_2  and  C_3
REMARK    3  A    between atoms: C_6  and  N_7
REMARK    4  A    between atoms: C_10  and  S_11
REMARK    5  A    between atoms: S_11  and  C_14
REMARK                            x       y       z     vdW  Elec       q    Type
REMARK                         _______ _______ _______ _____ _____    ______ ____
ROOT
ATOM      1  C   UNL     1       2.278   6.770  19.686  0.00  0.00    +0.000 A 
ATOM      2  C   UNL     1       1.303   6.254  20.527  0.00  0.00    +0.000 A 
ATOM      3  C   UNL     1       1.355   4.898  20.852  0.00  0.00    +0.000 A 
ATOM      4  C   UNL     1       2.381   4.116  20.312  0.00  0.00    +0.000 A 
ATOM      5  C   UNL     1       3.268   4.693  19.432  0.00  0.00    +0.000 A 
ATOM      6  N   UNL     1       3.235   6.017  19.110  0.00  0.00    +0.000 NA
ENDROOT
BRANCH   4   7
ATOM      7  N   UNL     1       2.463   2.738  20.698  0.00  0.00    +0.000 N 
ATOM      8  O   UNL     1       2.162   1.890  19.850  0.00  0.00    +0.000 OA
ATOM      9  O   UNL     1       2.897   2.506  21.833  0.00  0.00    +0.000 OA
ENDBRANCH   4   7
BRANCH   5  10
ATOM     10  S   UNL     1       4.681   3.858  18.743  0.00  0.00    +0.000 S 
ATOM     11  O   UNL     1       5.321   3.094  19.800  0.00  0.00    +0.000 OA
ATOM     12  O   UNL     1       4.204   3.167  17.558  0.00  0.00    +0.000 OA
BRANCH  10  13
ATOM     13  C   UNL     1       5.882   5.069  18.242  0.00  0.00    +0.000 A 
ATOM     14  C   UNL     1       5.751   5.714  17.008  0.00  0.00    +0.000 A 
ATOM     15  C   UNL     1       6.658   6.719  16.663  0.00  0.00    +0.000 A 
ATOM     16  C   UNL     1       7.681   7.075  17.545  0.00  0.00    +0.000 A 
ATOM     17  C   UNL     1       7.811   6.419  18.770  0.00  0.00    +0.000 A 
ATOM     18  C   UNL     1       6.914   5.413  19.122  0.00  0.00    +0.000 A 
ENDBRANCH  10  13
ENDBRANCH   5  10
BRANCH   1  20
ATOM     19  C   UNL     1       2.286   8.437  18.056  0.00  0.00    +0.000 C 
ATOM     20  O   UNL     1       2.253   8.125  19.450  0.00  0.00    +0.000 OA
ENDBRANCH   1  20
TORSDOF 4
ENDMDL
MODEL 5
REMARK VINA RESULT:      -6.8      2.544      5.882
REMARK  Name = 
REMARK  5 active torsions:
REMARK  status: ('A' for Active; 'I' for Inactive)
REMARK    1  A    between atoms: C_1  and  O_2
REMARK    2  A    between atoms: O_2  and  C_3
REMARK    3  A    between atoms: C_6  and  N_7
REMARK    4  A    between atoms: C_10  and  S_11
REMARK    5  A    between atoms: S_11  and  C_14
REMARK                            x       y       z     vdW  Elec       q    Type
REMARK                         _______ _______ _______ _____ _____    ______ ____
ROOT
ATOM      1  C   UNL     1       5.799   4.125  14.296  0.00  0.00    +0.000 A 
ATOM      2  C   UNL     1       7.051   4.723  14.314  0.00  0.00    +0.000 A 
ATOM      3  C   UNL     1       7.559   5.164  15.537  0.00  0.00    +0.000 A 
ATOM      4  C   UNL     1       6.785   4.991  16.688  0.00  0.00    +0.000 A 
ATOM      5  C   UNL     1       5.525   4.450  16.571  0.00  0.00    +0.000 A 
ATOM      6  N   UNL     1       5.017   4.008  15.386  0.00  0.00    +0.000 NA
ENDROOT
BRANCH   4   7
ATOM      7  N   UNL     1       7.339   5.391  17.949  0.00  0.00    +0.000 N 
ATOM      8  O   UNL     1       8.065   4.580  18.534  0.00  0.00    +0.000 OA
ATOM      9  O   UNL     1       7.099   6.547  18.317  0.00  0.00    +0.000 OA
ENDBRANCH   4   7
BRANCH   5  10
ATOM     10  S   UNL     1       4.464   4.075  17.950  0.00  0.00    +0.000 S 
ATOM     11  O   UNL     1       3.417   3.178  17.492  0.00  0.00    +0.000 OA
ATOM     12  O   UNL     1       5.339   3.650  19.029  0.00  0.00    +0.000 OA
BRANCH  10  13
ATOM     13  C   UNL     1       3.626   5.559  18.456  0.00  0.00    +0.000 A 
ATOM     14  C   UNL     1       3.614   6.676  17.615  0.00  0.00    +0.000 A 
ATOM     15  C   UNL     1       2.887   7.807  17.991  0.00  0.00    +0.000 A 
ATOM     16  C   UNL     1       2.178   7.818  19.195  0.00  0.00    +0.000 A 
ATOM     17  C   UNL     1       2.204   6.703  20.034  0.00  0.00    +0.000 A 
ATOM     18  C   UNL     1       2.929   5.570  19.669  0.00  0.00    +0.000 A 
ENDBRANCH  10  13
ENDBRANCH   5  10
BRANCH   1  20
ATOM     19  C   UNL     1       6.424   3.417  12.164  0.00  0.00    +0.000 C 
ATOM     20  O   UNL     1       5.358   3.624  13.092  0.00  0.00    +0.000 OA
ENDBRANCH   1  20
TORSDOF 4
ENDMDL
MODEL 6
REMARK VINA RESULT:      -6.8      2.495      5.799
REMARK  Name = 
REMARK  5 active torsions:
REMARK  status: ('A' for Active; 'I' for Inactive)
REMARK    1  A    between atoms: C_1  and  O_2
REMARK    2  A    between atoms: O_2  and  C_3
REMARK    3  A    between atoms: C_6  and  N_7
REMARK    4  A    between atoms: C_10  and  S_11
REMARK    5  A    between atoms: S_11  and  C_14
REMARK                            x       y       z     vdW  Elec       q    Type
REMARK                         _______ _______ _______ _____ _____    ______ ____
ROOT
ATOM      1  C   UNL     1       5.713   4.177  14.368  0.00  0.00    +0.000 A 
ATOM      2  C   UNL     1       6.972   4.759  14.377  0.00  0.00    +0.000 A 
ATOM      3  C   UNL     1       7.517   5.145  15.602  0.00  0.00    +0.000 A 
ATOM      4  C   UNL     1       6.770   4.937  16.766  0.00  0.00    +0.000 A 
ATOM      5  C   UNL     1       5.500   4.415  16.660  0.00  0.00    +0.000 A 
ATOM      6  N   UNL     1       4.957   4.026  15.472  0.00  0.00    +0.000 NA
ENDROOT
BRANCH   4   7
ATOM      7  N   UNL     1       7.360   5.280  18.026  0.00  0.00    +0.000 N 
ATOM      8  O   UNL     1       8.165   4.480  18.515  0.00  0.00    +0.000 OA
ATOM      9  O   UNL     1       7.064   6.387  18.492  0.00  0.00    +0.000 OA
ENDBRANCH   4   7
BRANCH   5  10
ATOM     10  S   UNL     1       4.469   3.999  18.050  0.00  0.00    +0.000 S 
ATOM     11  O   UNL     1       3.496   3.010  17.618  0.00  0.00    +0.000 OA
ATOM     12  O   UNL     1       5.373   3.674  19.139  0.00  0.00    +0.000 OA
BRANCH  10  13
ATOM     13  C   UNL     1       3.518   5.427  18.514  0.00  0.00    +0.000 A 
ATOM     14  C   UNL     1       2.825   5.441  19.728  0.00  0.00    +0.000 A 
ATOM     15  C   UNL     1       2.147   6.598  20.114  0.00  0.00    +0.000 A 
ATOM     16  C   UNL     1       2.166   7.730  19.296  0.00  0.00    +0.000 A 
ATOM     17  C   UNL     1       2.852   7.706  18.081  0.00  0.00    +0.000 A 
ATOM     18  C   UNL     1       3.530   6.554  17.685  0.00  0.00    +0.000 A 
ENDBRANCH  10  13
ENDBRANCH   5  10
BRANCH   1  20
ATOM     19  C   UNL     1       6.285   3.390  12.248  0.00  0.00    +0.000 C 
ATOM     20  O   UNL     1       5.236   3.728  13.157  0.00  0.00    +0.000 OA
ENDBRANCH   1  20
TORSDOF 4
ENDMDL
MODEL 7
REMARK VINA RESULT:      -6.8      2.513      5.078
REMARK  Name = 
REMARK  5 active torsions:
REMARK  status: ('A' for Active; 'I' for Inactive)
REMARK    1  A    between atoms: C_1  and  O_2
REMARK    2  A    between atoms: O_2  and  C_3
REMARK    3  A    between atoms: C_6  and  N_7
REMARK    4  A    between atoms: C_10  and  S_11
REMARK    5  A    between atoms: S_11  and  C_14
REMARK                            x       y       z     vdW  Elec       q    Type
REMARK                         _______ _______ _______ _____ _____    ______ ____
ROOT
ATOM      1  C   UNL     1       5.784   4.755  16.183  0.00  0.00    +0.000 A 
ATOM      2  C   UNL     1       6.027   6.032  16.667  0.00  0.00    +0.000 A 
ATOM      3  C   UNL     1       5.049   6.642  17.452  0.00  0.00    +0.000 A 
ATOM      4  C   UNL     1       3.865   5.946  17.713  0.00  0.00    +0.000 A 
ATOM      5  C   UNL     1       3.677   4.709  17.138  0.00  0.00    +0.000 A 
ATOM      6  N   UNL     1       4.625   4.097  16.375  0.00  0.00    +0.000 NA
ENDROOT
BRANCH   4   7
ATOM      7  N   UNL     1       2.890   6.554  18.571  0.00  0.00    +0.000 N 
ATOM      8  O   UNL     1       2.960   6.303  19.780  0.00  0.00    +0.000 OA
ATOM      9  O   UNL     1       2.096   7.337  18.038  0.00  0.00    +0.000 OA
ENDBRANCH   4   7
BRANCH   5  10
ATOM     10  S   UNL     1       2.274   3.660  17.455  0.00  0.00    +0.000 S 
ATOM     11  O   UNL     1       1.065   4.446  17.276  0.00  0.00    +0.000 OA
ATOM     12  O   UNL     1       2.470   2.469  16.648  0.00  0.00    +0.000 OA
BRANCH  10  13
ATOM     13  C   UNL     1       2.280   3.187  19.168  0.00  0.00    +0.000 A 
ATOM     14  C   UNL     1       3.473   2.785  19.777  0.00  0.00    +0.000 A 
ATOM     15  C   UNL     1       3.477   2.491  21.142  0.00  0.00    +0.000 A 
ATOM     16  C   UNL     1       2.302   2.602  21.889  0.00  0.00    +0.000 A 
ATOM     17  C   UNL     1       1.113   2.994  21.272  0.00  0.00    +0.000 A 
ATOM     18  C   UNL     1       1.098   3.286  19.909  0.00  0.00    +0.000 A 
ENDBRANCH  10  13
ENDBRANCH   5  10
BRANCH   1  20
ATOM     19  C   UNL     1       6.921   4.644  14.150  0.00  0.00    +0.000 C 
ATOM     20  O   UNL     1       6.799   4.143  15.483  0.00  0.00    +0.000 OA
ENDBRANCH   1  20
TORSDOF 4
ENDMDL
MODEL 8
REMARK VINA RESULT:      -6.8      2.519      5.173
REMARK  Name = 
REMARK  5 active torsions:
REMARK  status: ('A' for Active; 'I' for Inactive)
REMARK    1  A    between atoms: C_1  and  O_2
REMARK    2  A    between atoms: O_2  and  C_3
REMARK    3  A    between atoms: C_6  and  N_7
REMARK    4  A    between atoms: C_10  and  S_11
REMARK    5  A    between atoms: S_11  and  C_14
REMARK                            x       y       z     vdW  Elec       q    Type
REMARK                         _______ _______ _______ _____ _____    ______ ____
ROOT
ATOM      1  C   UNL     1       5.726   4.702  16.070  0.00  0.00    +0.000 A 
ATOM      2  C   UNL     1       5.992   5.986  16.522  0.00  0.00    +0.000 A 
ATOM      3  C   UNL     1       5.045   6.616  17.330  0.00  0.00    +0.000 A 
ATOM      4  C   UNL     1       3.867   5.931  17.644  0.00  0.00    +0.000 A 
ATOM      5  C   UNL     1       3.653   4.685  17.097  0.00  0.00    +0.000 A 
ATOM      6  N   UNL     1       4.571   4.054  16.313  0.00  0.00    +0.000 NA
ENDROOT
BRANCH   4   7
ATOM      7  N   UNL     1       2.925   6.559  18.523  0.00  0.00    +0.000 N 
ATOM      8  O   UNL     1       3.051   6.350  19.735  0.00  0.00    +0.000 OA
ATOM      9  O   UNL     1       2.101   7.319  18.000  0.00  0.00    +0.000 OA
ENDBRANCH   4   7
BRANCH   5  10
ATOM     10  S   UNL     1       2.256   3.650  17.481  0.00  0.00    +0.000 S 
ATOM     11  O   UNL     1       1.043   4.418  17.258  0.00  0.00    +0.000 OA
ATOM     12  O   UNL     1       2.456   2.413  16.746  0.00  0.00    +0.000 OA
BRANCH  10  13
ATOM     13  C   UNL     1       2.269   3.281  19.220  0.00  0.00    +0.000 A 
ATOM     14  C   UNL     1       1.096   3.410  19.970  0.00  0.00    +0.000 A 
ATOM     15  C   UNL     1       1.103   3.042  21.317  0.00  0.00    +0.000 A 
ATOM     16  C   UNL     1       2.271   2.548  21.904  0.00  0.00    +0.000 A 
ATOM     17  C   UNL     1       3.440   2.433  21.151  0.00  0.00    +0.000 A 
ATOM     18  C   UNL     1       3.444   2.800  19.807  0.00  0.00    +0.000 A 
ENDBRANCH  10  13
ENDBRANCH   5  10
BRANCH   1  20
ATOM     19  C   UNL     1       7.028   4.764  14.136  0.00  0.00    +0.000 C 
ATOM     20  O   UNL     1       6.713   4.072  15.346  0.00  0.00    +0.000 OA
ENDBRANCH   1  20
TORSDOF 4
ENDMDL
MODEL 9
REMARK VINA RESULT:      -6.8      3.563      5.476
REMARK  Name = 
REMARK  5 active torsions:
REMARK  status: ('A' for Active; 'I' for Inactive)
REMARK    1  A    between atoms: C_1  and  O_2
REMARK    2  A    between atoms: O_2  and  C_3
REMARK    3  A    between atoms: C_6  and  N_7
REMARK    4  A    between atoms: C_10  and  S_11
REMARK    5  A    between atoms: S_11  and  C_14
REMARK                            x       y       z     vdW  Elec       q    Type
REMARK                         _______ _______ _______ _____ _____    ______ ____
ROOT
ATOM      1  C   UNL     1       7.783   8.789  17.729  0.00  0.00    +0.000 A 
ATOM      2  C   UNL     1       8.527   8.185  18.732  0.00  0.00    +0.000 A 
ATOM      3  C   UNL     1       8.386   6.810  18.927  0.00  0.00    +0.000 A 
ATOM      4  C   UNL     1       7.498   6.103  18.111  0.00  0.00    +0.000 A 
ATOM      5  C   UNL     1       6.748   6.792  17.184  0.00  0.00    +0.000 A 
ATOM      6  N   UNL     1       6.879   8.133  16.977  0.00  0.00    +0.000 NA
ENDROOT
BRANCH   4   7
ATOM      7  N   UNL     1       7.403   4.682  18.277  0.00  0.00    +0.000 N 
ATOM      8  O   UNL     1       8.277   3.987  17.746  0.00  0.00    +0.000 OA
ATOM      9  O   UNL     1       6.488   4.269  18.998  0.00  0.00    +0.000 OA
ENDBRANCH   4   7
BRANCH   5  10
ATOM     10  S   UNL     1       5.655   6.023  16.009  0.00  0.00    +0.000 S 
ATOM     11  O   UNL     1       5.111   7.057  15.145  0.00  0.00    +0.000 OA
ATOM     12  O   UNL     1       6.404   4.928  15.418  0.00  0.00    +0.000 OA
BRANCH  10  13
ATOM     13  C   UNL     1       4.257   5.347  16.874  0.00  0.00    +0.000 A 
ATOM     14  C   UNL     1       3.933   3.995  16.729  0.00  0.00    +0.000 A 
ATOM     15  C   UNL     1       2.880   3.461  17.475  0.00  0.00    +0.000 A 
ATOM     16  C   UNL     1       2.163   4.271  18.359  0.00  0.00    +0.000 A 
ATOM     17  C   UNL     1       2.486   5.622  18.490  0.00  0.00    +0.000 A 
ATOM     18  C   UNL     1       3.533   6.166  17.748  0.00  0.00    +0.000 A 
ENDBRANCH  10  13
ENDBRANCH   5  10
BRANCH   1  20
ATOM     19  C   UNL     1       9.023  10.665  18.347  0.00  0.00    +0.000 C 
ATOM     20  O   UNL     1       8.004  10.129  17.502  0.00  0.00    +0.000 OA
ENDBRANCH   1  20
TORSDOF 4
ENDMDL
