MODEL 1
REMARK VINA RESULT:      -8.1      0.000      0.000
REMARK  Name = 
REMARK  5 active torsions:
REMARK  status: ('A' for Active; 'I' for Inactive)
REMARK    1  A    between atoms: C_2  and  C_10
REMARK    2  A    between atoms: N_3  and  C_4
REMARK    3  A    between atoms: C_4  and  C_5
REMARK    4  A    between atoms: C_13  and  S_14
REMARK    5  A    between atoms: S_14  and  N_17
REMARK                            x       y       z     vdW  Elec       q    Type
REMARK                         _______ _______ _______ _____ _____    ______ ____
ROOT
ATOM      1  C   UNL     1       2.144   7.444  19.314  0.00  0.00    +0.000 A 
ATOM      2  C   UNL     1       2.136   8.300  18.204  0.00  0.00    +0.000 A 
ATOM      3  C   UNL     1       1.586   9.576  18.306  0.00  0.00    +0.000 A 
ATOM      4  C   UNL     1       1.045   9.997  19.522  0.00  0.00    +0.000 A 
ATOM      5  C   UNL     1       1.068   9.163  20.646  0.00  0.00    +0.000 A 
ATOM      6  C   UNL     1       1.613   7.880  20.538  0.00  0.00    +0.000 A 
ENDROOT
BRANCH   1   8
ATOM      7  O   UNL     1       3.127   5.483  20.154  0.00  0.00    +0.000 OA
ATOM      8  C   UNL     1       2.790   6.117  19.162  0.00  0.00    +0.000 C 
ATOM      9  N   UNL     1       2.986   5.675  17.871  0.00  0.00    +0.000 N 
ATOM     10  H   UNL     1       2.903   6.331  17.107  0.00  0.00    +0.000 HD
BRANCH   9  11
ATOM     11  C   UNL     1       3.624   4.401  17.605  0.00  0.00    +0.000 C 
BRANCH  11  12
ATOM     12  C   UNL     1       2.650   3.268  17.232  0.00  0.00    +0.000 C 
ATOM     13  C   UNL     1       2.952   1.948  17.934  0.00  0.00    +0.000 C 
ATOM     14  C   UNL     1       2.124   2.043  19.189  0.00  0.00    +0.000 C 
ATOM     15  C   UNL     1       0.893   2.769  18.696  0.00  0.00    +0.000 C 
ATOM     16  O   UNL     1       1.327   3.659  17.660  0.00  0.00    +0.000 OA
ENDBRANCH  11  12
ENDBRANCH   9  11
ENDBRANCH   1   8
BRANCH   4  17
ATOM     17  S   UNL     1       0.440  11.666  19.660  0.00  0.00    +0.000 S 
ATOM     18  O   UNL     1       0.581  12.051  21.050  0.00  0.00    +0.000 OA
ATOM     19  O   UNL     1       1.056  12.435  18.605  0.00  0.00    +0.000 OA
BRANCH  17  20
ATOM     20  N   UNL     1      -1.175  11.535  19.322  0.00  0.00    +0.000 NA
ATOM     21  C   UNL     1      -1.627  11.376  17.930  0.00  0.00    +0.000 C 
ATOM     22  C   UNL     1      -3.113  11.509  18.040  0.00  0.00    +0.000 A 
ATOM     23  C   UNL     1      -4.082  11.137  17.125  0.00  0.00    +0.000 A 
ATOM     24  C   UNL     1      -5.414  11.395  17.444  0.00  0.00    +0.000 A 
ATOM     25  C   UNL     1      -5.750  12.038  18.647  0.00  0.00    +0.000 A 
ATOM     26  C   UNL     1      -4.763  12.393  19.573  0.00  0.00    +0.000 A 
ATOM     27  C   UNL     1      -3.446  12.095  19.267  0.00  0.00    +0.000 A 
ATOM     28  C   UNL     1      -2.202  12.277  20.093  0.00  0.00    +0.000 C 
ENDBRANCH  17  20
ENDBRANCH   4  17
TORSDOF 5
ENDMDL
MODEL 2
REMARK VINA RESULT:      -8.1      3.799      9.607
REMARK  Name = 
REMARK  5 active torsions:
REMARK  status: ('A' for Active; 'I' for Inactive)
REMARK    1  A    between atoms: C_2  and  C_10
REMARK    2  A    between atoms: N_3  and  C_4
REMARK    3  A    between atoms: C_4  and  C_5
REMARK    4  A    between atoms: C_13  and  S_14
REMARK    5  A    between atoms: S_14  and  N_17
REMARK                            x       y       z     vdW  Elec       q    Type
REMARK                         _______ _______ _______ _____ _____    ______ ____
ROOT
ATOM      1  C   UNL     1       2.655   7.781  18.445  0.00  0.00    +0.000 A 
ATOM      2  C   UNL     1       2.685   6.804  19.450  0.00  0.00    +0.000 A 
ATOM      3  C   UNL     1       3.638   5.789  19.413  0.00  0.00    +0.000 A 
ATOM      4  C   UNL     1       4.564   5.752  18.370  0.00  0.00    +0.000 A 
ATOM      5  C   UNL     1       4.562   6.733  17.372  0.00  0.00    +0.000 A 
ATOM      6  C   UNL     1       3.599   7.747  17.408  0.00  0.00    +0.000 A 
ENDROOT
BRANCH   1   8
ATOM      7  O   UNL     1       1.217   9.412  17.558  0.00  0.00    +0.000 OA
ATOM      8  C   UNL     1       1.652   8.868  18.564  0.00  0.00    +0.000 C 
ATOM      9  N   UNL     1       1.272   9.214  19.844  0.00  0.00    +0.000 N 
ATOM     10  H   UNL     1       1.827   8.898  20.627  0.00  0.00    +0.000 HD
BRANCH   9  11
ATOM     11  C   UNL     1       0.312  10.274  20.078  0.00  0.00    +0.000 C 
BRANCH  11  12
ATOM     12  C   UNL     1      -0.856   9.882  21.002  0.00  0.00    +0.000 C 
ATOM     13  C   UNL     1      -0.502   8.780  21.996  0.00  0.00    +0.000 C 
ATOM     14  C   UNL     1      -0.014   9.556  23.192  0.00  0.00    +0.000 C 
ATOM     15  C   UNL     1      -0.920  10.766  23.168  0.00  0.00    +0.000 C 
ATOM     16  O   UNL     1      -1.209  11.038  21.792  0.00  0.00    +0.000 OA
ENDBRANCH  11  12
ENDBRANCH   9  11
ENDBRANCH   1   8
BRANCH   4  17
ATOM     17  S   UNL     1       5.837   4.507  18.395  0.00  0.00    +0.000 S 
ATOM     18  O   UNL     1       6.981   5.088  19.070  0.00  0.00    +0.000 OA
ATOM     19  O   UNL     1       5.233   3.284  18.867  0.00  0.00    +0.000 OA
BRANCH  17  20
ATOM     20  N   UNL     1       6.229   4.302  16.800  0.00  0.00    +0.000 NA
ATOM     21  C   UNL     1       7.032   5.320  16.101  0.00  0.00    +0.000 C 
ATOM     22  C   UNL     1       6.978   4.872  14.675  0.00  0.00    +0.000 A 
ATOM     23  C   UNL     1       7.795   5.246  13.623  0.00  0.00    +0.000 A 
ATOM     24  C   UNL     1       7.524   4.710  12.365  0.00  0.00    +0.000 A 
ATOM     25  C   UNL     1       6.436   3.842  12.176  0.00  0.00    +0.000 A 
ATOM     26  C   UNL     1       5.627   3.457  13.251  0.00  0.00    +0.000 A 
ATOM     27  C   UNL     1       5.930   3.960  14.505  0.00  0.00    +0.000 A 
ATOM     28  C   UNL     1       5.300   3.661  15.838  0.00  0.00    +0.000 C 
ENDBRANCH  17  20
ENDBRANCH   4  17
TORSDOF 5
ENDMDL
MODEL 3
REMARK VINA RESULT:      -8.1      1.139      1.380
REMARK  Name = 
REMARK  5 active torsions:
REMARK  status: ('A' for Active; 'I' for Inactive)
REMARK    1  A    between atoms: C_2  and  C_10
REMARK    2  A    between atoms: N_3  and  C_4
REMARK    3  A    between atoms: C_4  and  C_5
REMARK    4  A    between atoms: C_13  and  S_14
REMARK    5  A    between atoms: S_14  and  N_17
REMARK                            x       y       z     vdW  Elec       q    Type
REMARK                         _______ _______ _______ _____ _____    ______ ____
ROOT
ATOM      1  C   UNL     1       2.214   7.446  19.140  0.00  0.00    +0.000 A 
ATOM      2  C   UNL     1       2.229   8.406  18.119  0.00  0.00    +0.000 A 
ATOM      3  C   UNL     1       1.684   9.669  18.336  0.00  0.00    +0.000 A 
ATOM      4  C   UNL     1       1.127   9.975  19.579  0.00  0.00    +0.000 A 
ATOM      5  C   UNL     1       1.127   9.035  20.616  0.00  0.00    +0.000 A 
ATOM      6  C   UNL     1       1.667   7.764  20.392  0.00  0.00    +0.000 A 
ENDROOT
BRANCH   1   8
ATOM      7  O   UNL     1       2.894   5.698  17.727  0.00  0.00    +0.000 OA
ATOM      8  C   UNL     1       2.855   6.135  18.869  0.00  0.00    +0.000 C 
ATOM      9  N   UNL     1       3.369   5.468  19.960  0.00  0.00    +0.000 N 
ATOM     10  H   UNL     1       3.105   5.762  20.890  0.00  0.00    +0.000 HD
BRANCH   9  11
ATOM     11  C   UNL     1       4.001   4.171  19.814  0.00  0.00    +0.000 C 
BRANCH  11  12
ATOM     12  C   UNL     1       3.174   2.996  20.369  0.00  0.00    +0.000 C 
ATOM     13  C   UNL     1       1.888   3.430  21.065  0.00  0.00    +0.000 C 
ATOM     14  C   UNL     1       0.881   3.413  19.944  0.00  0.00    +0.000 C 
ATOM     15  C   UNL     1       1.343   2.227  19.129  0.00  0.00    +0.000 C 
ATOM     16  O   UNL     1       2.769   2.170  19.255  0.00  0.00    +0.000 OA
ENDBRANCH  11  12
ENDBRANCH   9  11
ENDBRANCH   1   8
BRANCH   4  17
ATOM     17  S   UNL     1       0.530  11.627  19.869  0.00  0.00    +0.000 S 
ATOM     18  O   UNL     1       0.682  11.886  21.287  0.00  0.00    +0.000 OA
ATOM     19  O   UNL     1       1.142  12.485  18.882  0.00  0.00    +0.000 OA
BRANCH  17  20
ATOM     20  N   UNL     1      -1.089  11.532  19.533  0.00  0.00    +0.000 NA
ATOM     21  C   UNL     1      -1.543  11.316  18.149  0.00  0.00    +0.000 C 
ATOM     22  C   UNL     1      -3.023  11.503  18.246  0.00  0.00    +0.000 A 
ATOM     23  C   UNL     1      -4.002  11.117  17.348  0.00  0.00    +0.000 A 
ATOM     24  C   UNL     1      -5.325  11.434  17.648  0.00  0.00    +0.000 A 
ATOM     25  C   UNL     1      -5.643  12.149  18.815  0.00  0.00    +0.000 A 
ATOM     26  C   UNL     1      -4.647  12.519  19.725  0.00  0.00    +0.000 A 
ATOM     27  C   UNL     1      -3.339  12.162  19.440  0.00  0.00    +0.000 A 
ATOM     28  C   UNL     1      -2.092  12.347  20.260  0.00  0.00    +0.000 C 
ENDBRANCH  17  20
ENDBRANCH   4  17
TORSDOF 5
ENDMDL
MODEL 4
REMARK VINA RESULT:      -8.0      1.449      2.283
REMARK  Name = 
REMARK  5 active torsions:
REMARK  status: ('A' for Active; 'I' for Inactive)
REMARK    1  A    between atoms: C_2  and  C_10
REMARK    2  A    between atoms: N_3  and  C_4
REMARK    3  A    between atoms: C_4  and  C_5
REMARK    4  A    between atoms: C_13  and  S_14
REMARK    5  A    between atoms: S_14  and  N_17
REMARK                            x       y       z     vdW  Elec       q    Type
REMARK                         _______ _______ _______ _____ _____    ______ ____
ROOT
ATOM      1  C   UNL     1       2.595   6.954  18.929  0.00  0.00    +0.000 A 
ATOM      2  C   UNL     1       1.963   7.144  20.166  0.00  0.00    +0.000 A 
ATOM      3  C   UNL     1       1.392   8.375  20.480  0.00  0.00    +0.000 A 
ATOM      4  C   UNL     1       1.450   9.418  19.553  0.00  0.00    +0.000 A 
ATOM      5  C   UNL     1       2.055   9.236  18.305  0.00  0.00    +0.000 A 
ATOM      6  C   UNL     1       2.635   8.001  17.996  0.00  0.00    +0.000 A 
ENDROOT
BRANCH   1   8
ATOM      7  O   UNL     1       3.165   5.202  17.473  0.00  0.00    +0.000 OA
ATOM      8  C   UNL     1       3.140   5.608  18.628  0.00  0.00    +0.000 C 
ATOM      9  N   UNL     1       3.585   4.872  19.705  0.00  0.00    +0.000 N 
ATOM     10  H   UNL     1       3.329   5.159  20.639  0.00  0.00    +0.000 HD
BRANCH   9  11
ATOM     11  C   UNL     1       4.121   3.536  19.529  0.00  0.00    +0.000 C 
BRANCH  11  12
ATOM     12  C   UNL     1       3.140   2.406  19.893  0.00  0.00    +0.000 C 
ATOM     13  C   UNL     1       2.238   2.739  21.078  0.00  0.00    +0.000 C 
ATOM     14  C   UNL     1       1.037   3.363  20.415  0.00  0.00    +0.000 C 
ATOM     15  C   UNL     1       0.928   2.553  19.144  0.00  0.00    +0.000 C 
ATOM     16  O   UNL     1       2.263   2.196  18.766  0.00  0.00    +0.000 OA
ENDBRANCH  11  12
ENDBRANCH   9  11
ENDBRANCH   1   8
BRANCH   4  17
ATOM     17  S   UNL     1       0.625  10.949  19.932  0.00  0.00    +0.000 S 
ATOM     18  O   UNL     1       0.028  10.793  21.243  0.00  0.00    +0.000 OA
ATOM     19  O   UNL     1       1.555  12.019  19.656  0.00  0.00    +0.000 OA
BRANCH  17  20
ATOM     20  N   UNL     1      -0.596  11.033  18.816  0.00  0.00    +0.000 NA
ATOM     21  C   UNL     1      -1.931  11.508  19.217  0.00  0.00    +0.000 C 
ATOM     22  C   UNL     1      -2.765  11.232  18.007  0.00  0.00    +0.000 A 
ATOM     23  C   UNL     1      -4.007  11.748  17.681  0.00  0.00    +0.000 A 
ATOM     24  C   UNL     1      -4.604  11.311  16.500  0.00  0.00    +0.000 A 
ATOM     25  C   UNL     1      -3.971  10.356  15.688  0.00  0.00    +0.000 A 
ATOM     26  C   UNL     1      -2.707   9.855  16.018  0.00  0.00    +0.000 A 
ATOM     27  C   UNL     1      -2.102  10.326  17.171  0.00  0.00    +0.000 A 
ATOM     28  C   UNL     1      -0.733  10.037  17.725  0.00  0.00    +0.000 C 
ENDBRANCH  17  20
ENDBRANCH   4  17
TORSDOF 5
ENDMDL
MODEL 5
REMARK VINA RESULT:      -8.0      1.390      1.911
REMARK  Name = 
REMARK  5 active torsions:
REMARK  status: ('A' for Active; 'I' for Inactive)
REMARK    1  A    between atoms: C_2  and  C_10
REMARK    2  A    between atoms: N_3  and  C_4
REMARK    3  A    between atoms: C_4  and  C_5
REMARK    4  A    between atoms: C_13  and  S_14
REMARK    5  A    between atoms: S_14  and  N_17
REMARK                            x       y       z     vdW  Elec       q    Type
REMARK                         _______ _______ _______ _____ _____    ______ ____
ROOT
ATOM      1  C   UNL     1       2.634   6.944  19.001  0.00  0.00    +0.000 A 
ATOM      2  C   UNL     1       2.030   7.072  20.259  0.00  0.00    +0.000 A 
ATOM      3  C   UNL     1       1.404   8.264  20.618  0.00  0.00    +0.000 A 
ATOM      4  C   UNL     1       1.381   9.329  19.716  0.00  0.00    +0.000 A 
ATOM      5  C   UNL     1       1.960   9.208  18.447  0.00  0.00    +0.000 A 
ATOM      6  C   UNL     1       2.594   8.012  18.093  0.00  0.00    +0.000 A 
ENDROOT
BRANCH   1   8
ATOM      7  O   UNL     1       3.493   5.369  17.485  0.00  0.00    +0.000 OA
ATOM      8  C   UNL     1       3.240   5.635  18.653  0.00  0.00    +0.000 C 
ATOM      9  N   UNL     1       3.475   4.771  19.701  0.00  0.00    +0.000 N 
ATOM     10  H   UNL     1       3.040   4.948  20.595  0.00  0.00    +0.000 HD
BRANCH   9  11
ATOM     11  C   UNL     1       4.047   3.458  19.474  0.00  0.00    +0.000 C 
BRANCH  11  12
ATOM     12  C   UNL     1       3.102   2.287  19.806  0.00  0.00    +0.000 C 
ATOM     13  C   UNL     1       2.077   2.619  20.886  0.00  0.00    +0.000 C 
ATOM     14  C   UNL     1       0.909   3.137  20.087  0.00  0.00    +0.000 C 
ATOM     15  C   UNL     1       0.964   2.265  18.854  0.00  0.00    +0.000 C 
ATOM     16  O   UNL     1       2.346   1.973  18.616  0.00  0.00    +0.000 OA
ENDBRANCH  11  12
ENDBRANCH   9  11
ENDBRANCH   1   8
BRANCH   4  17
ATOM     17  S   UNL     1       0.489  10.806  20.153  0.00  0.00    +0.000 S 
ATOM     18  O   UNL     1       0.111  10.673  21.546  0.00  0.00    +0.000 OA
ATOM     19  O   UNL     1       1.268  11.931  19.694  0.00  0.00    +0.000 OA
BRANCH  17  20
ATOM     20  N   UNL     1      -0.888  10.728  19.236  0.00  0.00    +0.000 NA
ATOM     21  C   UNL     1      -0.808  10.345  17.816  0.00  0.00    +0.000 C 
ATOM     22  C   UNL     1      -2.195  10.600  17.319  0.00  0.00    +0.000 A 
ATOM     23  C   UNL     1      -2.795  10.134  16.163  0.00  0.00    +0.000 A 
ATOM     24  C   UNL     1      -4.103  10.538  15.899  0.00  0.00    +0.000 A 
ATOM     25  C   UNL     1      -4.771  11.415  16.769  0.00  0.00    +0.000 A 
ATOM     26  C   UNL     1      -4.160  11.866  17.945  0.00  0.00    +0.000 A 
ATOM     27  C   UNL     1      -2.877  11.425  18.221  0.00  0.00    +0.000 A 
ATOM     28  C   UNL     1      -2.016  11.670  19.431  0.00  0.00    +0.000 C 
ENDBRANCH  17  20
ENDBRANCH   4  17
TORSDOF 5
ENDMDL
MODEL 6
REMARK VINA RESULT:      -7.9      1.269      1.847
REMARK  Name = 
REMARK  5 active torsions:
REMARK  status: ('A' for Active; 'I' for Inactive)
REMARK    1  A    between atoms: C_2  and  C_10
REMARK    2  A    between atoms: N_3  and  C_4
REMARK    3  A    between atoms: C_4  and  C_5
REMARK    4  A    between atoms: C_13  and  S_14
REMARK    5  A    between atoms: S_14  and  N_17
REMARK                            x       y       z     vdW  Elec       q    Type
REMARK                         _______ _______ _______ _____ _____    ______ ____
ROOT
ATOM      1  C   UNL     1       2.372   7.239  18.954  0.00  0.00    +0.000 A 
ATOM      2  C   UNL     1       2.522   8.182  17.928  0.00  0.00    +0.000 A 
ATOM      3  C   UNL     1       2.073   9.489  18.105  0.00  0.00    +0.000 A 
ATOM      4  C   UNL     1       1.476   9.854  19.313  0.00  0.00    +0.000 A 
ATOM      5  C   UNL     1       1.341   8.931  20.355  0.00  0.00    +0.000 A 
ATOM      6  C   UNL     1       1.785   7.617  20.171  0.00  0.00    +0.000 A 
ENDROOT
BRANCH   1   8
ATOM      7  O   UNL     1       2.851   5.369  17.617  0.00  0.00    +0.000 OA
ATOM      8  C   UNL     1       2.914   5.876  18.730  0.00  0.00    +0.000 C 
ATOM      9  N   UNL     1       3.460   5.246  19.827  0.00  0.00    +0.000 N 
ATOM     10  H   UNL     1       3.277   5.612  20.750  0.00  0.00    +0.000 HD
BRANCH   9  11
ATOM     11  C   UNL     1       4.003   3.905  19.726  0.00  0.00    +0.000 C 
BRANCH  11  12
ATOM     12  C   UNL     1       3.080   2.802  20.277  0.00  0.00    +0.000 C 
ATOM     13  C   UNL     1       2.006   3.325  21.227  0.00  0.00    +0.000 C 
ATOM     14  C   UNL     1       0.855   3.615  20.299  0.00  0.00    +0.000 C 
ATOM     15  C   UNL     1       0.981   2.497  19.289  0.00  0.00    +0.000 C 
ATOM     16  O   UNL     1       2.379   2.209  19.163  0.00  0.00    +0.000 OA
ENDBRANCH  11  12
ENDBRANCH   9  11
ENDBRANCH   1   8
BRANCH   4  17
ATOM     17  S   UNL     1       1.004  11.553  19.557  0.00  0.00    +0.000 S 
ATOM     18  O   UNL     1       1.012  11.791  20.987  0.00  0.00    +0.000 OA
ATOM     19  O   UNL     1       1.804  12.355  18.661  0.00  0.00    +0.000 OA
BRANCH  17  20
ATOM     20  N   UNL     1      -0.566  11.611  19.034  0.00  0.00    +0.000 NA
ATOM     21  C   UNL     1      -1.623  12.112  19.928  0.00  0.00    +0.000 C 
ATOM     22  C   UNL     1      -2.877  11.805  19.173  0.00  0.00    +0.000 A 
ATOM     23  C   UNL     1      -4.147  12.321  19.364  0.00  0.00    +0.000 A 
ATOM     24  C   UNL     1      -5.172  11.852  18.545  0.00  0.00    +0.000 A 
ATOM     25  C   UNL     1      -4.920  10.865  17.578  0.00  0.00    +0.000 A 
ATOM     26  C   UNL     1      -3.628  10.363  17.381  0.00  0.00    +0.000 A 
ATOM     27  C   UNL     1      -2.608  10.866  18.171  0.00  0.00    +0.000 A 
ATOM     28  C   UNL     1      -1.131  10.583  18.128  0.00  0.00    +0.000 C 
ENDBRANCH  17  20
ENDBRANCH   4  17
TORSDOF 5
ENDMDL
MODEL 7
REMARK VINA RESULT:      -7.9      3.691      9.559
REMARK  Name = 
REMARK  5 active torsions:
REMARK  status: ('A' for Active; 'I' for Inactive)
REMARK    1  A    between atoms: C_2  and  C_10
REMARK    2  A    between atoms: N_3  and  C_4
REMARK    3  A    between atoms: C_4  and  C_5
REMARK    4  A    between atoms: C_13  and  S_14
REMARK    5  A    between atoms: S_14  and  N_17
REMARK                            x       y       z     vdW  Elec       q    Type
REMARK                         _______ _______ _______ _____ _____    ______ ____
ROOT
ATOM      1  C   UNL     1       2.239   7.867  18.854  0.00  0.00    +0.000 A 
ATOM      2  C   UNL     1       3.057   7.848  17.716  0.00  0.00    +0.000 A 
ATOM      3  C   UNL     1       4.013   6.847  17.557  0.00  0.00    +0.000 A 
ATOM      4  C   UNL     1       4.149   5.862  18.537  0.00  0.00    +0.000 A 
ATOM      5  C   UNL     1       3.324   5.855  19.667  0.00  0.00    +0.000 A 
ATOM      6  C   UNL     1       2.370   6.866  19.828  0.00  0.00    +0.000 A 
ENDROOT
BRANCH   1   8
ATOM      7  O   UNL     1       0.880   9.373  20.039  0.00  0.00    +0.000 OA
ATOM      8  C   UNL     1       1.204   8.926  18.946  0.00  0.00    +0.000 C 
ATOM      9  N   UNL     1       0.646   9.343  17.756  0.00  0.00    +0.000 N 
ATOM     10  H   UNL     1       0.782   8.785  16.925  0.00  0.00    +0.000 HD
BRANCH   9  11
ATOM     11  C   UNL     1      -0.387  10.359  17.729  0.00  0.00    +0.000 C 
BRANCH  11  12
ATOM     12  C   UNL     1      -1.815   9.808  17.557  0.00  0.00    +0.000 C 
ATOM     13  C   UNL     1      -2.888  10.688  18.191  0.00  0.00    +0.000 C 
ATOM     14  C   UNL     1      -3.270  11.611  17.063  0.00  0.00    +0.000 C 
ATOM     15  C   UNL     1      -3.165  10.696  15.864  0.00  0.00    +0.000 C 
ATOM     16  O   UNL     1      -2.111   9.768  16.144  0.00  0.00    +0.000 OA
ENDBRANCH  11  12
ENDBRANCH   9  11
ENDBRANCH   1   8
BRANCH   4  17
ATOM     17  S   UNL     1       5.305   4.535  18.266  0.00  0.00    +0.000 S 
ATOM     18  O   UNL     1       6.493   4.848  19.035  0.00  0.00    +0.000 OA
ATOM     19  O   UNL     1       4.590   3.296  18.464  0.00  0.00    +0.000 OA
BRANCH  17  20
ATOM     20  N   UNL     1       5.684   4.657  16.659  0.00  0.00    +0.000 NA
ATOM     21  C   UNL     1       5.300   3.584  15.727  0.00  0.00    +0.000 C 
ATOM     22  C   UNL     1       5.996   3.970  14.461  0.00  0.00    +0.000 A 
ATOM     23  C   UNL     1       5.755   3.524  13.174  0.00  0.00    +0.000 A 
ATOM     24  C   UNL     1       6.565   4.013  12.151  0.00  0.00    +0.000 A 
ATOM     25  C   UNL     1       7.610   4.908  12.433  0.00  0.00    +0.000 A 
ATOM     26  C   UNL     1       7.834   5.367  13.736  0.00  0.00    +0.000 A 
ATOM     27  C   UNL     1       6.996   4.909  14.739  0.00  0.00    +0.000 A 
ATOM     28  C   UNL     1       6.943   5.288  16.194  0.00  0.00    +0.000 C 
ENDBRANCH  17  20
ENDBRANCH   4  17
TORSDOF 5
ENDMDL
MODEL 8
REMARK VINA RESULT:      -7.9      3.677      9.822
REMARK  Name = 
REMARK  5 active torsions:
REMARK  status: ('A' for Active; 'I' for Inactive)
REMARK    1  A    between atoms: C_2  and  C_10
REMARK    2  A    between atoms: N_3  and  C_4
REMARK    3  A    between atoms: C_4  and  C_5
REMARK    4  A    between atoms: C_13  and  S_14
REMARK    5  A    between atoms: S_14  and  N_17
REMARK                            x       y       z     vdW  Elec       q    Type
REMARK                         _______ _______ _______ _____ _____    ______ ____
ROOT
ATOM      1  C   UNL     1       2.515   7.744  18.568  0.00  0.00    +0.000 A 
ATOM      2  C   UNL     1       2.562   6.736  19.541  0.00  0.00    +0.000 A 
ATOM      3  C   UNL     1       3.559   5.764  19.496  0.00  0.00    +0.000 A 
ATOM      4  C   UNL     1       4.513   5.802  18.477  0.00  0.00    +0.000 A 
ATOM      5  C   UNL     1       4.493   6.816  17.512  0.00  0.00    +0.000 A 
ATOM      6  C   UNL     1       3.485   7.786  17.555  0.00  0.00    +0.000 A 
ENDROOT
BRANCH   1   8
ATOM      7  O   UNL     1       0.999   9.310  17.692  0.00  0.00    +0.000 OA
ATOM      8  C   UNL     1       1.463   8.782  18.695  0.00  0.00    +0.000 C 
ATOM      9  N   UNL     1       1.071   9.104  19.977  0.00  0.00    +0.000 N 
ATOM     10  H   UNL     1       1.643   8.810  20.757  0.00  0.00    +0.000 HD
BRANCH   9  11
ATOM     11  C   UNL     1       0.063  10.118  20.220  0.00  0.00    +0.000 C 
BRANCH  11  12
ATOM     12  C   UNL     1       0.574  11.349  20.991  0.00  0.00    +0.000 C 
ATOM     13  C   UNL     1       0.154  12.676  20.366  0.00  0.00    +0.000 C 
ATOM     14  C   UNL     1      -1.151  12.972  21.058  0.00  0.00    +0.000 C 
ATOM     15  C   UNL     1      -0.890  12.446  22.451  0.00  0.00    +0.000 C 
ATOM     16  O   UNL     1      -0.011  11.323  22.311  0.00  0.00    +0.000 OA
ENDBRANCH  11  12
ENDBRANCH   9  11
ENDBRANCH   1   8
BRANCH   4  17
ATOM     17  S   UNL     1       5.838   4.613  18.496  0.00  0.00    +0.000 S 
ATOM     18  O   UNL     1       6.979   5.265  19.107  0.00  0.00    +0.000 OA
ATOM     19  O   UNL     1       5.304   3.383  19.033  0.00  0.00    +0.000 OA
BRANCH  17  20
ATOM     20  N   UNL     1       6.179   4.368  16.895  0.00  0.00    +0.000 NA
ATOM     21  C   UNL     1       7.041   5.317  16.171  0.00  0.00    +0.000 C 
ATOM     22  C   UNL     1       6.923   4.865  14.750  0.00  0.00    +0.000 A 
ATOM     23  C   UNL     1       7.743   5.169  13.678  0.00  0.00    +0.000 A 
ATOM     24  C   UNL     1       7.406   4.646  12.431  0.00  0.00    +0.000 A 
ATOM     25  C   UNL     1       6.252   3.862  12.272  0.00  0.00    +0.000 A 
ATOM     26  C   UNL     1       5.440   3.546  13.367  0.00  0.00    +0.000 A 
ATOM     27  C   UNL     1       5.806   4.033  14.610  0.00  0.00    +0.000 A 
ATOM     28  C   UNL     1       5.184   3.792  15.958  0.00  0.00    +0.000 C 
ENDBRANCH  17  20
ENDBRANCH   4  17
TORSDOF 5
ENDMDL
MODEL 9
REMARK VINA RESULT:      -7.9      2.007      3.067
REMARK  Name = 
REMARK  5 active torsions:
REMARK  status: ('A' for Active; 'I' for Inactive)
REMARK    1  A    between atoms: C_2  and  C_10
REMARK    2  A    between atoms: N_3  and  C_4
REMARK    3  A    between atoms: C_4  and  C_5
REMARK    4  A    between atoms: C_13  and  S_14
REMARK    5  A    between atoms: S_14  and  N_17
REMARK                            x       y       z     vdW  Elec       q    Type
REMARK                         _______ _______ _______ _____ _____    ______ ____
ROOT
ATOM      1  C   UNL     1       2.755   6.764  18.822  0.00  0.00    +0.000 A 
ATOM      2  C   UNL     1       2.154   6.812  20.087  0.00  0.00    +0.000 A 
ATOM      3  C   UNL     1       1.497   7.966  20.509  0.00  0.00    +0.000 A 
ATOM      4  C   UNL     1       1.439   9.073  19.662  0.00  0.00    +0.000 A 
ATOM      5  C   UNL     1       2.014   9.033  18.386  0.00  0.00    +0.000 A 
ATOM      6  C   UNL     1       2.680   7.876  17.969  0.00  0.00    +0.000 A 
ENDROOT
BRANCH   1   8
ATOM      7  O   UNL     1       3.201   4.470  19.049  0.00  0.00    +0.000 OA
ATOM      8  C   UNL     1       3.395   5.492  18.405  0.00  0.00    +0.000 C 
ATOM      9  N   UNL     1       4.205   5.550  17.291  0.00  0.00    +0.000 N 
ATOM     10  H   UNL     1       4.508   6.450  16.946  0.00  0.00    +0.000 HD
BRANCH   9  11
ATOM     11  C   UNL     1       4.895   4.371  16.805  0.00  0.00    +0.000 C 
BRANCH  11  12
ATOM     12  C   UNL     1       6.430   4.447  16.904  0.00  0.00    +0.000 C 
ATOM     13  C   UNL     1       7.011   5.751  16.366  0.00  0.00    +0.000 C 
ATOM     14  C   UNL     1       7.039   6.632  17.588  0.00  0.00    +0.000 C 
ATOM     15  C   UNL     1       7.383   5.641  18.677  0.00  0.00    +0.000 C 
ATOM     16  O   UNL     1       6.791   4.392  18.301  0.00  0.00    +0.000 OA
ENDBRANCH  11  12
ENDBRANCH   9  11
ENDBRANCH   1   8
BRANCH   4  17
ATOM     17  S   UNL     1       0.508  10.501  20.177  0.00  0.00    +0.000 S 
ATOM     18  O   UNL     1       0.081  10.255  21.540  0.00  0.00    +0.000 OA
ATOM     19  O   UNL     1       1.287  11.668  19.836  0.00  0.00    +0.000 OA
BRANCH  17  20
ATOM     20  N   UNL     1      -0.832  10.477  19.204  0.00  0.00    +0.000 NA
ATOM     21  C   UNL     1      -0.708  10.095  17.788  0.00  0.00    +0.000 C 
ATOM     22  C   UNL     1      -2.063  10.403  17.235  0.00  0.00    +0.000 A 
ATOM     23  C   UNL     1      -2.633   9.963  16.054  0.00  0.00    +0.000 A 
ATOM     24  C   UNL     1      -3.912  10.416  15.738  0.00  0.00    +0.000 A 
ATOM     25  C   UNL     1      -4.582  11.315  16.584  0.00  0.00    +0.000 A 
ATOM     26  C   UNL     1      -4.004  11.740  17.785  0.00  0.00    +0.000 A 
ATOM     27  C   UNL     1      -2.751  11.250  18.112  0.00  0.00    +0.000 A 
ATOM     28  C   UNL     1      -1.931  11.460  19.357  0.00  0.00    +0.000 C 
ENDBRANCH  17  20
ENDBRANCH   4  17
TORSDOF 5
ENDMDL
