MODEL 1
REMARK VINA RESULT:      -7.1      0.000      0.000
REMARK  Name = 
REMARK  2 active torsions:
REMARK  status: ('A' for Active; 'I' for Inactive)
REMARK    1  A    between atoms: C_1  and  N_2
REMARK    2  A    between atoms: C_8  and  C_9
REMARK                            x       y       z     vdW  Elec       q    Type
REMARK                         _______ _______ _______ _____ _____    ______ ____
ROOT
ATOM      1  C   UNL     1       1.565   2.447  21.624  0.00  0.00    +0.000 C 
ATOM      2  N   UNL     1       2.153   3.048  20.451  0.00  0.00    +0.000 N 
ATOM      3  C   UNL     1       2.686   2.209  19.376  0.00  0.00    +0.000 C 
ATOM      4  C   UNL     1       2.436   2.855  18.009  0.00  0.00    +0.000 C 
ATOM      5  N   UNL     1       2.975   4.201  18.034  0.00  0.00    +0.000 N 
ATOM      6  C   UNL     1       3.875   4.600  17.115  0.00  0.00    +0.000 A 
ATOM      7  N   UNL     1       4.377   3.948  16.105  0.00  0.00    +0.000 NA
ATOM      8  C   UNL     1       5.223   4.872  15.538  0.00  0.00    +0.000 A 
ATOM      9  N   UNL     1       5.268   6.043  16.186  0.00  0.00    +0.000 NA
ATOM     10  O   UNL     1       4.364   5.875  17.220  0.00  0.00    +0.000 OA
ATOM     11  C   UNL     1       2.569   5.091  19.124  0.00  0.00    +0.000 C 
ATOM     12  C   UNL     1       2.482   4.399  20.484  0.00  0.00    +0.000 C 
ATOM     13  O   UNL     1       2.537   5.045  21.539  0.00  0.00    +0.000 OA
ENDROOT
BRANCH   8  14
ATOM     14  C   UNL     1       5.984   4.608  14.330  0.00  0.00    +0.000 A 
ATOM     15  C   UNL     1       7.184   5.287  14.077  0.00  0.00    +0.000 A 
ATOM     16  C   UNL     1       7.899   5.030  12.907  0.00  0.00    +0.000 A 
ATOM     17  C   UNL     1       7.424   4.100  11.986  0.00  0.00    +0.000 A 
ATOM     18  C   UNL     1       6.239   3.411  12.235  0.00  0.00    +0.000 A 
ATOM     19  C   UNL     1       5.525   3.662  13.404  0.00  0.00    +0.000 A 
ENDBRANCH   8  14
TORSDOF 1
ENDMDL
MODEL 2
REMARK VINA RESULT:      -7.0      1.299      1.341
REMARK  Name = 
REMARK  2 active torsions:
REMARK  status: ('A' for Active; 'I' for Inactive)
REMARK    1  A    between atoms: C_1  and  N_2
REMARK    2  A    between atoms: C_8  and  C_9
REMARK                            x       y       z     vdW  Elec       q    Type
REMARK                         _______ _______ _______ _____ _____    ______ ____
ROOT
ATOM      1  C   UNL     1       0.722   2.625  20.694  0.00  0.00    +0.000 C 
ATOM      2  N   UNL     1       1.799   3.073  19.843  0.00  0.00    +0.000 N 
ATOM      3  C   UNL     1       1.645   3.068  18.387  0.00  0.00    +0.000 C 
ATOM      4  C   UNL     1       2.364   4.268  17.762  0.00  0.00    +0.000 C 
ATOM      5  N   UNL     1       3.742   4.262  18.213  0.00  0.00    +0.000 N 
ATOM      6  C   UNL     1       4.757   4.266  17.328  0.00  0.00    +0.000 A 
ATOM      7  N   UNL     1       4.725   4.301  16.026  0.00  0.00    +0.000 NA
ATOM      8  C   UNL     1       6.059   4.294  15.689  0.00  0.00    +0.000 A 
ATOM      9  N   UNL     1       6.887   4.228  16.739  0.00  0.00    +0.000 NA
ATOM     10  O   UNL     1       6.032   4.227  17.826  0.00  0.00    +0.000 OA
ATOM     11  C   UNL     1       4.001   4.179  19.652  0.00  0.00    +0.000 C 
ATOM     12  C   UNL     1       3.069   3.220  20.392  0.00  0.00    +0.000 C 
ATOM     13  O   UNL     1       3.378   2.743  21.492  0.00  0.00    +0.000 OA
ENDROOT
BRANCH   8  14
ATOM     14  C   UNL     1       6.526   4.373  14.317  0.00  0.00    +0.000 A 
ATOM     15  C   UNL     1       7.511   5.299  13.949  0.00  0.00    +0.000 A 
ATOM     16  C   UNL     1       7.943   5.370  12.624  0.00  0.00    +0.000 A 
ATOM     17  C   UNL     1       7.397   4.523  11.663  0.00  0.00    +0.000 A 
ATOM     18  C   UNL     1       6.426   3.590  12.022  0.00  0.00    +0.000 A 
ATOM     19  C   UNL     1       5.996   3.514  13.345  0.00  0.00    +0.000 A 
ENDBRANCH   8  14
TORSDOF 1
ENDMDL
MODEL 3
REMARK VINA RESULT:      -7.0      0.052      1.110
REMARK  Name = 
REMARK  2 active torsions:
REMARK  status: ('A' for Active; 'I' for Inactive)
REMARK    1  A    between atoms: C_1  and  N_2
REMARK    2  A    between atoms: C_8  and  C_9
REMARK                            x       y       z     vdW  Elec       q    Type
REMARK                         _______ _______ _______ _____ _____    ______ ____
ROOT
ATOM      1  C   UNL     1       1.489   2.473  21.571  0.00  0.00    +0.000 C 
ATOM      2  N   UNL     1       2.093   3.074  20.406  0.00  0.00    +0.000 N 
ATOM      3  C   UNL     1       2.611   2.235  19.323  0.00  0.00    +0.000 C 
ATOM      4  C   UNL     1       2.379   2.901  17.963  0.00  0.00    +0.000 C 
ATOM      5  N   UNL     1       2.945   4.235  18.003  0.00  0.00    +0.000 N 
ATOM      6  C   UNL     1       3.856   4.625  17.091  0.00  0.00    +0.000 A 
ATOM      7  N   UNL     1       4.348   3.973  16.076  0.00  0.00    +0.000 NA
ATOM      8  C   UNL     1       5.214   4.885  15.520  0.00  0.00    +0.000 A 
ATOM      9  N   UNL     1       5.282   6.048  16.181  0.00  0.00    +0.000 NA
ATOM     10  O   UNL     1       4.372   5.888  17.211  0.00  0.00    +0.000 OA
ATOM     11  C   UNL     1       2.556   5.122  19.101  0.00  0.00    +0.000 C 
ATOM     12  C   UNL     1       2.450   4.418  20.454  0.00  0.00    +0.000 C 
ATOM     13  O   UNL     1       2.515   5.051  21.516  0.00  0.00    +0.000 OA
ENDROOT
BRANCH   8  14
ATOM     14  C   UNL     1       5.974   4.618  14.312  0.00  0.00    +0.000 A 
ATOM     15  C   UNL     1       5.515   3.689  13.369  0.00  0.00    +0.000 A 
ATOM     16  C   UNL     1       6.260   3.435  12.217  0.00  0.00    +0.000 A 
ATOM     17  C   UNL     1       7.464   4.102  12.002  0.00  0.00    +0.000 A 
ATOM     18  C   UNL     1       7.922   5.037  12.928  0.00  0.00    +0.000 A 
ATOM     19  C   UNL     1       7.178   5.296  14.076  0.00  0.00    +0.000 A 
ENDBRANCH   8  14
TORSDOF 1
ENDMDL
MODEL 4
REMARK VINA RESULT:      -6.9      1.356      1.780
REMARK  Name = 
REMARK  2 active torsions:
REMARK  status: ('A' for Active; 'I' for Inactive)
REMARK    1  A    between atoms: C_1  and  N_2
REMARK    2  A    between atoms: C_8  and  C_9
REMARK                            x       y       z     vdW  Elec       q    Type
REMARK                         _______ _______ _______ _____ _____    ______ ____
ROOT
ATOM      1  C   UNL     1       0.935   2.502  20.761  0.00  0.00    +0.000 C 
ATOM      2  N   UNL     1       1.985   2.967  19.886  0.00  0.00    +0.000 N 
ATOM      3  C   UNL     1       1.788   2.984  18.436  0.00  0.00    +0.000 C 
ATOM      4  C   UNL     1       2.485   4.196  17.808  0.00  0.00    +0.000 C 
ATOM      5  N   UNL     1       3.875   4.188  18.218  0.00  0.00    +0.000 N 
ATOM      6  C   UNL     1       4.864   4.210  17.304  0.00  0.00    +0.000 A 
ATOM      7  N   UNL     1       4.792   4.265  16.004  0.00  0.00    +0.000 NA
ATOM      8  C   UNL     1       6.116   4.268  15.628  0.00  0.00    +0.000 A 
ATOM      9  N   UNL     1       6.975   4.188  16.652  0.00  0.00    +0.000 NA
ATOM     10  O   UNL     1       6.153   4.167  17.764  0.00  0.00    +0.000 OA
ATOM     11  C   UNL     1       4.177   4.084  19.647  0.00  0.00    +0.000 C 
ATOM     12  C   UNL     1       3.270   3.109  20.399  0.00  0.00    +0.000 C 
ATOM     13  O   UNL     1       3.613   2.617  21.482  0.00  0.00    +0.000 OA
ENDROOT
BRANCH   8  14
ATOM     14  C   UNL     1       6.542   4.370  14.244  0.00  0.00    +0.000 A 
ATOM     15  C   UNL     1       5.986   3.542  13.260  0.00  0.00    +0.000 A 
ATOM     16  C   UNL     1       6.414   3.644  11.936  0.00  0.00    +0.000 A 
ATOM     17  C   UNL     1       7.396   4.567  11.587  0.00  0.00    +0.000 A 
ATOM     18  C   UNL     1       7.946   5.405  12.556  0.00  0.00    +0.000 A 
ATOM     19  C   UNL     1       7.518   5.308  13.878  0.00  0.00    +0.000 A 
ENDBRANCH   8  14
TORSDOF 1
ENDMDL
MODEL 5
REMARK VINA RESULT:      -6.7      6.066      7.362
REMARK  Name = 
REMARK  2 active torsions:
REMARK  status: ('A' for Active; 'I' for Inactive)
REMARK    1  A    between atoms: C_1  and  N_2
REMARK    2  A    between atoms: C_8  and  C_9
REMARK                            x       y       z     vdW  Elec       q    Type
REMARK                         _______ _______ _______ _____ _____    ______ ____
ROOT
ATOM      1  C   UNL     1       4.736   3.537  18.797  0.00  0.00    +0.000 C 
ATOM      2  N   UNL     1       5.529   4.715  18.543  0.00  0.00    +0.000 N 
ATOM      3  C   UNL     1       6.531   5.158  19.515  0.00  0.00    +0.000 C 
ATOM      4  C   UNL     1       7.754   5.746  18.803  0.00  0.00    +0.000 C 
ATOM      5  N   UNL     1       7.302   6.787  17.901  0.00  0.00    +0.000 N 
ATOM      6  C   UNL     1       7.803   8.034  17.981  0.00  0.00    +0.000 A 
ATOM      7  N   UNL     1       8.716   8.514  18.777  0.00  0.00    +0.000 NA
ATOM      8  C   UNL     1       8.804   9.828  18.381  0.00  0.00    +0.000 A 
ATOM      9  N   UNL     1       7.957  10.161  17.399  0.00  0.00    +0.000 NA
ATOM     10  O   UNL     1       7.305   8.974  17.118  0.00  0.00    +0.000 OA
ATOM     11  C   UNL     1       6.237   6.465  16.948  0.00  0.00    +0.000 C 
ATOM     12  C   UNL     1       5.132   5.584  17.532  0.00  0.00    +0.000 C 
ATOM     13  O   UNL     1       4.007   5.540  17.019  0.00  0.00    +0.000 OA
ENDROOT
BRANCH   8  14
ATOM     14  C   UNL     1       9.746  10.766  18.964  0.00  0.00    +0.000 A 
ATOM     15  C   UNL     1      10.765  11.333  18.187  0.00  0.00    +0.000 A 
ATOM     16  C   UNL     1      11.670  12.226  18.763  0.00  0.00    +0.000 A 
ATOM     17  C   UNL     1      11.565  12.555  20.112  0.00  0.00    +0.000 A 
ATOM     18  C   UNL     1      10.547  12.006  20.890  0.00  0.00    +0.000 A 
ATOM     19  C   UNL     1       9.640  11.118  20.316  0.00  0.00    +0.000 A 
ENDBRANCH   8  14
TORSDOF 1
ENDMDL
MODEL 6
REMARK VINA RESULT:      -6.7      2.014      2.920
REMARK  Name = 
REMARK  2 active torsions:
REMARK  status: ('A' for Active; 'I' for Inactive)
REMARK    1  A    between atoms: C_1  and  N_2
REMARK    2  A    between atoms: C_8  and  C_9
REMARK                            x       y       z     vdW  Elec       q    Type
REMARK                         _______ _______ _______ _____ _____    ______ ____
ROOT
ATOM      1  C   UNL     1       1.207   8.169  20.492  0.00  0.00    +0.000 C 
ATOM      2  N   UNL     1       2.126   7.408  19.679  0.00  0.00    +0.000 N 
ATOM      3  C   UNL     1       2.490   7.873  18.339  0.00  0.00    +0.000 C 
ATOM      4  C   UNL     1       3.955   7.546  18.032  0.00  0.00    +0.000 C 
ATOM      5  N   UNL     1       4.162   6.128  18.244  0.00  0.00    +0.000 N 
ATOM      6  C   UNL     1       4.663   5.350  17.265  0.00  0.00    +0.000 A 
ATOM      7  N   UNL     1       5.051   5.672  16.064  0.00  0.00    +0.000 NA
ATOM      8  C   UNL     1       5.467   4.467  15.547  0.00  0.00    +0.000 A 
ATOM      9  N   UNL     1       5.316   3.431  16.383  0.00  0.00    +0.000 NA
ATOM     10  O   UNL     1       4.802   4.012  17.527  0.00  0.00    +0.000 OA
ATOM     11  C   UNL     1       3.748   5.550  19.524  0.00  0.00    +0.000 C 
ATOM     12  C   UNL     1       2.421   6.100  20.048  0.00  0.00    +0.000 C 
ATOM     13  O   UNL     1       1.748   5.474  20.877  0.00  0.00    +0.000 OA
ENDROOT
BRANCH   8  14
ATOM     14  C   UNL     1       6.038   4.334  14.219  0.00  0.00    +0.000 A 
ATOM     15  C   UNL     1       5.457   3.480  13.272  0.00  0.00    +0.000 A 
ATOM     16  C   UNL     1       6.023   3.354  12.003  0.00  0.00    +0.000 A 
ATOM     17  C   UNL     1       7.169   4.074  11.673  0.00  0.00    +0.000 A 
ATOM     18  C   UNL     1       7.746   4.936  12.604  0.00  0.00    +0.000 A 
ATOM     19  C   UNL     1       7.181   5.067  13.870  0.00  0.00    +0.000 A 
ENDBRANCH   8  14
TORSDOF 1
ENDMDL
MODEL 7
REMARK VINA RESULT:      -6.6      1.925      2.585
REMARK  Name = 
REMARK  2 active torsions:
REMARK  status: ('A' for Active; 'I' for Inactive)
REMARK    1  A    between atoms: C_1  and  N_2
REMARK    2  A    between atoms: C_8  and  C_9
REMARK                            x       y       z     vdW  Elec       q    Type
REMARK                         _______ _______ _______ _____ _____    ______ ____
ROOT
ATOM      1  C   UNL     1       1.251   7.829  20.644  0.00  0.00    +0.000 C 
ATOM      2  N   UNL     1       2.183   7.120  19.800  0.00  0.00    +0.000 N 
ATOM      3  C   UNL     1       2.534   7.645  18.479  0.00  0.00    +0.000 C 
ATOM      4  C   UNL     1       4.005   7.362  18.157  0.00  0.00    +0.000 C 
ATOM      5  N   UNL     1       4.243   5.940  18.313  0.00  0.00    +0.000 N 
ATOM      6  C   UNL     1       4.758   5.212  17.304  0.00  0.00    +0.000 A 
ATOM      7  N   UNL     1       5.136   5.589  16.115  0.00  0.00    +0.000 NA
ATOM      8  C   UNL     1       5.576   4.415  15.550  0.00  0.00    +0.000 A 
ATOM      9  N   UNL     1       5.448   3.344  16.345  0.00  0.00    +0.000 NA
ATOM     10  O   UNL     1       4.925   3.869  17.513  0.00  0.00    +0.000 OA
ATOM     11  C   UNL     1       3.844   5.304  19.570  0.00  0.00    +0.000 C 
ATOM     12  C   UNL     1       2.507   5.805  20.117  0.00  0.00    +0.000 C 
ATOM     13  O   UNL     1       1.849   5.132  20.922  0.00  0.00    +0.000 OA
ENDROOT
BRANCH   8  14
ATOM     14  C   UNL     1       6.147   4.346  14.217  0.00  0.00    +0.000 A 
ATOM     15  C   UNL     1       7.230   5.160  13.859  0.00  0.00    +0.000 A 
ATOM     16  C   UNL     1       7.761   5.090  12.571  0.00  0.00    +0.000 A 
ATOM     17  C   UNL     1       7.217   4.213  11.636  0.00  0.00    +0.000 A 
ATOM     18  C   UNL     1       6.148   3.391  11.987  0.00  0.00    +0.000 A 
ATOM     19  C   UNL     1       5.618   3.455  13.274  0.00  0.00    +0.000 A 
ENDBRANCH   8  14
TORSDOF 1
ENDMDL
MODEL 8
REMARK VINA RESULT:      -6.6      6.023      7.349
REMARK  Name = 
REMARK  2 active torsions:
REMARK  status: ('A' for Active; 'I' for Inactive)
REMARK    1  A    between atoms: C_1  and  N_2
REMARK    2  A    between atoms: C_8  and  C_9
REMARK                            x       y       z     vdW  Elec       q    Type
REMARK                         _______ _______ _______ _____ _____    ______ ____
ROOT
ATOM      1  C   UNL     1       4.728   3.479  18.657  0.00  0.00    +0.000 C 
ATOM      2  N   UNL     1       5.518   4.664  18.426  0.00  0.00    +0.000 N 
ATOM      3  C   UNL     1       6.512   5.097  19.411  0.00  0.00    +0.000 C 
ATOM      4  C   UNL     1       7.737   5.699  18.716  0.00  0.00    +0.000 C 
ATOM      5  N   UNL     1       7.288   6.751  17.826  0.00  0.00    +0.000 N 
ATOM      6  C   UNL     1       7.784   7.999  17.927  0.00  0.00    +0.000 A 
ATOM      7  N   UNL     1       8.690   8.470  18.736  0.00  0.00    +0.000 NA
ATOM      8  C   UNL     1       8.776   9.790  18.359  0.00  0.00    +0.000 A 
ATOM      9  N   UNL     1       7.934  10.134  17.375  0.00  0.00    +0.000 NA
ATOM     10  O   UNL     1       7.289   8.948  17.073  0.00  0.00    +0.000 OA
ATOM     11  C   UNL     1       6.232   6.439  16.861  0.00  0.00    +0.000 C 
ATOM     12  C   UNL     1       5.126   5.546  17.424  0.00  0.00    +0.000 C 
ATOM     13  O   UNL     1       4.005   5.504  16.902  0.00  0.00    +0.000 OA
ENDROOT
BRANCH   8  14
ATOM     14  C   UNL     1       9.710  10.724  18.962  0.00  0.00    +0.000 A 
ATOM     15  C   UNL     1       9.643  11.021  20.329  0.00  0.00    +0.000 A 
ATOM     16  C   UNL     1      10.542  11.928  20.892  0.00  0.00    +0.000 A 
ATOM     17  C   UNL     1      11.506  12.543  20.098  0.00  0.00    +0.000 A 
ATOM     18  C   UNL     1      11.588  12.244  18.739  0.00  0.00    +0.000 A 
ATOM     19  C   UNL     1      10.695  11.335  18.175  0.00  0.00    +0.000 A 
ENDBRANCH   8  14
TORSDOF 1
ENDMDL
MODEL 9
REMARK VINA RESULT:      -6.6      4.762      7.581
REMARK  Name = 
REMARK  2 active torsions:
REMARK  status: ('A' for Active; 'I' for Inactive)
REMARK    1  A    between atoms: C_1  and  N_2
REMARK    2  A    between atoms: C_8  and  C_9
REMARK                            x       y       z     vdW  Elec       q    Type
REMARK                         _______ _______ _______ _____ _____    ______ ____
ROOT
ATOM      1  C   UNL     1       7.377   4.855  17.406  0.00  0.00    +0.000 C 
ATOM      2  N   UNL     1       6.150   5.534  17.744  0.00  0.00    +0.000 N 
ATOM      3  C   UNL     1       5.734   6.728  17.005  0.00  0.00    +0.000 C 
ATOM      4  C   UNL     1       4.211   6.766  16.849  0.00  0.00    +0.000 C 
ATOM      5  N   UNL     1       3.613   6.645  18.164  0.00  0.00    +0.000 N 
ATOM      6  C   UNL     1       2.744   7.571  18.614  0.00  0.00    +0.000 A 
ATOM      7  N   UNL     1       2.285   8.637  18.023  0.00  0.00    +0.000 NA
ATOM      8  C   UNL     1       1.440   9.168  18.970  0.00  0.00    +0.000 A 
ATOM      9  N   UNL     1       1.397   8.475  20.115  0.00  0.00    +0.000 NA
ATOM     10  O   UNL     1       2.244   7.408  19.879  0.00  0.00    +0.000 OA
ATOM     11  C   UNL     1       4.030   5.530  19.016  0.00  0.00    +0.000 C 
ATOM     12  C   UNL     1       5.529   5.233  18.952  0.00  0.00    +0.000 C 
ATOM     13  O   UNL     1       6.101   4.614  19.859  0.00  0.00    +0.000 OA
ENDROOT
BRANCH   8  14
ATOM     14  C   UNL     1       0.648  10.363  18.739  0.00  0.00    +0.000 A 
ATOM     15  C   UNL     1       1.184  11.635  18.978  0.00  0.00    +0.000 A 
ATOM     16  C   UNL     1       0.407  12.773  18.761  0.00  0.00    +0.000 A 
ATOM     17  C   UNL     1      -0.904  12.650  18.309  0.00  0.00    +0.000 A 
ATOM     18  C   UNL     1      -1.442  11.390  18.056  0.00  0.00    +0.000 A 
ATOM     19  C   UNL     1      -0.668  10.251  18.267  0.00  0.00    +0.000 A 
ENDBRANCH   8  14
TORSDOF 1
ENDMDL
