MODEL 1
REMARK VINA RESULT:      -8.7      0.000      0.000
REMARK  Name = 
REMARK  8 active torsions:
REMARK  status: ('A' for Active; 'I' for Inactive)
REMARK    1  A    between atoms: C_2  and  C_3
REMARK    2  A    between atoms: C_3  and  C_4
REMARK    3  A    between atoms: C_4  and  N_5
REMARK    4  A    between atoms: C_7  and  C_8
REMARK    5  A    between atoms: N_12  and  C_13
REMARK    6  A    between atoms: C_23  and  O_25
REMARK    7  A    between atoms: O_25  and  C_26
REMARK    8  A    between atoms: C_26  and  C_27
REMARK                            x       y       z     vdW  Elec       q    Type
REMARK                         _______ _______ _______ _____ _____    ______ ____
ROOT
ATOM      1  C   UNL     1       0.310  10.112  19.094  0.00  0.00    +0.000 C 
ATOM      2  C   UNL     1       0.164   9.146  20.318  0.00  0.00    +0.000 C 
ATOM      3  C   UNL     1       1.369   8.379  20.780  0.00  0.00    +0.000 C 
ATOM      4  N   UNL     1       1.996   7.724  19.655  0.00  0.00    +0.000 N 
ATOM      5  C   UNL     1       2.501   6.448  19.817  0.00  0.00    +0.000 C 
ATOM      6  O   UNL     1       2.220   5.723  20.762  0.00  0.00    +0.000 OA
ATOM      7  C   UNL     1       2.257   8.565  18.500  0.00  0.00    +0.000 C 
ATOM      8  C   UNL     1       0.928   9.205  17.974  0.00  0.00    +0.000 C 
ENDROOT
BRANCH   1   9
ATOM      9  N   UNL     1      -1.105  10.632  19.073  0.00  0.00    +0.000 N 
ATOM     10  C   UNL     1      -1.923  10.369  17.989  0.00  0.00    +0.000 A 
ATOM     11  C   UNL     1      -2.917  11.310  17.979  0.00  0.00    +0.000 A 
ATOM     12  C   UNL     1      -2.697  12.031  19.181  0.00  0.00    +0.000 A 
ATOM     13  N   UNL     1      -3.539  13.019  19.565  0.00  0.00    +0.000 N 
ATOM     14  N   UNL     1      -1.593  11.610  19.839  0.00  0.00    +0.000 NA
ATOM     15  H   UNL     1      -4.238  13.340  18.895  0.00  0.00    +0.000 HD
BRANCH  13  16
ATOM     16  C   UNL     1      -3.934  13.315  20.887  0.00  0.00    +0.000 A 
ATOM     17  C   UNL     1      -3.205  14.250  21.629  0.00  0.00    +0.000 A 
ATOM     18  C   UNL     1      -3.535  14.506  22.962  0.00  0.00    +0.000 A 
ATOM     19  C   UNL     1      -4.606  13.840  23.557  0.00  0.00    +0.000 A 
ATOM     20  C   UNL     1      -5.350  12.919  22.825  0.00  0.00    +0.000 A 
ATOM     21  C   UNL     1      -5.006  12.656  21.502  0.00  0.00    +0.000 A 
ENDBRANCH  13  16
BRANCH  11  22
ATOM     22  C   UNL     1      -3.887  11.482  16.919  0.00  0.00    +0.000 C 
ATOM     23  N   UNL     1      -3.374  11.447  15.647  0.00  0.00    +0.000 N 
ATOM     24  O   UNL     1      -5.084  11.653  17.117  0.00  0.00    +0.000 OA
ATOM     25  H   UNL     1      -2.449  11.101  15.446  0.00  0.00    +0.000 HD
ATOM     26  H   UNL     1      -4.033  11.518  14.881  0.00  0.00    +0.000 HD
ENDBRANCH  11  22
ENDBRANCH   1   9
BRANCH   1  27
ATOM     27  C   UNL     1       1.075  11.485  19.037  0.00  0.00    +0.000 C 
BRANCH  27  29
ATOM     28  N   UNL     1       1.834  12.792  21.168  0.00  0.00    +0.000 NA
ATOM     29  C   UNL     1       1.515  12.176  20.225  0.00  0.00    +0.000 C 
ENDBRANCH  27  29
ENDBRANCH   1  27
BRANCH   5  30
ATOM     30  O   UNL     1       3.389   6.122  18.845  0.00  0.00    +0.000 OA
BRANCH  30  31
ATOM     31  C   UNL     1       4.302   5.077  19.177  0.00  0.00    +0.000 C 
BRANCH  31  32
ATOM     32  C   UNL     1       5.221   4.812  18.018  0.00  0.00    +0.000 A 
ATOM     33  C   UNL     1       6.611   4.789  18.205  0.00  0.00    +0.000 A 
ATOM     34  C   UNL     1       7.470   4.605  17.119  0.00  0.00    +0.000 A 
ATOM     35  C   UNL     1       6.945   4.427  15.840  0.00  0.00    +0.000 A 
ATOM     36  C   UNL     1       5.566   4.415  15.662  0.00  0.00    +0.000 A 
ATOM     37  F   UNL     1       5.061   4.238  14.434  0.00  0.00    +0.000 F 
ATOM     38  C   UNL     1       4.702   4.596  16.735  0.00  0.00    +0.000 A 
ENDBRANCH  31  32
ENDBRANCH  30  31
ENDBRANCH   5  30
TORSDOF 8
ENDMDL
MODEL 2
REMARK VINA RESULT:      -8.5      0.972      1.238
REMARK  Name = 
REMARK  8 active torsions:
REMARK  status: ('A' for Active; 'I' for Inactive)
REMARK    1  A    between atoms: C_2  and  C_3
REMARK    2  A    between atoms: C_3  and  C_4
REMARK    3  A    between atoms: C_4  and  N_5
REMARK    4  A    between atoms: C_7  and  C_8
REMARK    5  A    between atoms: N_12  and  C_13
REMARK    6  A    between atoms: C_23  and  O_25
REMARK    7  A    between atoms: O_25  and  C_26
REMARK    8  A    between atoms: C_26  and  C_27
REMARK                            x       y       z     vdW  Elec       q    Type
REMARK                         _______ _______ _______ _____ _____    ______ ____
ROOT
ATOM      1  C   UNL     1      -0.087  10.447  19.232  0.00  0.00    +0.000 C 
ATOM      2  C   UNL     1      -0.209   9.462  20.444  0.00  0.00    +0.000 C 
ATOM      3  C   UNL     1       1.016   8.720  20.897  0.00  0.00    +0.000 C 
ATOM      4  N   UNL     1       1.662   8.098  19.764  0.00  0.00    +0.000 N 
ATOM      5  C   UNL     1       2.200   6.833  19.911  0.00  0.00    +0.000 C 
ATOM      6  O   UNL     1       1.937   6.089  20.845  0.00  0.00    +0.000 OA
ATOM      7  C   UNL     1       1.901   8.960  18.621  0.00  0.00    +0.000 C 
ATOM      8  C   UNL     1       0.556   9.572  18.102  0.00  0.00    +0.000 C 
ENDROOT
BRANCH   1   9
ATOM      9  N   UNL     1      -1.515  10.929  19.217  0.00  0.00    +0.000 N 
ATOM     10  C   UNL     1      -2.348  10.590  18.166  0.00  0.00    +0.000 A 
ATOM     11  C   UNL     1      -3.367  11.504  18.129  0.00  0.00    +0.000 A 
ATOM     12  C   UNL     1      -3.141  12.292  19.288  0.00  0.00    +0.000 A 
ATOM     13  N   UNL     1      -4.000  13.277  19.639  0.00  0.00    +0.000 N 
ATOM     14  N   UNL     1      -2.012  11.934  19.941  0.00  0.00    +0.000 NA
ATOM     15  H   UNL     1      -4.721  13.545  18.969  0.00  0.00    +0.000 HD
BRANCH  13  16
ATOM     16  C   UNL     1      -4.375  13.632  20.952  0.00  0.00    +0.000 A 
ATOM     17  C   UNL     1      -3.972  14.866  21.473  0.00  0.00    +0.000 A 
ATOM     18  C   UNL     1      -4.271  15.207  22.794  0.00  0.00    +0.000 A 
ATOM     19  C   UNL     1      -4.989  14.323  23.599  0.00  0.00    +0.000 A 
ATOM     20  C   UNL     1      -5.410  13.098  23.089  0.00  0.00    +0.000 A 
ATOM     21  C   UNL     1      -5.095  12.757  21.776  0.00  0.00    +0.000 A 
ENDBRANCH  13  16
BRANCH  11  22
ATOM     22  C   UNL     1      -4.363  11.596  17.085  0.00  0.00    +0.000 C 
ATOM     23  N   UNL     1      -3.879  11.491  15.805  0.00  0.00    +0.000 N 
ATOM     24  O   UNL     1      -5.559  11.761  17.299  0.00  0.00    +0.000 OA
ATOM     25  H   UNL     1      -2.953  11.146  15.604  0.00  0.00    +0.000 HD
ATOM     26  H   UNL     1      -4.556  11.505  15.052  0.00  0.00    +0.000 HD
ENDBRANCH  11  22
ENDBRANCH   1   9
BRANCH   1  27
ATOM     27  C   UNL     1       0.641  11.840  19.195  0.00  0.00    +0.000 C 
BRANCH  27  29
ATOM     28  N   UNL     1       2.009  12.817  21.195  0.00  0.00    +0.000 NA
ATOM     29  C   UNL     1       1.372  12.364  20.324  0.00  0.00    +0.000 C 
ENDBRANCH  27  29
ENDBRANCH   1  27
BRANCH   5  30
ATOM     30  O   UNL     1       3.097   6.544  18.935  0.00  0.00    +0.000 OA
BRANCH  30  31
ATOM     31  C   UNL     1       4.075   5.562  19.276  0.00  0.00    +0.000 C 
BRANCH  31  32
ATOM     32  C   UNL     1       5.053   5.399  18.148  0.00  0.00    +0.000 A 
ATOM     33  C   UNL     1       4.703   5.783  16.844  0.00  0.00    +0.000 A 
ATOM     34  C   UNL     1       5.588   5.575  15.783  0.00  0.00    +0.000 A 
ATOM     35  C   UNL     1       6.833   4.996  16.019  0.00  0.00    +0.000 A 
ATOM     36  C   UNL     1       7.192   4.650  17.316  0.00  0.00    +0.000 A 
ATOM     37  F   UNL     1       8.392   4.099  17.544  0.00  0.00    +0.000 F 
ATOM     38  C   UNL     1       6.321   4.851  18.381  0.00  0.00    +0.000 A 
ENDBRANCH  31  32
ENDBRANCH  30  31
ENDBRANCH   5  30
TORSDOF 8
ENDMDL
MODEL 3
REMARK VINA RESULT:      -8.5      1.138      1.633
REMARK  Name = 
REMARK  8 active torsions:
REMARK  status: ('A' for Active; 'I' for Inactive)
REMARK    1  A    between atoms: C_2  and  C_3
REMARK    2  A    between atoms: C_3  and  C_4
REMARK    3  A    between atoms: C_4  and  N_5
REMARK    4  A    between atoms: C_7  and  C_8
REMARK    5  A    between atoms: N_12  and  C_13
REMARK    6  A    between atoms: C_23  and  O_25
REMARK    7  A    between atoms: O_25  and  C_26
REMARK    8  A    between atoms: C_26  and  C_27
REMARK                            x       y       z     vdW  Elec       q    Type
REMARK                         _______ _______ _______ _____ _____    ______ ____
ROOT
ATOM      1  C   UNL     1       0.081  10.253  19.141  0.00  0.00    +0.000 C 
ATOM      2  C   UNL     1      -0.050   9.312  20.386  0.00  0.00    +0.000 C 
ATOM      3  C   UNL     1       1.163   8.561  20.853  0.00  0.00    +0.000 C 
ATOM      4  N   UNL     1       1.785   7.887  19.736  0.00  0.00    +0.000 N 
ATOM      5  C   UNL     1       2.299   6.617  19.920  0.00  0.00    +0.000 C 
ATOM      6  O   UNL     1       2.031   5.910  20.882  0.00  0.00    +0.000 OA
ATOM      7  C   UNL     1       2.031   8.706  18.562  0.00  0.00    +0.000 C 
ATOM      8  C   UNL     1       0.695   9.327  18.035  0.00  0.00    +0.000 C 
ENDROOT
BRANCH   1   9
ATOM      9  N   UNL     1      -1.338  10.764  19.122  0.00  0.00    +0.000 N 
ATOM     10  C   UNL     1      -2.152  10.505  18.034  0.00  0.00    +0.000 A 
ATOM     11  C   UNL     1      -3.152  11.439  18.029  0.00  0.00    +0.000 A 
ATOM     12  C   UNL     1      -2.939  12.153  19.238  0.00  0.00    +0.000 A 
ATOM     13  N   UNL     1      -3.788  13.133  19.627  0.00  0.00    +0.000 N 
ATOM     14  N   UNL     1      -1.833  11.734  19.894  0.00  0.00    +0.000 NA
ATOM     15  H   UNL     1      -4.487  13.454  18.958  0.00  0.00    +0.000 HD
BRANCH  13  16
ATOM     16  C   UNL     1      -4.187  13.416  20.950  0.00  0.00    +0.000 A 
ATOM     17  C   UNL     1      -5.265  12.721  21.508  0.00  0.00    +0.000 A 
ATOM     18  C   UNL     1      -5.721  13.035  22.789  0.00  0.00    +0.000 A 
ATOM     19  C   UNL     1      -5.093  14.036  23.530  0.00  0.00    +0.000 A 
ATOM     20  C   UNL     1      -4.009  14.725  22.994  0.00  0.00    +0.000 A 
ATOM     21  C   UNL     1      -3.569  14.419  21.709  0.00  0.00    +0.000 A 
ENDBRANCH  13  16
BRANCH  11  22
ATOM     22  C   UNL     1      -4.122  11.613  16.970  0.00  0.00    +0.000 C 
ATOM     23  N   UNL     1      -3.625  11.483  15.697  0.00  0.00    +0.000 N 
ATOM     24  O   UNL     1      -5.305  11.863  17.167  0.00  0.00    +0.000 OA
ATOM     25  H   UNL     1      -2.724  11.073  15.508  0.00  0.00    +0.000 HD
ATOM     26  H   UNL     1      -4.286  11.553  14.933  0.00  0.00    +0.000 HD
ENDBRANCH  11  22
ENDBRANCH   1   9
BRANCH   1  27
ATOM     27  C   UNL     1       0.837  11.629  19.050  0.00  0.00    +0.000 C 
BRANCH  27  29
ATOM     28  N   UNL     1       1.826  12.768  21.183  0.00  0.00    +0.000 NA
ATOM     29  C   UNL     1       1.382  12.292  20.211  0.00  0.00    +0.000 C 
ENDBRANCH  27  29
ENDBRANCH   1  27
BRANCH   5  30
ATOM     30  O   UNL     1       3.181   6.277  18.947  0.00  0.00    +0.000 OA
BRANCH  30  31
ATOM     31  C   UNL     1       3.706   4.953  19.034  0.00  0.00    +0.000 C 
BRANCH  31  32
ATOM     32  C   UNL     1       5.081   4.906  18.432  0.00  0.00    +0.000 A 
ATOM     33  C   UNL     1       5.266   4.447  17.119  0.00  0.00    +0.000 A 
ATOM     34  C   UNL     1       6.550   4.343  16.579  0.00  0.00    +0.000 A 
ATOM     35  C   UNL     1       7.657   4.712  17.341  0.00  0.00    +0.000 A 
ATOM     36  C   UNL     1       7.469   5.200  18.629  0.00  0.00    +0.000 A 
ATOM     37  F   UNL     1       8.533   5.560  19.359  0.00  0.00    +0.000 F 
ATOM     38  C   UNL     1       6.197   5.308  19.177  0.00  0.00    +0.000 A 
ENDBRANCH  31  32
ENDBRANCH  30  31
ENDBRANCH   5  30
TORSDOF 8
ENDMDL
MODEL 4
REMARK VINA RESULT:      -8.4      0.813      1.132
REMARK  Name = 
REMARK  8 active torsions:
REMARK  status: ('A' for Active; 'I' for Inactive)
REMARK    1  A    between atoms: C_2  and  C_3
REMARK    2  A    between atoms: C_3  and  C_4
REMARK    3  A    between atoms: C_4  and  N_5
REMARK    4  A    between atoms: C_7  and  C_8
REMARK    5  A    between atoms: N_12  and  C_13
REMARK    6  A    between atoms: C_23  and  O_25
REMARK    7  A    between atoms: O_25  and  C_26
REMARK    8  A    between atoms: C_26  and  C_27
REMARK                            x       y       z     vdW  Elec       q    Type
REMARK                         _______ _______ _______ _____ _____    ______ ____
ROOT
ATOM      1  C   UNL     1      -0.084  10.552  19.083  0.00  0.00    +0.000 C 
ATOM      2  C   UNL     1      -0.095   9.502  20.246  0.00  0.00    +0.000 C 
ATOM      3  C   UNL     1       1.182   8.791  20.588  0.00  0.00    +0.000 C 
ATOM      4  N   UNL     1       1.783   8.254  19.389  0.00  0.00    +0.000 N 
ATOM      5  C   UNL     1       2.379   7.008  19.436  0.00  0.00    +0.000 C 
ATOM      6  O   UNL     1       2.201   6.206  20.344  0.00  0.00    +0.000 OA
ATOM      7  C   UNL     1       1.921   9.183  18.281  0.00  0.00    +0.000 C 
ATOM      8  C   UNL     1       0.525   9.763  17.873  0.00  0.00    +0.000 C 
ENDROOT
BRANCH   1   9
ATOM      9  N   UNL     1      -1.529  10.974  19.175  0.00  0.00    +0.000 N 
ATOM     10  C   UNL     1      -2.431  10.567  18.208  0.00  0.00    +0.000 A 
ATOM     11  C   UNL     1      -3.488  11.436  18.233  0.00  0.00    +0.000 A 
ATOM     12  C   UNL     1      -3.201  12.269  19.346  0.00  0.00    +0.000 A 
ATOM     13  N   UNL     1      -4.071  13.228  19.741  0.00  0.00    +0.000 N 
ATOM     14  N   UNL     1      -2.007  11.978  19.911  0.00  0.00    +0.000 NA
ATOM     15  H   UNL     1      -4.856  13.444  19.127  0.00  0.00    +0.000 HD
BRANCH  13  16
ATOM     16  C   UNL     1      -4.351  13.607  21.071  0.00  0.00    +0.000 A 
ATOM     17  C   UNL     1      -5.091  12.748  21.890  0.00  0.00    +0.000 A 
ATOM     18  C   UNL     1      -5.439  13.134  23.185  0.00  0.00    +0.000 A 
ATOM     19  C   UNL     1      -5.036  14.375  23.679  0.00  0.00    +0.000 A 
ATOM     20  C   UNL     1      -4.285  15.233  22.880  0.00  0.00    +0.000 A 
ATOM     21  C   UNL     1      -3.955  14.850  21.583  0.00  0.00    +0.000 A 
ENDBRANCH  13  16
BRANCH  11  22
ATOM     22  C   UNL     1      -4.571  11.454  17.274  0.00  0.00    +0.000 C 
ATOM     23  N   UNL     1      -4.263  10.947  16.036  0.00  0.00    +0.000 N 
ATOM     24  O   UNL     1      -5.689  11.890  17.521  0.00  0.00    +0.000 OA
ATOM     25  H   UNL     1      -3.436  10.395  15.868  0.00  0.00    +0.000 HD
ATOM     26  H   UNL     1      -5.012  10.902  15.355  0.00  0.00    +0.000 HD
ENDBRANCH  11  22
ENDBRANCH   1   9
BRANCH   1  27
ATOM     27  C   UNL     1       0.585  11.974  19.079  0.00  0.00    +0.000 C 
BRANCH  27  29
ATOM     28  N   UNL     1       2.023  12.853  21.075  0.00  0.00    +0.000 NA
ATOM     29  C   UNL     1       1.411  12.447  20.165  0.00  0.00    +0.000 C 
ENDBRANCH  27  29
ENDBRANCH   1  27
BRANCH   5  30
ATOM     30  O   UNL     1       3.227   6.807  18.397  0.00  0.00    +0.000 OA
BRANCH  30  31
ATOM     31  C   UNL     1       3.413   5.444  18.015  0.00  0.00    +0.000 C 
BRANCH  31  32
ATOM     32  C   UNL     1       4.714   5.291  17.280  0.00  0.00    +0.000 A 
ATOM     33  C   UNL     1       5.807   6.115  17.591  0.00  0.00    +0.000 A 
ATOM     34  C   UNL     1       6.997   6.017  16.867  0.00  0.00    +0.000 A 
ATOM     35  C   UNL     1       7.109   5.086  15.836  0.00  0.00    +0.000 A 
ATOM     36  C   UNL     1       6.038   4.246  15.552  0.00  0.00    +0.000 A 
ATOM     37  F   UNL     1       6.147   3.347  14.566  0.00  0.00    +0.000 F 
ATOM     38  C   UNL     1       4.849   4.334  16.266  0.00  0.00    +0.000 A 
ENDBRANCH  31  32
ENDBRANCH  30  31
ENDBRANCH   5  30
TORSDOF 8
ENDMDL
MODEL 5
REMARK VINA RESULT:      -8.4      1.129      1.536
REMARK  Name = 
REMARK  8 active torsions:
REMARK  status: ('A' for Active; 'I' for Inactive)
REMARK    1  A    between atoms: C_2  and  C_3
REMARK    2  A    between atoms: C_3  and  C_4
REMARK    3  A    between atoms: C_4  and  N_5
REMARK    4  A    between atoms: C_7  and  C_8
REMARK    5  A    between atoms: N_12  and  C_13
REMARK    6  A    between atoms: C_23  and  O_25
REMARK    7  A    between atoms: O_25  and  C_26
REMARK    8  A    between atoms: C_26  and  C_27
REMARK                            x       y       z     vdW  Elec       q    Type
REMARK                         _______ _______ _______ _____ _____    ______ ____
ROOT
ATOM      1  C   UNL     1       0.285  10.112  19.432  0.00  0.00    +0.000 C 
ATOM      2  C   UNL     1      -0.023   8.950  20.436  0.00  0.00    +0.000 C 
ATOM      3  C   UNL     1       1.117   8.118  20.948  0.00  0.00    +0.000 C 
ATOM      4  N   UNL     1       1.935   7.670  19.844  0.00  0.00    +0.000 N 
ATOM      5  C   UNL     1       2.447   6.386  19.867  0.00  0.00    +0.000 C 
ATOM      6  O   UNL     1       2.043   5.508  20.618  0.00  0.00    +0.000 OA
ATOM      7  C   UNL     1       2.348   8.697  18.906  0.00  0.00    +0.000 C 
ATOM      8  C   UNL     1       1.100   9.414  18.290  0.00  0.00    +0.000 C 
ENDROOT
BRANCH   1   9
ATOM      9  N   UNL     1      -1.125  10.623  19.273  0.00  0.00    +0.000 N 
ATOM     10  C   UNL     1      -1.826  10.366  18.109  0.00  0.00    +0.000 A 
ATOM     11  C   UNL     1      -2.822  11.300  18.006  0.00  0.00    +0.000 A 
ATOM     12  C   UNL     1      -2.730  12.011  19.232  0.00  0.00    +0.000 A 
ATOM     13  N   UNL     1      -3.614  12.989  19.537  0.00  0.00    +0.000 N 
ATOM     14  N   UNL     1      -1.695  11.590  19.994  0.00  0.00    +0.000 NA
ATOM     15  H   UNL     1      -4.244  13.312  18.803  0.00  0.00    +0.000 HD
BRANCH  13  16
ATOM     16  C   UNL     1      -4.144  13.269  20.815  0.00  0.00    +0.000 A 
ATOM     17  C   UNL     1      -5.416  12.794  21.151  0.00  0.00    +0.000 A 
ATOM     18  C   UNL     1      -5.987  13.119  22.383  0.00  0.00    +0.000 A 
ATOM     19  C   UNL     1      -5.286  13.908  23.294  0.00  0.00    +0.000 A 
ATOM     20  C   UNL     1      -4.013  14.375  22.978  0.00  0.00    +0.000 A 
ATOM     21  C   UNL     1      -3.455  14.061  21.742  0.00  0.00    +0.000 A 
ENDBRANCH  13  16
BRANCH  11  22
ATOM     22  C   UNL     1      -3.680  11.476  16.856  0.00  0.00    +0.000 C 
ATOM     23  N   UNL     1      -3.084  11.244  15.641  0.00  0.00    +0.000 N 
ATOM     24  O   UNL     1      -4.856  11.813  16.932  0.00  0.00    +0.000 OA
ATOM     25  H   UNL     1      -2.200  10.768  15.556  0.00  0.00    +0.000 HD
ATOM     26  H   UNL     1      -3.670  11.314  14.818  0.00  0.00    +0.000 HD
ENDBRANCH  11  22
ENDBRANCH   1   9
BRANCH   1  27
ATOM     27  C   UNL     1       1.006  11.477  19.733  0.00  0.00    +0.000 C 
BRANCH  27  29
ATOM     28  N   UNL     1       2.449  12.755  17.969  0.00  0.00    +0.000 NA
ATOM     29  C   UNL     1       1.826  12.152  18.757  0.00  0.00    +0.000 C 
ENDBRANCH  27  29
ENDBRANCH   1  27
BRANCH   5  30
ATOM     30  O   UNL     1       3.487   6.236  19.009  0.00  0.00    +0.000 OA
BRANCH  30  31
ATOM     31  C   UNL     1       3.297   5.261  17.984  0.00  0.00    +0.000 C 
BRANCH  31  32
ATOM     32  C   UNL     1       4.556   5.113  17.178  0.00  0.00    +0.000 A 
ATOM     33  C   UNL     1       4.719   4.022  16.311  0.00  0.00    +0.000 A 
ATOM     34  C   UNL     1       5.914   3.848  15.608  0.00  0.00    +0.000 A 
ATOM     35  C   UNL     1       6.948   4.770  15.755  0.00  0.00    +0.000 A 
ATOM     36  C   UNL     1       6.771   5.870  16.588  0.00  0.00    +0.000 A 
ATOM     37  F   UNL     1       7.763   6.760  16.725  0.00  0.00    +0.000 F 
ATOM     38  C   UNL     1       5.587   6.054  17.292  0.00  0.00    +0.000 A 
ENDBRANCH  31  32
ENDBRANCH  30  31
ENDBRANCH   5  30
TORSDOF 8
ENDMDL
MODEL 6
REMARK VINA RESULT:      -8.4      1.047      1.418
REMARK  Name = 
REMARK  8 active torsions:
REMARK  status: ('A' for Active; 'I' for Inactive)
REMARK    1  A    between atoms: C_2  and  C_3
REMARK    2  A    between atoms: C_3  and  C_4
REMARK    3  A    between atoms: C_4  and  N_5
REMARK    4  A    between atoms: C_7  and  C_8
REMARK    5  A    between atoms: N_12  and  C_13
REMARK    6  A    between atoms: C_23  and  O_25
REMARK    7  A    between atoms: O_25  and  C_26
REMARK    8  A    between atoms: C_26  and  C_27
REMARK                            x       y       z     vdW  Elec       q    Type
REMARK                         _______ _______ _______ _____ _____    ______ ____
ROOT
ATOM      1  C   UNL     1       0.195  10.150  19.591  0.00  0.00    +0.000 C 
ATOM      2  C   UNL     1      -0.146   9.027  20.629  0.00  0.00    +0.000 C 
ATOM      3  C   UNL     1       0.971   8.189  21.179  0.00  0.00    +0.000 C 
ATOM      4  N   UNL     1       1.790   7.689  20.099  0.00  0.00    +0.000 N 
ATOM      5  C   UNL     1       2.276   6.397  20.168  0.00  0.00    +0.000 C 
ATOM      6  O   UNL     1       1.847   5.552  20.942  0.00  0.00    +0.000 OA
ATOM      7  C   UNL     1       2.233   8.677  19.132  0.00  0.00    +0.000 C 
ATOM      8  C   UNL     1       1.006   9.398  18.480  0.00  0.00    +0.000 C 
ENDROOT
BRANCH   1   9
ATOM      9  N   UNL     1      -1.203  10.683  19.401  0.00  0.00    +0.000 N 
ATOM     10  C   UNL     1      -1.902  10.395  18.243  0.00  0.00    +0.000 A 
ATOM     11  C   UNL     1      -2.876  11.345  18.096  0.00  0.00    +0.000 A 
ATOM     12  C   UNL     1      -2.778  12.102  19.293  0.00  0.00    +0.000 A 
ATOM     13  N   UNL     1      -3.643  13.110  19.552  0.00  0.00    +0.000 N 
ATOM     14  N   UNL     1      -1.757  11.690  20.079  0.00  0.00    +0.000 NA
ATOM     15  H   UNL     1      -4.260  13.416  18.800  0.00  0.00    +0.000 HD
BRANCH  13  16
ATOM     16  C   UNL     1      -4.175  13.452  20.813  0.00  0.00    +0.000 A 
ATOM     17  C   UNL     1      -5.180  12.657  21.374  0.00  0.00    +0.000 A 
ATOM     18  C   UNL     1      -5.769  13.017  22.588  0.00  0.00    +0.000 A 
ATOM     19  C   UNL     1      -5.348  14.165  23.258  0.00  0.00    +0.000 A 
ATOM     20  C   UNL     1      -4.337  14.956  22.719  0.00  0.00    +0.000 A 
ATOM     21  C   UNL     1      -3.765  14.602  21.500  0.00  0.00    +0.000 A 
ENDBRANCH  13  16
BRANCH  11  22
ATOM     22  C   UNL     1      -3.723  11.493  16.932  0.00  0.00    +0.000 C 
ATOM     23  N   UNL     1      -3.079  11.391  15.724  0.00  0.00    +0.000 N 
ATOM     24  O   UNL     1      -4.929  11.701  16.993  0.00  0.00    +0.000 OA
ATOM     25  H   UNL     1      -2.148  11.014  15.639  0.00  0.00    +0.000 HD
ATOM     26  H   UNL     1      -3.651  11.443  14.890  0.00  0.00    +0.000 HD
ENDBRANCH  11  22
ENDBRANCH   1   9
BRANCH   1  27
ATOM     27  C   UNL     1       0.940  11.508  19.856  0.00  0.00    +0.000 C 
BRANCH  27  29
ATOM     28  N   UNL     1       2.220  12.824  17.996  0.00  0.00    +0.000 NA
ATOM     29  C   UNL     1       1.671  12.206  18.824  0.00  0.00    +0.000 C 
ENDBRANCH  27  29
ENDBRANCH   1  27
BRANCH   5  30
ATOM     30  O   UNL     1       3.321   6.198  19.326  0.00  0.00    +0.000 OA
BRANCH  30  31
ATOM     31  C   UNL     1       3.237   5.027  18.514  0.00  0.00    +0.000 C 
BRANCH  31  32
ATOM     32  C   UNL     1       4.155   5.156  17.332  0.00  0.00    +0.000 A 
ATOM     33  C   UNL     1       4.449   6.419  16.797  0.00  0.00    +0.000 A 
ATOM     34  C   UNL     1       5.253   6.537  15.660  0.00  0.00    +0.000 A 
ATOM     35  C   UNL     1       5.781   5.395  15.060  0.00  0.00    +0.000 A 
ATOM     36  C   UNL     1       5.518   4.147  15.613  0.00  0.00    +0.000 A 
ATOM     37  F   UNL     1       6.029   3.050  15.041  0.00  0.00    +0.000 F 
ATOM     38  C   UNL     1       4.720   4.017  16.744  0.00  0.00    +0.000 A 
ENDBRANCH  31  32
ENDBRANCH  30  31
ENDBRANCH   5  30
TORSDOF 8
ENDMDL
MODEL 7
REMARK VINA RESULT:      -8.4      3.964     11.368
REMARK  Name = 
REMARK  8 active torsions:
REMARK  status: ('A' for Active; 'I' for Inactive)
REMARK    1  A    between atoms: C_2  and  C_3
REMARK    2  A    between atoms: C_3  and  C_4
REMARK    3  A    between atoms: C_4  and  N_5
REMARK    4  A    between atoms: C_7  and  C_8
REMARK    5  A    between atoms: N_12  and  C_13
REMARK    6  A    between atoms: C_23  and  O_25
REMARK    7  A    between atoms: O_25  and  C_26
REMARK    8  A    between atoms: C_26  and  C_27
REMARK                            x       y       z     vdW  Elec       q    Type
REMARK                         _______ _______ _______ _____ _____    ______ ____
ROOT
ATOM      1  C   UNL     1       2.910   6.251  18.171  0.00  0.00    +0.000 C 
ATOM      2  C   UNL     1       3.179   6.265  19.714  0.00  0.00    +0.000 C 
ATOM      3  C   UNL     1       2.101   6.770  20.629  0.00  0.00    +0.000 C 
ATOM      4  N   UNL     1       1.613   8.047  20.159  0.00  0.00    +0.000 N 
ATOM      5  C   UNL     1       1.315   9.032  21.081  0.00  0.00    +0.000 C 
ATOM      6  O   UNL     1       1.684   9.003  22.247  0.00  0.00    +0.000 OA
ATOM      7  C   UNL     1       1.251   8.105  18.755  0.00  0.00    +0.000 C 
ATOM      8  C   UNL     1       2.472   7.722  17.854  0.00  0.00    +0.000 C 
ENDROOT
BRANCH   1   9
ATOM      9  N   UNL     1       4.225   5.649  17.741  0.00  0.00    +0.000 N 
ATOM     10  C   UNL     1       5.159   5.279  18.692  0.00  0.00    +0.000 A 
ATOM     11  C   UNL     1       6.383   5.237  18.080  0.00  0.00    +0.000 A 
ATOM     12  C   UNL     1       6.073   5.472  16.714  0.00  0.00    +0.000 A 
ATOM     13  N   UNL     1       7.038   5.435  15.765  0.00  0.00    +0.000 N 
ATOM     14  N   UNL     1       4.758   5.721  16.521  0.00  0.00    +0.000 NA
ATOM     15  H   UNL     1       8.010   5.396  16.072  0.00  0.00    +0.000 HD
BRANCH  13  16
ATOM     16  C   UNL     1       6.902   4.934  14.453  0.00  0.00    +0.000 A 
ATOM     17  C   UNL     1       5.959   3.934  14.193  0.00  0.00    +0.000 A 
ATOM     18  C   UNL     1       5.856   3.374  12.919  0.00  0.00    +0.000 A 
ATOM     19  C   UNL     1       6.684   3.821  11.889  0.00  0.00    +0.000 A 
ATOM     20  C   UNL     1       7.617   4.827  12.130  0.00  0.00    +0.000 A 
ATOM     21  C   UNL     1       7.726   5.369  13.407  0.00  0.00    +0.000 A 
ENDBRANCH  13  16
BRANCH  11  22
ATOM     22  C   UNL     1       7.645   5.045  18.759  0.00  0.00    +0.000 C 
ATOM     23  N   UNL     1       7.762   5.684  19.968  0.00  0.00    +0.000 N 
ATOM     24  O   UNL     1       8.563   4.369  18.307  0.00  0.00    +0.000 OA
ATOM     25  H   UNL     1       6.966   6.061  20.458  0.00  0.00    +0.000 HD
ATOM     26  H   UNL     1       8.616   5.532  20.491  0.00  0.00    +0.000 HD
ENDBRANCH  11  22
ENDBRANCH   1   9
BRANCH   1  27
ATOM     27  C   UNL     1       1.938   5.307  17.373  0.00  0.00    +0.000 C 
BRANCH  27  29
ATOM     28  N   UNL     1       1.744   2.754  17.892  0.00  0.00    +0.000 NA
ATOM     29  C   UNL     1       1.797   3.903  17.677  0.00  0.00    +0.000 C 
ENDBRANCH  27  29
ENDBRANCH   1  27
BRANCH   5  30
ATOM     30  O   UNL     1       0.514   9.995  20.559  0.00  0.00    +0.000 OA
BRANCH  30  31
ATOM     31  C   UNL     1       0.641  11.285  21.156  0.00  0.00    +0.000 C 
BRANCH  31  32
ATOM     32  C   UNL     1      -0.703  11.771  21.617  0.00  0.00    +0.000 A 
ATOM     33  C   UNL     1      -1.160  11.472  22.910  0.00  0.00    +0.000 A 
ATOM     34  C   UNL     1      -2.436  11.869  23.319  0.00  0.00    +0.000 A 
ATOM     35  C   UNL     1      -3.257  12.580  22.446  0.00  0.00    +0.000 A 
ATOM     36  C   UNL     1      -2.788  12.906  21.179  0.00  0.00    +0.000 A 
ATOM     37  F   UNL     1      -3.575  13.594  20.341  0.00  0.00    +0.000 F 
ATOM     38  C   UNL     1      -1.521  12.517  20.759  0.00  0.00    +0.000 A 
ENDBRANCH  31  32
ENDBRANCH  30  31
ENDBRANCH   5  30
TORSDOF 8
ENDMDL
MODEL 8
REMARK VINA RESULT:      -8.4      1.866      2.259
REMARK  Name = 
REMARK  8 active torsions:
REMARK  status: ('A' for Active; 'I' for Inactive)
REMARK    1  A    between atoms: C_2  and  C_3
REMARK    2  A    between atoms: C_3  and  C_4
REMARK    3  A    between atoms: C_4  and  N_5
REMARK    4  A    between atoms: C_7  and  C_8
REMARK    5  A    between atoms: N_12  and  C_13
REMARK    6  A    between atoms: C_23  and  O_25
REMARK    7  A    between atoms: O_25  and  C_26
REMARK    8  A    between atoms: C_26  and  C_27
REMARK                            x       y       z     vdW  Elec       q    Type
REMARK                         _______ _______ _______ _____ _____    ______ ____
ROOT
ATOM      1  C   UNL     1      -0.222  10.601  19.181  0.00  0.00    +0.000 C 
ATOM      2  C   UNL     1      -0.298   9.618  20.399  0.00  0.00    +0.000 C 
ATOM      3  C   UNL     1       0.955   8.923  20.844  0.00  0.00    +0.000 C 
ATOM      4  N   UNL     1       1.612   8.317  19.709  0.00  0.00    +0.000 N 
ATOM      5  C   UNL     1       2.197   7.073  19.857  0.00  0.00    +0.000 C 
ATOM      6  O   UNL     1       1.969   6.325  20.798  0.00  0.00    +0.000 OA
ATOM      7  C   UNL     1       1.811   9.181  18.559  0.00  0.00    +0.000 C 
ATOM      8  C   UNL     1       0.441   9.742  18.049  0.00  0.00    +0.000 C 
ENDROOT
BRANCH   1   9
ATOM      9  N   UNL     1      -1.667  11.032  19.177  0.00  0.00    +0.000 N 
ATOM     10  C   UNL     1      -2.496  10.663  18.132  0.00  0.00    +0.000 A 
ATOM     11  C   UNL     1      -3.547  11.540  18.104  0.00  0.00    +0.000 A 
ATOM     12  C   UNL     1      -3.340  12.337  19.260  0.00  0.00    +0.000 A 
ATOM     13  N   UNL     1      -4.231  13.291  19.618  0.00  0.00    +0.000 N 
ATOM     14  N   UNL     1      -2.194  12.018  19.905  0.00  0.00    +0.000 NA
ATOM     15  H   UNL     1      -4.965  13.532  18.954  0.00  0.00    +0.000 HD
BRANCH  13  16
ATOM     16  C   UNL     1      -4.607  13.632  20.934  0.00  0.00    +0.000 A 
ATOM     17  C   UNL     1      -4.350  14.922  21.410  0.00  0.00    +0.000 A 
ATOM     18  C   UNL     1      -4.650  15.260  22.731  0.00  0.00    +0.000 A 
ATOM     19  C   UNL     1      -5.224  14.316  23.582  0.00  0.00    +0.000 A 
ATOM     20  C   UNL     1      -5.499  13.033  23.117  0.00  0.00    +0.000 A 
ATOM     21  C   UNL     1      -5.183  12.697  21.803  0.00  0.00    +0.000 A 
ENDBRANCH  13  16
BRANCH  11  22
ATOM     22  C   UNL     1      -4.554  11.597  17.067  0.00  0.00    +0.000 C 
ATOM     23  N   UNL     1      -4.304  10.814  15.967  0.00  0.00    +0.000 N 
ATOM     24  O   UNL     1      -5.562  12.289  17.137  0.00  0.00    +0.000 OA
ATOM     25  H   UNL     1      -3.609  10.084  15.970  0.00  0.00    +0.000 HD
ATOM     26  H   UNL     1      -5.012  10.795  15.243  0.00  0.00    +0.000 HD
ENDBRANCH  11  22
ENDBRANCH   1   9
BRANCH   1  27
ATOM     27  C   UNL     1       0.455  12.018  19.130  0.00  0.00    +0.000 C 
BRANCH  27  29
ATOM     28  N   UNL     1       1.947  12.940  21.066  0.00  0.00    +0.000 NA
ATOM     29  C   UNL     1       1.309  12.508  20.185  0.00  0.00    +0.000 C 
ENDBRANCH  27  29
ENDBRANCH   1  27
BRANCH   5  30
ATOM     30  O   UNL     1       3.094   6.811  18.874  0.00  0.00    +0.000 OA
BRANCH  30  31
ATOM     31  C   UNL     1       2.596   6.040  17.781  0.00  0.00    +0.000 C 
BRANCH  31  32
ATOM     32  C   UNL     1       2.604   4.580  18.138  0.00  0.00    +0.000 A 
ATOM     33  C   UNL     1       3.816   3.915  18.375  0.00  0.00    +0.000 A 
ATOM     34  C   UNL     1       3.831   2.544  18.645  0.00  0.00    +0.000 A 
ATOM     35  C   UNL     1       2.634   1.832  18.695  0.00  0.00    +0.000 A 
ATOM     36  C   UNL     1       1.431   2.501  18.495  0.00  0.00    +0.000 A 
ATOM     37  F   UNL     1       0.280   1.818  18.548  0.00  0.00    +0.000 F 
ATOM     38  C   UNL     1       1.403   3.864  18.226  0.00  0.00    +0.000 A 
ENDBRANCH  31  32
ENDBRANCH  30  31
ENDBRANCH   5  30
TORSDOF 8
ENDMDL
MODEL 9
REMARK VINA RESULT:      -8.3      1.823      2.259
REMARK  Name = 
REMARK  8 active torsions:
REMARK  status: ('A' for Active; 'I' for Inactive)
REMARK    1  A    between atoms: C_2  and  C_3
REMARK    2  A    between atoms: C_3  and  C_4
REMARK    3  A    between atoms: C_4  and  N_5
REMARK    4  A    between atoms: C_7  and  C_8
REMARK    5  A    between atoms: N_12  and  C_13
REMARK    6  A    between atoms: C_23  and  O_25
REMARK    7  A    between atoms: O_25  and  C_26
REMARK    8  A    between atoms: C_26  and  C_27
REMARK                            x       y       z     vdW  Elec       q    Type
REMARK                         _______ _______ _______ _____ _____    ______ ____
ROOT
ATOM      1  C   UNL     1       0.595  10.244  19.391  0.00  0.00    +0.000 C 
ATOM      2  C   UNL     1       0.464   8.956  20.274  0.00  0.00    +0.000 C 
ATOM      3  C   UNL     1       1.633   8.018  20.358  0.00  0.00    +0.000 C 
ATOM      4  N   UNL     1       2.114   7.710  19.030  0.00  0.00    +0.000 N 
ATOM      5  C   UNL     1       2.521   6.420  18.747  0.00  0.00    +0.000 C 
ATOM      6  O   UNL     1       2.255   5.455  19.451  0.00  0.00    +0.000 OA
ATOM      7  C   UNL     1       2.352   8.850  18.165  0.00  0.00    +0.000 C 
ATOM      8  C   UNL     1       1.045   9.694  17.993  0.00  0.00    +0.000 C 
ENDROOT
BRANCH   1   9
ATOM      9  N   UNL     1      -0.769  10.822  19.671  0.00  0.00    +0.000 N 
ATOM     10  C   UNL     1      -1.805  10.615  18.778  0.00  0.00    +0.000 A 
ATOM     11  C   UNL     1      -2.737  11.596  18.985  0.00  0.00    +0.000 A 
ATOM     12  C   UNL     1      -2.240  12.284  20.122  0.00  0.00    +0.000 A 
ATOM     13  N   UNL     1      -2.939  13.299  20.683  0.00  0.00    +0.000 N 
ATOM     14  N   UNL     1      -1.043  11.805  20.531  0.00  0.00    +0.000 NA
ATOM     15  H   UNL     1      -3.747  13.661  20.176  0.00  0.00    +0.000 HD
BRANCH  13  16
ATOM     16  C   UNL     1      -3.038  13.586  22.061  0.00  0.00    +0.000 A 
ATOM     17  C   UNL     1      -3.659  12.666  22.912  0.00  0.00    +0.000 A 
ATOM     18  C   UNL     1      -3.830  12.960  24.266  0.00  0.00    +0.000 A 
ATOM     19  C   UNL     1      -3.367  14.170  24.783  0.00  0.00    +0.000 A 
ATOM     20  C   UNL     1      -2.733  15.088  23.950  0.00  0.00    +0.000 A 
ATOM     21  C   UNL     1      -2.580  14.796  22.598  0.00  0.00    +0.000 A 
ENDBRANCH  13  16
BRANCH  11  22
ATOM     22  C   UNL     1      -3.897  11.828  18.152  0.00  0.00    +0.000 C 
ATOM     23  N   UNL     1      -3.665  11.781  16.800  0.00  0.00    +0.000 N 
ATOM     24  O   UNL     1      -5.016  12.058  18.597  0.00  0.00    +0.000 OA
ATOM     25  H   UNL     1      -2.822  11.390  16.410  0.00  0.00    +0.000 HD
ATOM     26  H   UNL     1      -4.465  11.894  16.190  0.00  0.00    +0.000 HD
ENDBRANCH  11  22
ENDBRANCH   1   9
BRANCH   1  27
ATOM     27  C   UNL     1       1.465  11.522  19.677  0.00  0.00    +0.000 C 
BRANCH  27  29
ATOM     28  N   UNL     1       2.186  13.202  17.811  0.00  0.00    +0.000 NA
ATOM     29  C   UNL     1       1.886  12.423  18.631  0.00  0.00    +0.000 C 
ENDBRANCH  27  29
ENDBRANCH   1  27
BRANCH   5  30
ATOM     30  O   UNL     1       3.300   6.362  17.638  0.00  0.00    +0.000 OA
BRANCH  30  31
ATOM     31  C   UNL     1       4.281   5.326  17.634  0.00  0.00    +0.000 C 
BRANCH  31  32
ATOM     32  C   UNL     1       5.628   5.894  17.982  0.00  0.00    +0.000 A 
ATOM     33  C   UNL     1       6.160   6.961  17.244  0.00  0.00    +0.000 A 
ATOM     34  C   UNL     1       7.439   7.450  17.526  0.00  0.00    +0.000 A 
ATOM     35  C   UNL     1       8.186   6.886  18.558  0.00  0.00    +0.000 A 
ATOM     36  C   UNL     1       7.642   5.853  19.312  0.00  0.00    +0.000 A 
ATOM     37  F   UNL     1       8.358   5.315  20.308  0.00  0.00    +0.000 F 
ATOM     38  C   UNL     1       6.372   5.358  19.041  0.00  0.00    +0.000 A 
ENDBRANCH  31  32
ENDBRANCH  30  31
ENDBRANCH   5  30
TORSDOF 8
ENDMDL
