MODEL 1
REMARK VINA RESULT:      -6.4      0.000      0.000
REMARK  Name = 
REMARK  1 active torsions:
REMARK  status: ('A' for Active; 'I' for Inactive)
REMARK    1  A    between atoms: C_1  and  N_2
REMARK                            x       y       z     vdW  Elec       q    Type
REMARK                         _______ _______ _______ _____ _____    ______ ____
ROOT
ATOM      1  C   UNL     1      -3.348  15.770  21.382  0.00  0.00    +0.000 C 
ATOM      2  N   UNL     1      -4.077  14.737  20.658  0.00  0.00    +0.000 N 
ATOM      3  C   UNL     1      -5.450  14.897  20.491  0.00  0.00    +0.000 A 
ATOM      4  C   UNL     1      -6.234  16.084  20.367  0.00  0.00    +0.000 A 
ATOM      5  C   UNL     1      -7.587  15.810  20.272  0.00  0.00    +0.000 A 
ATOM      6  S   UNL     1      -7.916  14.134  20.314  0.00  0.00    +0.000 S 
ATOM      7  C   UNL     1      -6.287  13.801  20.604  0.00  0.00    +0.000 A 
ATOM      8  C   UNL     1      -5.840  12.541  21.124  0.00  0.00    +0.000 C 
ATOM      9  O   UNL     1      -6.552  11.559  21.343  0.00  0.00    +0.000 OA
ATOM     10  N   UNL     1      -4.538  12.604  21.555  0.00  0.00    +0.000 N 
ATOM     11  C   UNL     1      -4.327  12.841  22.989  0.00  0.00    +0.000 C 
ATOM     12  C   UNL     1      -2.987  12.300  23.488  0.00  0.00    +0.000 C 
ATOM     13  C   UNL     1      -2.020  12.178  22.358  0.00  0.00    +0.000 A 
ATOM     14  C   UNL     1      -2.280  12.701  21.088  0.00  0.00    +0.000 A 
ATOM     15  N   UNL     1      -1.442  11.999  20.224  0.00  0.00    +0.000 N 
ATOM     16  C   UNL     1      -0.790  10.968  20.900  0.00  0.00    +0.000 A 
ATOM     17  C   UNL     1      -0.076   9.848  20.433  0.00  0.00    +0.000 A 
ATOM     18  C   UNL     1       0.371   8.902  21.374  0.00  0.00    +0.000 A 
ATOM     19  C   UNL     1       0.143   9.078  22.734  0.00  0.00    +0.000 A 
ATOM     20  C   UNL     1      -0.564  10.193  23.185  0.00  0.00    +0.000 A 
ATOM     21  C   UNL     1      -1.048  11.140  22.256  0.00  0.00    +0.000 A 
ATOM     22  C   UNL     1      -3.616  13.312  20.667  0.00  0.00    +0.000 C 
ATOM     23  H   UNL     1      -1.512  12.022  19.217  0.00  0.00    +0.000 HD
ENDROOT
TORSDOF 0
ENDMDL
MODEL 2
REMARK VINA RESULT:      -6.1      6.589     10.730
REMARK  Name = 
REMARK  1 active torsions:
REMARK  status: ('A' for Active; 'I' for Inactive)
REMARK    1  A    between atoms: C_1  and  N_2
REMARK                            x       y       z     vdW  Elec       q    Type
REMARK                         _______ _______ _______ _____ _____    ______ ____
ROOT
ATOM      1  C   UNL     1       5.134   5.508  19.697  0.00  0.00    +0.000 C 
ATOM      2  N   UNL     1       3.815   4.892  19.762  0.00  0.00    +0.000 N 
ATOM      3  C   UNL     1       3.667   3.605  19.254  0.00  0.00    +0.000 A 
ATOM      4  C   UNL     1       4.596   2.523  19.188  0.00  0.00    +0.000 A 
ATOM      5  C   UNL     1       4.067   1.415  18.549  0.00  0.00    +0.000 A 
ATOM      6  S   UNL     1       2.454   1.665  18.043  0.00  0.00    +0.000 S 
ATOM      7  C   UNL     1       2.525   3.276  18.543  0.00  0.00    +0.000 A 
ATOM      8  C   UNL     1       1.588   4.263  18.092  0.00  0.00    +0.000 C 
ATOM      9  O   UNL     1       0.608   4.051  17.374  0.00  0.00    +0.000 OA
ATOM     10  N   UNL     1       2.013   5.536  18.383  0.00  0.00    +0.000 N 
ATOM     11  C   UNL     1       2.711   6.259  17.312  0.00  0.00    +0.000 C 
ATOM     12  C   UNL     1       2.600   7.777  17.453  0.00  0.00    +0.000 C 
ATOM     13  C   UNL     1       2.314   8.151  18.869  0.00  0.00    +0.000 A 
ATOM     14  C   UNL     1       2.367   7.224  19.915  0.00  0.00    +0.000 A 
ATOM     15  N   UNL     1       1.598   7.779  20.935  0.00  0.00    +0.000 N 
ATOM     16  C   UNL     1       0.958   8.938  20.496  0.00  0.00    +0.000 A 
ATOM     17  C   UNL     1      -0.103   9.685  21.042  0.00  0.00    +0.000 A 
ATOM     18  C   UNL     1      -0.619  10.758  20.291  0.00  0.00    +0.000 A 
ATOM     19  C   UNL     1      -0.078  11.095  19.054  0.00  0.00    +0.000 A 
ATOM     20  C   UNL     1       0.974  10.348  18.525  0.00  0.00    +0.000 A 
ATOM     21  C   UNL     1       1.488   9.249  19.247  0.00  0.00    +0.000 A 
ATOM     22  C   UNL     1       2.569   5.721  19.723  0.00  0.00    +0.000 C 
ATOM     23  H   UNL     1       1.298   7.279  21.760  0.00  0.00    +0.000 HD
ENDROOT
TORSDOF 0
ENDMDL
MODEL 3
REMARK VINA RESULT:      -6.1      2.062      2.672
REMARK  Name = 
REMARK  1 active torsions:
REMARK  status: ('A' for Active; 'I' for Inactive)
REMARK    1  A    between atoms: C_1  and  N_2
REMARK                            x       y       z     vdW  Elec       q    Type
REMARK                         _______ _______ _______ _____ _____    ______ ____
ROOT
ATOM      1  C   UNL     1      -1.217  14.936  24.061  0.00  0.00    +0.000 C 
ATOM      2  N   UNL     1      -2.177  14.758  22.979  0.00  0.00    +0.000 N 
ATOM      3  C   UNL     1      -3.508  15.080  23.225  0.00  0.00    +0.000 A 
ATOM      4  C   UNL     1      -4.078  16.062  24.091  0.00  0.00    +0.000 A 
ATOM      5  C   UNL     1      -5.462  16.024  24.088  0.00  0.00    +0.000 A 
ATOM      6  S   UNL     1      -6.077  14.826  23.036  0.00  0.00    +0.000 S 
ATOM      7  C   UNL     1      -4.514  14.278  22.713  0.00  0.00    +0.000 A 
ATOM      8  C   UNL     1      -4.254  12.990  22.139  0.00  0.00    +0.000 C 
ATOM      9  O   UNL     1      -5.107  12.187  21.757  0.00  0.00    +0.000 OA
ATOM     10  N   UNL     1      -2.929  12.646  22.245  0.00  0.00    +0.000 N 
ATOM     11  C   UNL     1      -2.557  11.794  23.383  0.00  0.00    +0.000 C 
ATOM     12  C   UNL     1      -1.295  10.972  23.119  0.00  0.00    +0.000 C 
ATOM     13  C   UNL     1      -0.467  11.613  22.056  0.00  0.00    +0.000 A 
ATOM     14  C   UNL     1      -0.739  12.892  21.562  0.00  0.00    +0.000 A 
ATOM     15  N   UNL     1      -0.116  12.943  20.317  0.00  0.00    +0.000 N 
ATOM     16  C   UNL     1       0.399  11.694  19.971  0.00  0.00    +0.000 A 
ATOM     17  C   UNL     1       0.860  11.179  18.745  0.00  0.00    +0.000 A 
ATOM     18  C   UNL     1       1.212   9.818  18.683  0.00  0.00    +0.000 A 
ATOM     19  C   UNL     1       1.137   9.004  19.809  0.00  0.00    +0.000 A 
ATOM     20  C   UNL     1       0.680   9.527  21.019  0.00  0.00    +0.000 A 
ATOM     21  C   UNL     1       0.293  10.882  21.097  0.00  0.00    +0.000 A 
ATOM     22  C   UNL     1      -1.977  13.710  21.928  0.00  0.00    +0.000 C 
ATOM     23  H   UNL     1      -0.268  13.670  19.633  0.00  0.00    +0.000 HD
ENDROOT
TORSDOF 0
ENDMDL
MODEL 4
REMARK VINA RESULT:      -6.0     10.437     12.225
REMARK  Name = 
REMARK  1 active torsions:
REMARK  status: ('A' for Active; 'I' for Inactive)
REMARK    1  A    between atoms: C_1  and  N_2
REMARK                            x       y       z     vdW  Elec       q    Type
REMARK                         _______ _______ _______ _____ _____    ______ ____
ROOT
ATOM      1  C   UNL     1       4.602   3.007  16.856  0.00  0.00    +0.000 C 
ATOM      2  N   UNL     1       4.400   3.424  18.237  0.00  0.00    +0.000 N 
ATOM      3  C   UNL     1       3.210   3.064  18.864  0.00  0.00    +0.000 A 
ATOM      4  C   UNL     1       2.378   1.919  18.679  0.00  0.00    +0.000 A 
ATOM      5  C   UNL     1       1.241   1.965  19.468  0.00  0.00    +0.000 A 
ATOM      6  S   UNL     1       1.180   3.368  20.440  0.00  0.00    +0.000 S 
ATOM      7  C   UNL     1       2.576   3.965  19.701  0.00  0.00    +0.000 A 
ATOM      8  C   UNL     1       2.954   5.347  19.773  0.00  0.00    +0.000 C 
ATOM      9  O   UNL     1       2.371   6.219  20.420  0.00  0.00    +0.000 OA
ATOM     10  N   UNL     1       3.938   5.651  18.866  0.00  0.00    +0.000 N 
ATOM     11  C   UNL     1       3.502   6.228  17.588  0.00  0.00    +0.000 C 
ATOM     12  C   UNL     1       4.583   7.082  16.924  0.00  0.00    +0.000 C 
ATOM     13  C   UNL     1       5.936   6.686  17.415  0.00  0.00    +0.000 A 
ATOM     14  C   UNL     1       6.145   5.548  18.201  0.00  0.00    +0.000 A 
ATOM     15  N   UNL     1       7.360   5.769  18.847  0.00  0.00    +0.000 N 
ATOM     16  C   UNL     1       7.823   7.060  18.598  0.00  0.00    +0.000 A 
ATOM     17  C   UNL     1       8.826   7.830  19.219  0.00  0.00    +0.000 A 
ATOM     18  C   UNL     1       8.983   9.169  18.816  0.00  0.00    +0.000 A 
ATOM     19  C   UNL     1       8.192   9.715  17.811  0.00  0.00    +0.000 A 
ATOM     20  C   UNL     1       7.203   8.942  17.203  0.00  0.00    +0.000 A 
ATOM     21  C   UNL     1       7.007   7.605  17.611  0.00  0.00    +0.000 A 
ATOM     22  C   UNL     1       5.025   4.677  18.769  0.00  0.00    +0.000 C 
ATOM     23  H   UNL     1       7.707   5.211  19.615  0.00  0.00    +0.000 HD
ENDROOT
TORSDOF 0
ENDMDL
MODEL 5
REMARK VINA RESULT:      -6.0      6.744     10.027
REMARK  Name = 
REMARK  1 active torsions:
REMARK  status: ('A' for Active; 'I' for Inactive)
REMARK    1  A    between atoms: C_1  and  N_2
REMARK                            x       y       z     vdW  Elec       q    Type
REMARK                         _______ _______ _______ _____ _____    ______ ____
ROOT
ATOM      1  C   UNL     1       1.574   5.466  21.137  0.00  0.00    +0.000 C 
ATOM      2  N   UNL     1       2.148   6.712  20.647  0.00  0.00    +0.000 N 
ATOM      3  C   UNL     1       1.367   7.863  20.709  0.00  0.00    +0.000 A 
ATOM      4  C   UNL     1       0.352   8.243  21.638  0.00  0.00    +0.000 A 
ATOM      5  C   UNL     1      -0.229   9.456  21.311  0.00  0.00    +0.000 A 
ATOM      6  S   UNL     1       0.452  10.147  19.905  0.00  0.00    +0.000 S 
ATOM      7  C   UNL     1       1.400   8.770  19.664  0.00  0.00    +0.000 A 
ATOM      8  C   UNL     1       2.016   8.472  18.404  0.00  0.00    +0.000 C 
ATOM      9  O   UNL     1       1.994   9.192  17.404  0.00  0.00    +0.000 OA
ATOM     10  N   UNL     1       2.475   7.179  18.357  0.00  0.00    +0.000 N 
ATOM     11  C   UNL     1       1.591   6.187  17.731  0.00  0.00    +0.000 C 
ATOM     12  C   UNL     1       2.354   4.988  17.166  0.00  0.00    +0.000 C 
ATOM     13  C   UNL     1       3.674   4.841  17.847  0.00  0.00    +0.000 A 
ATOM     14  C   UNL     1       4.020   5.583  18.980  0.00  0.00    +0.000 A 
ATOM     15  N   UNL     1       5.412   5.552  19.026  0.00  0.00    +0.000 N 
ATOM     16  C   UNL     1       5.930   4.945  17.882  0.00  0.00    +0.000 A 
ATOM     17  C   UNL     1       7.231   4.918  17.345  0.00  0.00    +0.000 A 
ATOM     18  C   UNL     1       7.421   4.312  16.088  0.00  0.00    +0.000 A 
ATOM     19  C   UNL     1       6.361   3.729  15.404  0.00  0.00    +0.000 A 
ATOM     20  C   UNL     1       5.077   3.762  15.947  0.00  0.00    +0.000 A 
ATOM     21  C   UNL     1       4.856   4.389  17.192  0.00  0.00    +0.000 A 
ATOM     22  C   UNL     1       3.174   6.718  19.557  0.00  0.00    +0.000 C 
ATOM     23  H   UNL     1       5.976   6.136  19.627  0.00  0.00    +0.000 HD
ENDROOT
TORSDOF 0
ENDMDL
MODEL 6
REMARK VINA RESULT:      -5.9      3.543      4.698
REMARK  Name = 
REMARK  1 active torsions:
REMARK  status: ('A' for Active; 'I' for Inactive)
REMARK    1  A    between atoms: C_1  and  N_2
REMARK                            x       y       z     vdW  Elec       q    Type
REMARK                         _______ _______ _______ _____ _____    ______ ____
ROOT
ATOM      1  C   UNL     1      -3.816  12.608  22.618  0.00  0.00    +0.000 C 
ATOM      2  N   UNL     1      -2.502  12.874  23.187  0.00  0.00    +0.000 N 
ATOM      3  C   UNL     1      -2.309  14.081  23.854  0.00  0.00    +0.000 A 
ATOM      4  C   UNL     1      -3.224  14.882  24.601  0.00  0.00    +0.000 A 
ATOM      5  C   UNL     1      -2.643  16.050  25.062  0.00  0.00    +0.000 A 
ATOM      6  S   UNL     1      -0.998  16.179  24.616  0.00  0.00    +0.000 S 
ATOM      7  C   UNL     1      -1.116  14.766  23.699  0.00  0.00    +0.000 A 
ATOM      8  C   UNL     1      -0.154  14.420  22.694  0.00  0.00    +0.000 C 
ATOM      9  O   UNL     1       0.877  15.046  22.438  0.00  0.00    +0.000 OA
ATOM     10  N   UNL     1      -0.607  13.406  21.886  0.00  0.00    +0.000 N 
ATOM     11  C   UNL     1      -1.229  13.801  20.616  0.00  0.00    +0.000 C 
ATOM     12  C   UNL     1      -1.138  12.711  19.548  0.00  0.00    +0.000 C 
ATOM     13  C   UNL     1      -0.959  11.372  20.182  0.00  0.00    +0.000 A 
ATOM     14  C   UNL     1      -1.083  11.172  21.560  0.00  0.00    +0.000 A 
ATOM     15  N   UNL     1      -0.394   9.989  21.821  0.00  0.00    +0.000 N 
ATOM     16  C   UNL     1       0.269   9.542  20.679  0.00  0.00    +0.000 A 
ATOM     17  C   UNL     1       1.283   8.581  20.502  0.00  0.00    +0.000 A 
ATOM     18  C   UNL     1       1.846   8.435  19.220  0.00  0.00    +0.000 A 
ATOM     19  C   UNL     1       1.396   9.195  18.146  0.00  0.00    +0.000 A 
ATOM     20  C   UNL     1       0.389  10.142  18.335  0.00  0.00    +0.000 A 
ATOM     21  C   UNL     1      -0.170  10.328  19.618  0.00  0.00    +0.000 A 
ATOM     22  C   UNL     1      -1.261  12.296  22.580  0.00  0.00    +0.000 C 
ATOM     23  H   UNL     1      -0.153   9.662  22.746  0.00  0.00    +0.000 HD
ENDROOT
TORSDOF 0
ENDMDL
MODEL 7
REMARK VINA RESULT:      -5.9      4.292      6.666
REMARK  Name = 
REMARK  1 active torsions:
REMARK  status: ('A' for Active; 'I' for Inactive)
REMARK    1  A    between atoms: C_1  and  N_2
REMARK                            x       y       z     vdW  Elec       q    Type
REMARK                         _______ _______ _______ _____ _____    ______ ____
ROOT
ATOM      1  C   UNL     1       1.149  11.482  19.553  0.00  0.00    +0.000 C 
ATOM      2  N   UNL     1       0.845  12.631  18.709  0.00  0.00    +0.000 N 
ATOM      3  C   UNL     1       1.726  13.708  18.724  0.00  0.00    +0.000 A 
ATOM      4  C   UNL     1       3.138  13.744  18.933  0.00  0.00    +0.000 A 
ATOM      5  C   UNL     1       3.635  15.036  18.924  0.00  0.00    +0.000 A 
ATOM      6  S   UNL     1       2.416  16.201  18.649  0.00  0.00    +0.000 S 
ATOM      7  C   UNL     1       1.230  15.000  18.691  0.00  0.00    +0.000 A 
ATOM      8  C   UNL     1      -0.159  15.296  18.887  0.00  0.00    +0.000 C 
ATOM      9  O   UNL     1      -0.649  16.425  18.968  0.00  0.00    +0.000 OA
ATOM     10  N   UNL     1      -0.882  14.167  19.183  0.00  0.00    +0.000 N 
ATOM     11  C   UNL     1      -1.130  13.896  20.605  0.00  0.00    +0.000 C 
ATOM     12  C   UNL     1      -2.385  13.054  20.837  0.00  0.00    +0.000 C 
ATOM     13  C   UNL     1      -2.723  12.272  19.611  0.00  0.00    +0.000 A 
ATOM     14  C   UNL     1      -1.862  12.188  18.513  0.00  0.00    +0.000 A 
ATOM     15  N   UNL     1      -2.673  11.828  17.439  0.00  0.00    +0.000 N 
ATOM     16  C   UNL     1      -4.017  11.833  17.812  0.00  0.00    +0.000 A 
ATOM     17  C   UNL     1      -5.199  11.808  17.048  0.00  0.00    +0.000 A 
ATOM     18  C   UNL     1      -6.429  11.948  17.719  0.00  0.00    +0.000 A 
ATOM     19  C   UNL     1      -6.482  12.080  19.102  0.00  0.00    +0.000 A 
ATOM     20  C   UNL     1      -5.303  12.102  19.847  0.00  0.00    +0.000 A 
ATOM     21  C   UNL     1      -4.057  11.992  19.194  0.00  0.00    +0.000 A 
ATOM     22  C   UNL     1      -0.569  12.991  18.371  0.00  0.00    +0.000 C 
ATOM     23  H   UNL     1      -2.383  11.853  16.472  0.00  0.00    +0.000 HD
ENDROOT
TORSDOF 0
ENDMDL
MODEL 8
REMARK VINA RESULT:      -5.9     10.323     12.933
REMARK  Name = 
REMARK  1 active torsions:
REMARK  status: ('A' for Active; 'I' for Inactive)
REMARK    1  A    between atoms: C_1  and  N_2
REMARK                            x       y       z     vdW  Elec       q    Type
REMARK                         _______ _______ _______ _____ _____    ______ ____
ROOT
ATOM      1  C   UNL     1       2.287   6.176  18.627  0.00  0.00    +0.000 C 
ATOM      2  N   UNL     1       2.530   4.740  18.594  0.00  0.00    +0.000 N 
ATOM      3  C   UNL     1       2.306   4.010  19.757  0.00  0.00    +0.000 A 
ATOM      4  C   UNL     1       1.371   4.220  20.816  0.00  0.00    +0.000 A 
ATOM      5  C   UNL     1       1.509   3.288  21.830  0.00  0.00    +0.000 A 
ATOM      6  S   UNL     1       2.745   2.153  21.507  0.00  0.00    +0.000 S 
ATOM      7  C   UNL     1       3.177   2.992  20.107  0.00  0.00    +0.000 A 
ATOM      8  C   UNL     1       4.441   2.803  19.456  0.00  0.00    +0.000 C 
ATOM      9  O   UNL     1       5.303   1.984  19.782  0.00  0.00    +0.000 OA
ATOM     10  N   UNL     1       4.689   3.790  18.534  0.00  0.00    +0.000 N 
ATOM     11  C   UNL     1       5.515   4.919  18.980  0.00  0.00    +0.000 C 
ATOM     12  C   UNL     1       6.243   5.612  17.828  0.00  0.00    +0.000 C 
ATOM     13  C   UNL     1       5.540   5.355  16.537  0.00  0.00    +0.000 A 
ATOM     14  C   UNL     1       4.282   4.748  16.475  0.00  0.00    +0.000 A 
ATOM     15  N   UNL     1       4.181   4.246  15.179  0.00  0.00    +0.000 N 
ATOM     16  C   UNL     1       5.389   4.396  14.497  0.00  0.00    +0.000 A 
ATOM     17  C   UNL     1       5.865   3.825  13.301  0.00  0.00    +0.000 A 
ATOM     18  C   UNL     1       7.196   4.079  12.925  0.00  0.00    +0.000 A 
ATOM     19  C   UNL     1       8.017   4.897  13.694  0.00  0.00    +0.000 A 
ATOM     20  C   UNL     1       7.533   5.458  14.876  0.00  0.00    +0.000 A 
ATOM     21  C   UNL     1       6.210   5.193  15.289  0.00  0.00    +0.000 A 
ATOM     22  C   UNL     1       3.557   4.147  17.679  0.00  0.00    +0.000 C 
ATOM     23  H   UNL     1       3.464   3.605  14.870  0.00  0.00    +0.000 HD
ENDROOT
TORSDOF 0
ENDMDL
MODEL 9
REMARK VINA RESULT:      -5.9      1.574      1.836
REMARK  Name = 
REMARK  1 active torsions:
REMARK  status: ('A' for Active; 'I' for Inactive)
REMARK    1  A    between atoms: C_1  and  N_2
REMARK                            x       y       z     vdW  Elec       q    Type
REMARK                         _______ _______ _______ _____ _____    ______ ____
ROOT
ATOM      1  C   UNL     1      -3.184  16.005  22.786  0.00  0.00    +0.000 C 
ATOM      2  N   UNL     1      -4.171  15.282  21.993  0.00  0.00    +0.000 N 
ATOM      3  C   UNL     1      -5.506  15.359  22.378  0.00  0.00    +0.000 A 
ATOM      4  C   UNL     1      -6.223  16.412  23.023  0.00  0.00    +0.000 A 
ATOM      5  C   UNL     1      -7.538  16.066  23.284  0.00  0.00    +0.000 A 
ATOM      6  S   UNL     1      -7.916  14.490  22.743  0.00  0.00    +0.000 S 
ATOM      7  C   UNL     1      -6.306  14.232  22.305  0.00  0.00    +0.000 A 
ATOM      8  C   UNL     1      -5.771  12.921  22.079  0.00  0.00    +0.000 C 
ATOM      9  O   UNL     1      -6.413  11.868  22.101  0.00  0.00    +0.000 OA
ATOM     10  N   UNL     1      -4.399  12.934  22.032  0.00  0.00    +0.000 N 
ATOM     11  C   UNL     1      -3.693  12.595  23.275  0.00  0.00    +0.000 C 
ATOM     12  C   UNL     1      -2.292  12.036  23.026  0.00  0.00    +0.000 C 
ATOM     13  C   UNL     1      -1.785  12.474  21.693  0.00  0.00    +0.000 A 
ATOM     14  C   UNL     1      -2.442  13.434  20.918  0.00  0.00    +0.000 A 
ATOM     15  N   UNL     1      -1.991  13.225  19.616  0.00  0.00    +0.000 N 
ATOM     16  C   UNL     1      -1.199  12.079  19.547  0.00  0.00    +0.000 A 
ATOM     17  C   UNL     1      -0.749  11.318  18.451  0.00  0.00    +0.000 A 
ATOM     18  C   UNL     1      -0.052  10.123  18.711  0.00  0.00    +0.000 A 
ATOM     19  C   UNL     1       0.214   9.715  20.013  0.00  0.00    +0.000 A 
ATOM     20  C   UNL     1      -0.235  10.479  21.090  0.00  0.00    +0.000 A 
ATOM     21  C   UNL     1      -0.962  11.666  20.855  0.00  0.00    +0.000 A 
ATOM     22  C   UNL     1      -3.808  14.027  21.261  0.00  0.00    +0.000 C 
ATOM     23  H   UNL     1      -2.406  13.643  18.795  0.00  0.00    +0.000 HD
ENDROOT
TORSDOF 0
ENDMDL
