MODEL 1
REMARK VINA RESULT:      -7.9      0.000      0.000
REMARK  Name = 
REMARK  8 active torsions:
REMARK  status: ('A' for Active; 'I' for Inactive)
REMARK    1  A    between atoms: C_1  and  C_2
REMARK    2  A    between atoms: C_2  and  C_4
REMARK    3  A    between atoms: C_4  and  C_5
REMARK    4  A    between atoms: C_5  and  O_6
REMARK    5  A    between atoms: C_5  and  C_7
REMARK    6  A    between atoms: C_7  and  C_8
REMARK    7  A    between atoms: C_8  and  C_10
REMARK    8  A    between atoms: C_14  and  C_15
REMARK                            x       y       z     vdW  Elec       q    Type
REMARK                         _______ _______ _______ _____ _____    ______ ____
ROOT
ATOM      1  C   UNL     1       3.903   6.163  17.803  0.00  0.00    +0.000 C 
ATOM      2  O   UNL     1       4.663   5.158  18.707  0.00  0.00    +0.000 OA
ATOM      3  C   UNL     1       4.804   3.964  19.362  0.00  0.00    +0.000 C 
ATOM      4  O   UNL     1       5.988   3.698  19.641  0.00  0.00    +0.000 OA
ATOM      5  C   UNL     1       3.723   2.811  19.764  0.00  0.00    +0.000 C 
ATOM      6  C   UNL     1       4.499   1.710  20.610  0.00  0.00    +0.000 C 
ATOM      7  C   UNL     1       2.498   2.988  20.724  0.00  0.00    +0.000 C 
ATOM      8  C   UNL     1       1.190   3.493  20.112  0.00  0.00    +0.000 C 
ATOM      9  C   UNL     1       0.999   4.948  20.525  0.00  0.00    +0.000 C 
ATOM     10  C   UNL     1       2.277   5.631  20.107  0.00  0.00    +0.000 C 
ATOM     11  C   UNL     1       2.228   7.005  19.586  0.00  0.00    +0.000 A 
ATOM     12  C   UNL     1       1.390   7.944  20.192  0.00  0.00    +0.000 A 
ATOM     13  C   UNL     1       1.168   9.161  19.578  0.00  0.00    +0.000 A 
ATOM     14  C   UNL     1       1.809   9.428  18.369  0.00  0.00    +0.000 A 
ATOM     15  C   UNL     1       2.701   8.501  17.803  0.00  0.00    +0.000 A 
ATOM     16  C   UNL     1       2.982   7.271  18.432  0.00  0.00    +0.000 A 
ENDROOT
BRANCH   1  17
ATOM     17  C   UNL     1       4.848   6.797  16.741  0.00  0.00    +0.000 C 
ATOM     18  O   UNL     1       4.375   7.071  15.609  0.00  0.00    +0.000 OA
BRANCH  17  19
ATOM     19  C   UNL     1       6.331   7.162  16.954  0.00  0.00    +0.000 C 
BRANCH  19  20
ATOM     20  C   UNL     1       7.457   6.127  17.070  0.00  0.00    +0.000 C 
BRANCH  20  21
ATOM     21  O   UNL     1       7.678   5.854  18.442  0.00  0.00    +0.000 OA
ATOM     22  H   UNL     1       7.679   6.687  18.946  0.00  0.00    +0.000 HD
ENDBRANCH  20  21
BRANCH  20  23
ATOM     23  C   UNL     1       7.056   4.834  16.313  0.00  0.00    +0.000 C 
BRANCH  23  25
ATOM     24  C   UNL     1       6.086   3.979  14.016  0.00  0.00    +0.000 C 
ATOM     25  C   UNL     1       7.057   4.828  14.785  0.00  0.00    +0.000 C 
ATOM     26  O   UNL     1       7.887   5.517  14.175  0.00  0.00    +0.000 OA
ENDBRANCH  23  25
ENDBRANCH  20  23
ENDBRANCH  19  20
ENDBRANCH  17  19
ENDBRANCH   1  17
TORSDOF 6
ENDMDL
MODEL 2
REMARK VINA RESULT:      -7.7      1.101      1.507
REMARK  Name = 
REMARK  8 active torsions:
REMARK  status: ('A' for Active; 'I' for Inactive)
REMARK    1  A    between atoms: C_1  and  C_2
REMARK    2  A    between atoms: C_2  and  C_4
REMARK    3  A    between atoms: C_4  and  C_5
REMARK    4  A    between atoms: C_5  and  O_6
REMARK    5  A    between atoms: C_5  and  C_7
REMARK    6  A    between atoms: C_7  and  C_8
REMARK    7  A    between atoms: C_8  and  C_10
REMARK    8  A    between atoms: C_14  and  C_15
REMARK                            x       y       z     vdW  Elec       q    Type
REMARK                         _______ _______ _______ _____ _____    ______ ____
ROOT
ATOM      1  C   UNL     1       4.060   5.917  17.628  0.00  0.00    +0.000 C 
ATOM      2  O   UNL     1       4.790   4.966  18.611  0.00  0.00    +0.000 OA
ATOM      3  C   UNL     1       4.895   3.826  19.361  0.00  0.00    +0.000 C 
ATOM      4  O   UNL     1       6.071   3.545  19.661  0.00  0.00    +0.000 OA
ATOM      5  C   UNL     1       3.779   2.745  19.857  0.00  0.00    +0.000 C 
ATOM      6  C   UNL     1       4.522   1.693  20.790  0.00  0.00    +0.000 C 
ATOM      7  C   UNL     1       2.563   3.039  20.800  0.00  0.00    +0.000 C 
ATOM      8  C   UNL     1       1.271   3.534  20.150  0.00  0.00    +0.000 C 
ATOM      9  C   UNL     1       1.127   5.023  20.442  0.00  0.00    +0.000 C 
ATOM     10  C   UNL     1       2.425   5.628  19.968  0.00  0.00    +0.000 C 
ATOM     11  C   UNL     1       2.418   6.956  19.337  0.00  0.00    +0.000 A 
ATOM     12  C   UNL     1       1.612   7.968  19.864  0.00  0.00    +0.000 A 
ATOM     13  C   UNL     1       1.428   9.137  19.152  0.00  0.00    +0.000 A 
ATOM     14  C   UNL     1       2.073   9.283  17.925  0.00  0.00    +0.000 A 
ATOM     15  C   UNL     1       2.933   8.284  17.436  0.00  0.00    +0.000 A 
ATOM     16  C   UNL     1       3.177   7.102  18.164  0.00  0.00    +0.000 A 
ENDROOT
BRANCH   1  17
ATOM     17  C   UNL     1       5.021   6.431  16.516  0.00  0.00    +0.000 C 
ATOM     18  O   UNL     1       5.725   7.443  16.756  0.00  0.00    +0.000 OA
BRANCH  17  19
ATOM     19  C   UNL     1       5.224   5.787  15.130  0.00  0.00    +0.000 C 
BRANCH  19  20
ATOM     20  C   UNL     1       6.533   5.125  14.680  0.00  0.00    +0.000 C 
BRANCH  20  21
ATOM     21  O   UNL     1       7.369   4.964  15.812  0.00  0.00    +0.000 OA
ATOM     22  H   UNL     1       8.172   4.475  15.560  0.00  0.00    +0.000 HD
ENDBRANCH  20  21
BRANCH  20  23
ATOM     23  C   UNL     1       6.225   3.752  14.028  0.00  0.00    +0.000 C 
BRANCH  23  25
ATOM     24  C   UNL     1       4.908   3.155  11.824  0.00  0.00    +0.000 C 
ATOM     25  C   UNL     1       6.154   3.642  12.506  0.00  0.00    +0.000 C 
ATOM     26  O   UNL     1       7.149   3.937  11.829  0.00  0.00    +0.000 OA
ENDBRANCH  23  25
ENDBRANCH  20  23
ENDBRANCH  19  20
ENDBRANCH  17  19
ENDBRANCH   1  17
TORSDOF 6
ENDMDL
MODEL 3
REMARK VINA RESULT:      -7.5      1.878      4.412
REMARK  Name = 
REMARK  8 active torsions:
REMARK  status: ('A' for Active; 'I' for Inactive)
REMARK    1  A    between atoms: C_1  and  C_2
REMARK    2  A    between atoms: C_2  and  C_4
REMARK    3  A    between atoms: C_4  and  C_5
REMARK    4  A    between atoms: C_5  and  O_6
REMARK    5  A    between atoms: C_5  and  C_7
REMARK    6  A    between atoms: C_7  and  C_8
REMARK    7  A    between atoms: C_8  and  C_10
REMARK    8  A    between atoms: C_14  and  C_15
REMARK                            x       y       z     vdW  Elec       q    Type
REMARK                         _______ _______ _______ _____ _____    ______ ____
ROOT
ATOM      1  C   UNL     1       4.206   6.315  17.657  0.00  0.00    +0.000 C 
ATOM      2  O   UNL     1       3.206   7.496  17.546  0.00  0.00    +0.000 OA
ATOM      3  C   UNL     1       2.422   8.488  18.069  0.00  0.00    +0.000 C 
ATOM      4  O   UNL     1       2.134   9.371  17.238  0.00  0.00    +0.000 OA
ATOM      5  C   UNL     1       1.871   8.757  19.580  0.00  0.00    +0.000 C 
ATOM      6  C   UNL     1       0.918  10.029  19.517  0.00  0.00    +0.000 C 
ATOM      7  C   UNL     1       0.916   7.820  20.395  0.00  0.00    +0.000 C 
ATOM      8  C   UNL     1       1.559   6.701  21.216  0.00  0.00    +0.000 C 
ATOM      9  C   UNL     1       1.312   5.379  20.498  0.00  0.00    +0.000 C 
ATOM     10  C   UNL     1       1.829   5.607  19.099  0.00  0.00    +0.000 C 
ATOM     11  C   UNL     1       2.502   4.510  18.387  0.00  0.00    +0.000 A 
ATOM     12  C   UNL     1       1.993   3.212  18.477  0.00  0.00    +0.000 A 
ATOM     13  C   UNL     1       2.739   2.150  18.003  0.00  0.00    +0.000 A 
ATOM     14  C   UNL     1       3.981   2.408  17.426  0.00  0.00    +0.000 A 
ATOM     15  C   UNL     1       4.453   3.725  17.283  0.00  0.00    +0.000 A 
ATOM     16  C   UNL     1       3.693   4.831  17.714  0.00  0.00    +0.000 A 
ENDROOT
BRANCH   1  17
ATOM     17  C   UNL     1       5.351   6.441  16.609  0.00  0.00    +0.000 C 
ATOM     18  O   UNL     1       6.367   7.114  16.913  0.00  0.00    +0.000 OA
BRANCH  17  19
ATOM     19  C   UNL     1       5.377   5.780  15.216  0.00  0.00    +0.000 C 
BRANCH  19  20
ATOM     20  C   UNL     1       6.593   5.038  14.646  0.00  0.00    +0.000 C 
BRANCH  20  21
ATOM     21  O   UNL     1       7.509   4.799  15.700  0.00  0.00    +0.000 OA
ATOM     22  H   UNL     1       8.094   5.569  15.806  0.00  0.00    +0.000 HD
ENDBRANCH  20  21
BRANCH  20  23
ATOM     23  C   UNL     1       6.134   3.702  14.007  0.00  0.00    +0.000 C 
BRANCH  23  25
ATOM     24  C   UNL     1       4.759   3.273  11.799  0.00  0.00    +0.000 C 
ATOM     25  C   UNL     1       6.058   3.585  12.485  0.00  0.00    +0.000 C 
ATOM     26  O   UNL     1       7.090   3.725  11.813  0.00  0.00    +0.000 OA
ENDBRANCH  23  25
ENDBRANCH  20  23
ENDBRANCH  19  20
ENDBRANCH  17  19
ENDBRANCH   1  17
TORSDOF 6
ENDMDL
MODEL 4
REMARK VINA RESULT:      -7.3      0.941      1.081
REMARK  Name = 
REMARK  8 active torsions:
REMARK  status: ('A' for Active; 'I' for Inactive)
REMARK    1  A    between atoms: C_1  and  C_2
REMARK    2  A    between atoms: C_2  and  C_4
REMARK    3  A    between atoms: C_4  and  C_5
REMARK    4  A    between atoms: C_5  and  O_6
REMARK    5  A    between atoms: C_5  and  C_7
REMARK    6  A    between atoms: C_7  and  C_8
REMARK    7  A    between atoms: C_8  and  C_10
REMARK    8  A    between atoms: C_14  and  C_15
REMARK                            x       y       z     vdW  Elec       q    Type
REMARK                         _______ _______ _______ _____ _____    ______ ____
ROOT
ATOM      1  C   UNL     1       3.893   6.051  17.664  0.00  0.00    +0.000 C 
ATOM      2  O   UNL     1       4.656   5.064  18.586  0.00  0.00    +0.000 OA
ATOM      3  C   UNL     1       4.786   3.898  19.290  0.00  0.00    +0.000 C 
ATOM      4  O   UNL     1       5.971   3.608  19.540  0.00  0.00    +0.000 OA
ATOM      5  C   UNL     1       3.688   2.797  19.782  0.00  0.00    +0.000 C 
ATOM      6  C   UNL     1       4.461   1.712  20.650  0.00  0.00    +0.000 C 
ATOM      7  C   UNL     1       2.503   3.054  20.774  0.00  0.00    +0.000 C 
ATOM      8  C   UNL     1       1.190   3.570  20.185  0.00  0.00    +0.000 C 
ATOM      9  C   UNL     1       1.055   5.048  20.537  0.00  0.00    +0.000 C 
ATOM     10  C   UNL     1       2.336   5.672  20.044  0.00  0.00    +0.000 C 
ATOM     11  C   UNL     1       2.308   7.022  19.463  0.00  0.00    +0.000 A 
ATOM     12  C   UNL     1       1.519   8.012  20.054  0.00  0.00    +0.000 A 
ATOM     13  C   UNL     1       1.311   9.207  19.392  0.00  0.00    +0.000 A 
ATOM     14  C   UNL     1       1.916   9.400  18.151  0.00  0.00    +0.000 A 
ATOM     15  C   UNL     1       2.760   8.421  17.597  0.00  0.00    +0.000 A 
ATOM     16  C   UNL     1       3.028   7.213  18.272  0.00  0.00    +0.000 A 
ENDROOT
BRANCH   1  17
ATOM     17  C   UNL     1       4.817   6.607  16.541  0.00  0.00    +0.000 C 
ATOM     18  O   UNL     1       4.302   7.316  15.640  0.00  0.00    +0.000 OA
BRANCH  17  19
ATOM     19  C   UNL     1       6.342   6.399  16.440  0.00  0.00    +0.000 C 
BRANCH  19  20
ATOM     20  C   UNL     1       6.996   5.107  15.933  0.00  0.00    +0.000 C 
BRANCH  20  21
ATOM     21  O   UNL     1       7.259   4.269  17.045  0.00  0.00    +0.000 OA
ATOM     22  H   UNL     1       6.419   3.948  17.419  0.00  0.00    +0.000 HD
ENDBRANCH  20  21
BRANCH  20  23
ATOM     23  C   UNL     1       6.047   4.402  14.930  0.00  0.00    +0.000 C 
BRANCH  23  25
ATOM     24  C   UNL     1       7.586   5.032  12.885  0.00  0.00    +0.000 C 
ATOM     25  C   UNL     1       6.508   4.180  13.490  0.00  0.00    +0.000 C 
ATOM     26  O   UNL     1       5.966   3.299  12.808  0.00  0.00    +0.000 OA
ENDBRANCH  23  25
ENDBRANCH  20  23
ENDBRANCH  19  20
ENDBRANCH  17  19
ENDBRANCH   1  17
TORSDOF 6
ENDMDL
MODEL 5
REMARK VINA RESULT:      -7.2      1.378      4.415
REMARK  Name = 
REMARK  8 active torsions:
REMARK  status: ('A' for Active; 'I' for Inactive)
REMARK    1  A    between atoms: C_1  and  C_2
REMARK    2  A    between atoms: C_2  and  C_4
REMARK    3  A    between atoms: C_4  and  C_5
REMARK    4  A    between atoms: C_5  and  O_6
REMARK    5  A    between atoms: C_5  and  C_7
REMARK    6  A    between atoms: C_7  and  C_8
REMARK    7  A    between atoms: C_8  and  C_10
REMARK    8  A    between atoms: C_14  and  C_15
REMARK                            x       y       z     vdW  Elec       q    Type
REMARK                         _______ _______ _______ _____ _____    ______ ____
ROOT
ATOM      1  C   UNL     1       4.196   5.581  19.201  0.00  0.00    +0.000 C 
ATOM      2  O   UNL     1       3.583   6.612  18.218  0.00  0.00    +0.000 OA
ATOM      3  C   UNL     1       3.046   7.830  17.900  0.00  0.00    +0.000 C 
ATOM      4  O   UNL     1       3.118   8.093  16.684  0.00  0.00    +0.000 OA
ATOM      5  C   UNL     1       2.409   9.013  18.825  0.00  0.00    +0.000 C 
ATOM      6  C   UNL     1       1.860  10.138  17.843  0.00  0.00    +0.000 C 
ATOM      7  C   UNL     1       1.139   8.891  19.735  0.00  0.00    +0.000 C 
ATOM      8  C   UNL     1       1.341   8.379  21.161  0.00  0.00    +0.000 C 
ATOM      9  C   UNL     1       0.829   6.944  21.232  0.00  0.00    +0.000 C 
ATOM     10  C   UNL     1       1.556   6.229  20.121  0.00  0.00    +0.000 C 
ATOM     11  C   UNL     1       1.983   4.834  20.315  0.00  0.00    +0.000 A 
ATOM     12  C   UNL     1       1.128   3.933  20.952  0.00  0.00    +0.000 A 
ATOM     13  C   UNL     1       1.603   2.694  21.336  0.00  0.00    +0.000 A 
ATOM     14  C   UNL     1       2.930   2.369  21.057  0.00  0.00    +0.000 A 
ATOM     15  C   UNL     1       3.762   3.261  20.358  0.00  0.00    +0.000 A 
ATOM     16  C   UNL     1       3.289   4.512  19.911  0.00  0.00    +0.000 A 
ENDROOT
BRANCH   1  17
ATOM     17  C   UNL     1       5.451   4.892  18.590  0.00  0.00    +0.000 C 
ATOM     18  O   UNL     1       6.496   4.830  19.284  0.00  0.00    +0.000 OA
BRANCH  17  19
ATOM     19  C   UNL     1       5.531   4.231  17.199  0.00  0.00    +0.000 C 
BRANCH  19  20
ATOM     20  C   UNL     1       6.396   4.763  16.049  0.00  0.00    +0.000 C 
BRANCH  20  21
ATOM     21  O   UNL     1       7.757   4.682  16.434  0.00  0.00    +0.000 OA
ATOM     22  H   UNL     1       8.234   5.470  16.119  0.00  0.00    +0.000 HD
ENDBRANCH  20  21
BRANCH  20  23
ATOM     23  C   UNL     1       6.138   3.924  14.771  0.00  0.00    +0.000 C 
BRANCH  23  25
ATOM     24  C   UNL     1       6.483   3.613  12.177  0.00  0.00    +0.000 C 
ATOM     25  C   UNL     1       6.789   4.341  13.454  0.00  0.00    +0.000 C 
ATOM     26  O   UNL     1       7.599   5.279  13.447  0.00  0.00    +0.000 OA
ENDBRANCH  23  25
ENDBRANCH  20  23
ENDBRANCH  19  20
ENDBRANCH  17  19
ENDBRANCH   1  17
TORSDOF 6
ENDMDL
MODEL 6
REMARK VINA RESULT:      -7.1      1.533      4.160
REMARK  Name = 
REMARK  8 active torsions:
REMARK  status: ('A' for Active; 'I' for Inactive)
REMARK    1  A    between atoms: C_1  and  C_2
REMARK    2  A    between atoms: C_2  and  C_4
REMARK    3  A    between atoms: C_4  and  C_5
REMARK    4  A    between atoms: C_5  and  O_6
REMARK    5  A    between atoms: C_5  and  C_7
REMARK    6  A    between atoms: C_7  and  C_8
REMARK    7  A    between atoms: C_8  and  C_10
REMARK    8  A    between atoms: C_14  and  C_15
REMARK                            x       y       z     vdW  Elec       q    Type
REMARK                         _______ _______ _______ _____ _____    ______ ____
ROOT
ATOM      1  C   UNL     1       4.091   6.347  17.702  0.00  0.00    +0.000 C 
ATOM      2  O   UNL     1       3.129   7.561  17.625  0.00  0.00    +0.000 OA
ATOM      3  C   UNL     1       2.375   8.562  18.174  0.00  0.00    +0.000 C 
ATOM      4  O   UNL     1       2.117   9.476  17.368  0.00  0.00    +0.000 OA
ATOM      5  C   UNL     1       1.832   8.806  19.692  0.00  0.00    +0.000 C 
ATOM      6  C   UNL     1       0.919  10.109  19.665  0.00  0.00    +0.000 C 
ATOM      7  C   UNL     1       0.847   7.877  20.481  0.00  0.00    +0.000 C 
ATOM      8  C   UNL     1       1.454   6.716  21.270  0.00  0.00    +0.000 C 
ATOM      9  C   UNL     1       1.167   5.423  20.516  0.00  0.00    +0.000 C 
ATOM     10  C   UNL     1       1.691   5.673  19.124  0.00  0.00    +0.000 C 
ATOM     11  C   UNL     1       2.331   4.576  18.382  0.00  0.00    +0.000 A 
ATOM     12  C   UNL     1       1.781   3.293  18.436  0.00  0.00    +0.000 A 
ATOM     13  C   UNL     1       2.494   2.222  17.933  0.00  0.00    +0.000 A 
ATOM     14  C   UNL     1       3.744   2.457  17.363  0.00  0.00    +0.000 A 
ATOM     15  C   UNL     1       4.258   3.761  17.257  0.00  0.00    +0.000 A 
ATOM     16  C   UNL     1       3.532   4.878  17.718  0.00  0.00    +0.000 A 
ENDROOT
BRANCH   1  17
ATOM     17  C   UNL     1       5.240   6.466  16.659  0.00  0.00    +0.000 C 
ATOM     18  O   UNL     1       4.941   6.734  15.469  0.00  0.00    +0.000 OA
BRANCH  17  19
ATOM     19  C   UNL     1       6.747   6.320  16.954  0.00  0.00    +0.000 C 
BRANCH  19  20
ATOM     20  C   UNL     1       7.513   4.994  16.849  0.00  0.00    +0.000 C 
BRANCH  20  21
ATOM     21  O   UNL     1       7.437   4.330  18.098  0.00  0.00    +0.000 OA
ATOM     22  H   UNL     1       8.008   4.781  18.744  0.00  0.00    +0.000 HD
ENDBRANCH  20  21
BRANCH  20  23
ATOM     23  C   UNL     1       6.892   4.122  15.727  0.00  0.00    +0.000 C 
BRANCH  23  25
ATOM     24  C   UNL     1       6.246   3.901  13.181  0.00  0.00    +0.000 C 
ATOM     25  C   UNL     1       7.056   4.547  14.268  0.00  0.00    +0.000 C 
ATOM     26  O   UNL     1       7.887   5.419  13.980  0.00  0.00    +0.000 OA
ENDBRANCH  23  25
ENDBRANCH  20  23
ENDBRANCH  19  20
ENDBRANCH  17  19
ENDBRANCH   1  17
TORSDOF 6
ENDMDL
MODEL 7
REMARK VINA RESULT:      -7.0      2.856      6.151
REMARK  Name = 
REMARK  8 active torsions:
REMARK  status: ('A' for Active; 'I' for Inactive)
REMARK    1  A    between atoms: C_1  and  C_2
REMARK    2  A    between atoms: C_2  and  C_4
REMARK    3  A    between atoms: C_4  and  C_5
REMARK    4  A    between atoms: C_5  and  O_6
REMARK    5  A    between atoms: C_5  and  C_7
REMARK    6  A    between atoms: C_7  and  C_8
REMARK    7  A    between atoms: C_8  and  C_10
REMARK    8  A    between atoms: C_14  and  C_15
REMARK                            x       y       z     vdW  Elec       q    Type
REMARK                         _______ _______ _______ _____ _____    ______ ____
ROOT
ATOM      1  C   UNL     1       1.606   6.208  19.878  0.00  0.00    +0.000 C 
ATOM      2  O   UNL     1       1.402   7.337  20.922  0.00  0.00    +0.000 OA
ATOM      3  C   UNL     1       0.814   8.482  21.387  0.00  0.00    +0.000 C 
ATOM      4  O   UNL     1       0.926   8.621  22.620  0.00  0.00    +0.000 OA
ATOM      5  C   UNL     1      -0.061   9.637  20.638  0.00  0.00    +0.000 C 
ATOM      6  C   UNL     1      -0.373  10.766  21.714  0.00  0.00    +0.000 C 
ATOM      7  C   UNL     1       0.441  10.575  19.488  0.00  0.00    +0.000 C 
ATOM      8  C   UNL     1       0.319  10.060  18.054  0.00  0.00    +0.000 C 
ATOM      9  C   UNL     1       1.710   9.667  17.567  0.00  0.00    +0.000 C 
ATOM     10  C   UNL     1       2.220   8.710  18.615  0.00  0.00    +0.000 C 
ATOM     11  C   UNL     1       3.045   7.562  18.207  0.00  0.00    +0.000 A 
ATOM     12  C   UNL     1       4.027   7.729  17.228  0.00  0.00    +0.000 A 
ATOM     13  C   UNL     1       4.645   6.621  16.682  0.00  0.00    +0.000 A 
ATOM     14  C   UNL     1       4.281   5.356  17.143  0.00  0.00    +0.000 A 
ATOM     15  C   UNL     1       3.338   5.205  18.174  0.00  0.00    +0.000 A 
ATOM     16  C   UNL     1       2.727   6.320  18.782  0.00  0.00    +0.000 A 
ENDROOT
BRANCH   1  17
ATOM     17  C   UNL     1       1.668   4.810  20.560  0.00  0.00    +0.000 C 
ATOM     18  O   UNL     1       2.584   4.591  21.392  0.00  0.00    +0.000 OA
BRANCH  17  19
ATOM     19  C   UNL     1       0.675   3.652  20.338  0.00  0.00    +0.000 C 
BRANCH  19  20
ATOM     20  C   UNL     1       0.814   2.610  19.220  0.00  0.00    +0.000 C 
BRANCH  20  21
ATOM     21  O   UNL     1       1.088   3.287  18.006  0.00  0.00    +0.000 OA
ATOM     22  H   UNL     1       1.926   3.777  18.085  0.00  0.00    +0.000 HD
ENDBRANCH  20  21
BRANCH  20  23
ATOM     23  C   UNL     1       1.959   1.624  19.566  0.00  0.00    +0.000 C 
BRANCH  23  25
ATOM     24  C   UNL     1       4.513   2.215  19.842  0.00  0.00    +0.000 C 
ATOM     25  C   UNL     1       3.348   1.845  18.969  0.00  0.00    +0.000 C 
ATOM     26  O   UNL     1       3.507   1.741  17.745  0.00  0.00    +0.000 OA
ENDBRANCH  23  25
ENDBRANCH  20  23
ENDBRANCH  19  20
ENDBRANCH  17  19
ENDBRANCH   1  17
TORSDOF 6
ENDMDL
MODEL 8
REMARK VINA RESULT:      -6.9      1.877      4.703
REMARK  Name = 
REMARK  8 active torsions:
REMARK  status: ('A' for Active; 'I' for Inactive)
REMARK    1  A    between atoms: C_1  and  C_2
REMARK    2  A    between atoms: C_2  and  C_4
REMARK    3  A    between atoms: C_4  and  C_5
REMARK    4  A    between atoms: C_5  and  O_6
REMARK    5  A    between atoms: C_5  and  C_7
REMARK    6  A    between atoms: C_7  and  C_8
REMARK    7  A    between atoms: C_8  and  C_10
REMARK    8  A    between atoms: C_14  and  C_15
REMARK                            x       y       z     vdW  Elec       q    Type
REMARK                         _______ _______ _______ _____ _____    ______ ____
ROOT
ATOM      1  C   UNL     1       3.775   5.835  18.785  0.00  0.00    +0.000 C 
ATOM      2  O   UNL     1       3.051   6.994  18.052  0.00  0.00    +0.000 OA
ATOM      3  C   UNL     1       2.524   8.255  17.977  0.00  0.00    +0.000 C 
ATOM      4  O   UNL     1       2.400   8.663  16.807  0.00  0.00    +0.000 OA
ATOM      5  C   UNL     1       2.109   9.330  19.131  0.00  0.00    +0.000 C 
ATOM      6  C   UNL     1       1.453  10.581  18.398  0.00  0.00    +0.000 C 
ATOM      7  C   UNL     1       1.010   9.129  20.228  0.00  0.00    +0.000 C 
ATOM      8  C   UNL     1       1.428   8.441  21.528  0.00  0.00    +0.000 C 
ATOM      9  C   UNL     1       0.870   7.022  21.519  0.00  0.00    +0.000 C 
ATOM     10  C   UNL     1       1.364   6.430  20.222  0.00  0.00    +0.000 C 
ATOM     11  C   UNL     1       1.752   5.013  20.174  0.00  0.00    +0.000 A 
ATOM     12  C   UNL     1       0.978   4.061  20.841  0.00  0.00    +0.000 A 
ATOM     13  C   UNL     1       1.455   2.773  20.989  0.00  0.00    +0.000 A 
ATOM     14  C   UNL     1       2.698   2.452  20.446  0.00  0.00    +0.000 A 
ATOM     15  C   UNL     1       3.438   3.402  19.721  0.00  0.00    +0.000 A 
ATOM     16  C   UNL     1       2.955   4.709  19.513  0.00  0.00    +0.000 A 
ENDROOT
BRANCH   1  17
ATOM     17  C   UNL     1       4.874   5.195  17.888  0.00  0.00    +0.000 C 
ATOM     18  O   UNL     1       4.711   5.208  16.642  0.00  0.00    +0.000 OA
BRANCH  17  19
ATOM     19  C   UNL     1       6.190   4.563  18.384  0.00  0.00    +0.000 C 
BRANCH  19  20
ATOM     20  C   UNL     1       7.584   5.078  18.000  0.00  0.00    +0.000 C 
BRANCH  20  21
ATOM     21  O   UNL     1       7.674   5.120  16.587  0.00  0.00    +0.000 OA
ATOM     22  H   UNL     1       8.164   5.915  16.313  0.00  0.00    +0.000 HD
ENDBRANCH  20  21
BRANCH  20  23
ATOM     23  C   UNL     1       7.801   6.489  18.604  0.00  0.00    +0.000 C 
BRANCH  23  25
ATOM     24  C   UNL     1       8.351   9.004  18.038  0.00  0.00    +0.000 C 
ATOM     25  C   UNL     1       7.643   7.720  17.713  0.00  0.00    +0.000 C 
ATOM     26  O   UNL     1       6.901   7.662  16.723  0.00  0.00    +0.000 OA
ENDBRANCH  23  25
ENDBRANCH  20  23
ENDBRANCH  19  20
ENDBRANCH  17  19
ENDBRANCH   1  17
TORSDOF 6
ENDMDL
MODEL 9
REMARK VINA RESULT:      -6.8      2.265      4.984
REMARK  Name = 
REMARK  8 active torsions:
REMARK  status: ('A' for Active; 'I' for Inactive)
REMARK    1  A    between atoms: C_1  and  C_2
REMARK    2  A    between atoms: C_2  and  C_4
REMARK    3  A    between atoms: C_4  and  C_5
REMARK    4  A    between atoms: C_5  and  O_6
REMARK    5  A    between atoms: C_5  and  C_7
REMARK    6  A    between atoms: C_7  and  C_8
REMARK    7  A    between atoms: C_8  and  C_10
REMARK    8  A    between atoms: C_14  and  C_15
REMARK                            x       y       z     vdW  Elec       q    Type
REMARK                         _______ _______ _______ _____ _____    ______ ____
ROOT
ATOM      1  C   UNL     1       4.313   6.410  17.685  0.00  0.00    +0.000 C 
ATOM      2  O   UNL     1       3.277   7.563  17.619  0.00  0.00    +0.000 OA
ATOM      3  C   UNL     1       2.443   8.493  18.179  0.00  0.00    +0.000 C 
ATOM      4  O   UNL     1       2.152   9.419  17.398  0.00  0.00    +0.000 OA
ATOM      5  C   UNL     1       1.838   8.643  19.685  0.00  0.00    +0.000 C 
ATOM      6  C   UNL     1       0.844   9.885  19.674  0.00  0.00    +0.000 C 
ATOM      7  C   UNL     1       0.891   7.624  20.406  0.00  0.00    +0.000 C 
ATOM      8  C   UNL     1       1.546   6.474  21.172  0.00  0.00    +0.000 C 
ATOM      9  C   UNL     1       1.367   5.195  20.362  0.00  0.00    +0.000 C 
ATOM     10  C   UNL     1       1.917   5.532  18.999  0.00  0.00    +0.000 C 
ATOM     11  C   UNL     1       2.650   4.507  18.240  0.00  0.00    +0.000 A 
ATOM     12  C   UNL     1       2.183   3.190  18.228  0.00  0.00    +0.000 A 
ATOM     13  C   UNL     1       2.978   2.187  17.711  0.00  0.00    +0.000 A 
ATOM     14  C   UNL     1       4.228   2.522  17.193  0.00  0.00    +0.000 A 
ATOM     15  C   UNL     1       4.659   3.859  17.151  0.00  0.00    +0.000 A 
ATOM     16  C   UNL     1       3.849   4.909  17.628  0.00  0.00    +0.000 A 
ENDROOT
BRANCH   1  17
ATOM     17  C   UNL     1       5.484   6.642  16.686  0.00  0.00    +0.000 C 
ATOM     18  O   UNL     1       5.215   6.740  15.462  0.00  0.00    +0.000 OA
BRANCH  17  19
ATOM     19  C   UNL     1       6.971   6.801  17.060  0.00  0.00    +0.000 C 
BRANCH  19  20
ATOM     20  C   UNL     1       7.477   7.725  18.176  0.00  0.00    +0.000 C 
BRANCH  20  21
ATOM     21  O   UNL     1       8.493   7.048  18.894  0.00  0.00    +0.000 OA
ATOM     22  H   UNL     1       9.363   7.270  18.518  0.00  0.00    +0.000 HD
ENDBRANCH  20  21
BRANCH  20  23
ATOM     23  C   UNL     1       8.025   9.037  17.558  0.00  0.00    +0.000 C 
BRANCH  23  25
ATOM     24  C   UNL     1       9.127  11.399  17.954  0.00  0.00    +0.000 C 
ATOM     25  C   UNL     1       8.804  10.014  18.437  0.00  0.00    +0.000 C 
ATOM     26  O   UNL     1       9.194   9.647  19.554  0.00  0.00    +0.000 OA
ENDBRANCH  23  25
ENDBRANCH  20  23
ENDBRANCH  19  20
ENDBRANCH  17  19
ENDBRANCH   1  17
TORSDOF 6
ENDMDL
