MODEL 1
REMARK VINA RESULT:      -7.2      0.000      0.000
REMARK  Name = 
REMARK  6 active torsions:
REMARK  status: ('A' for Active; 'I' for Inactive)
REMARK    1  A    between atoms: C_1  and  C_2
REMARK    2  A    between atoms: C_2  and  C_3
REMARK    3  A    between atoms: C_6  and  S_7
REMARK    4  A    between atoms: S_7  and  C_8
REMARK    5  A    between atoms: C_8  and  C_9
REMARK    6  A    between atoms: C_14  and  C_15
REMARK                            x       y       z     vdW  Elec       q    Type
REMARK                         _______ _______ _______ _____ _____    ______ ____
ROOT
ATOM      1  S   UNL     1       5.374   5.917  17.377  0.00  0.00    +0.000 S 
ENDROOT
BRANCH   1   5
ATOM      2  C   UNL     1       6.598   4.537  14.048  0.00  0.00    +0.000 A 
ATOM      3  N   UNL     1       7.678   5.268  14.359  0.00  0.00    +0.000 NA
ATOM      4  N   UNL     1       7.316   5.779  15.547  0.00  0.00    +0.000 N 
ATOM      5  C   UNL     1       6.073   5.364  15.904  0.00  0.00    +0.000 A 
ATOM      6  N   UNL     1       5.582   4.573  14.982  0.00  0.00    +0.000 NA
ATOM      7  H   UNL     1       7.941   6.400  16.045  0.00  0.00    +0.000 HD
BRANCH   2   9
ATOM      8  C   UNL     1       5.067   3.429  12.422  0.00  0.00    +0.000 C 
ATOM      9  C   UNL     1       6.505   3.785  12.770  0.00  0.00    +0.000 C 
ENDBRANCH   2   9
ENDBRANCH   1   5
BRANCH   1  10
ATOM     10  C   UNL     1       5.282   4.391  18.353  0.00  0.00    +0.000 C 
BRANCH  10  11
ATOM     11  C   UNL     1       3.852   3.889  18.446  0.00  0.00    +0.000 A 
ATOM     12  C   UNL     1       2.845   4.539  17.709  0.00  0.00    +0.000 A 
ATOM     13  C   UNL     1       1.516   4.107  17.768  0.00  0.00    +0.000 A 
ATOM     14  C   UNL     1       1.167   3.025  18.569  0.00  0.00    +0.000 A 
ATOM     15  C   UNL     1       2.146   2.379  19.323  0.00  0.00    +0.000 A 
ATOM     16  C   UNL     1       3.484   2.806  19.273  0.00  0.00    +0.000 A 
BRANCH  16  17
ATOM     17  C   UNL     1       4.444   2.116  20.086  0.00  0.00    +0.000 C 
ATOM     18  N   UNL     1       5.225   1.558  20.741  0.00  0.00    +0.000 NA
ENDBRANCH  16  17
ENDBRANCH  10  11
ENDBRANCH   1  10
TORSDOF 5
ENDMDL
MODEL 2
REMARK VINA RESULT:      -7.0      1.982      2.275
REMARK  Name = 
REMARK  6 active torsions:
REMARK  status: ('A' for Active; 'I' for Inactive)
REMARK    1  A    between atoms: C_1  and  C_2
REMARK    2  A    between atoms: C_2  and  C_3
REMARK    3  A    between atoms: C_6  and  S_7
REMARK    4  A    between atoms: S_7  and  C_8
REMARK    5  A    between atoms: C_8  and  C_9
REMARK    6  A    between atoms: C_14  and  C_15
REMARK                            x       y       z     vdW  Elec       q    Type
REMARK                         _______ _______ _______ _____ _____    ______ ____
ROOT
ATOM      1  S   UNL     1       5.759   4.677  17.506  0.00  0.00    +0.000 S 
ENDROOT
BRANCH   1   5
ATOM      2  C   UNL     1       6.788   4.440  13.850  0.00  0.00    +0.000 A 
ATOM      3  N   UNL     1       7.671   5.373  14.236  0.00  0.00    +0.000 NA
ATOM      4  N   UNL     1       7.370   5.497  15.538  0.00  0.00    +0.000 N 
ATOM      5  C   UNL     1       6.349   4.672  15.889  0.00  0.00    +0.000 A 
ATOM      6  N   UNL     1       5.951   3.983  14.847  0.00  0.00    +0.000 NA
ATOM      7  H   UNL     1       7.876   6.154  16.117  0.00  0.00    +0.000 HD
BRANCH   2   9
ATOM      8  C   UNL     1       5.446   3.166  12.180  0.00  0.00    +0.000 C 
ATOM      9  C   UNL     1       6.706   3.978  12.440  0.00  0.00    +0.000 C 
ENDBRANCH   2   9
ENDBRANCH   1   5
BRANCH   1  10
ATOM     10  C   UNL     1       4.079   5.329  17.298  0.00  0.00    +0.000 C 
BRANCH  10  11
ATOM     11  C   UNL     1       3.055   4.415  17.949  0.00  0.00    +0.000 A 
ATOM     12  C   UNL     1       2.927   3.090  17.493  0.00  0.00    +0.000 A 
ATOM     13  C   UNL     1       1.996   2.217  18.065  0.00  0.00    +0.000 A 
ATOM     14  C   UNL     1       1.172   2.653  19.097  0.00  0.00    +0.000 A 
ATOM     15  C   UNL     1       1.267   3.969  19.550  0.00  0.00    +0.000 A 
ATOM     16  C   UNL     1       2.198   4.854  18.980  0.00  0.00    +0.000 A 
BRANCH  16  17
ATOM     17  C   UNL     1       2.238   6.201  19.473  0.00  0.00    +0.000 C 
ATOM     18  N   UNL     1       2.275   7.292  19.873  0.00  0.00    +0.000 NA
ENDBRANCH  16  17
ENDBRANCH  10  11
ENDBRANCH   1  10
TORSDOF 5
ENDMDL
MODEL 3
REMARK VINA RESULT:      -6.8      0.997      1.033
REMARK  Name = 
REMARK  6 active torsions:
REMARK  status: ('A' for Active; 'I' for Inactive)
REMARK    1  A    between atoms: C_1  and  C_2
REMARK    2  A    between atoms: C_2  and  C_3
REMARK    3  A    between atoms: C_6  and  S_7
REMARK    4  A    between atoms: S_7  and  C_8
REMARK    5  A    between atoms: C_8  and  C_9
REMARK    6  A    between atoms: C_14  and  C_15
REMARK                            x       y       z     vdW  Elec       q    Type
REMARK                         _______ _______ _______ _____ _____    ______ ____
ROOT
ATOM      1  S   UNL     1       5.603   4.614  17.790  0.00  0.00    +0.000 S 
ENDROOT
BRANCH   1   5
ATOM      2  C   UNL     1       6.682   4.371  14.148  0.00  0.00    +0.000 A 
ATOM      3  N   UNL     1       7.513   5.353  14.527  0.00  0.00    +0.000 NA
ATOM      4  N   UNL     1       7.192   5.482  15.825  0.00  0.00    +0.000 N 
ATOM      5  C   UNL     1       6.210   4.613  16.179  0.00  0.00    +0.000 A 
ATOM      6  N   UNL     1       5.859   3.888  15.145  0.00  0.00    +0.000 NA
ATOM      7  H   UNL     1       7.658   6.174  16.398  0.00  0.00    +0.000 HD
BRANCH   2   9
ATOM      8  C   UNL     1       5.264   3.347  12.372  0.00  0.00    +0.000 C 
ATOM      9  C   UNL     1       6.638   3.882  12.746  0.00  0.00    +0.000 C 
ENDBRANCH   2   9
ENDBRANCH   1   5
BRANCH   1  10
ATOM     10  C   UNL     1       4.454   3.210  17.767  0.00  0.00    +0.000 C 
BRANCH  10  11
ATOM     11  C   UNL     1       3.307   3.429  18.738  0.00  0.00    +0.000 A 
ATOM     12  C   UNL     1       2.211   4.217  18.342  0.00  0.00    +0.000 A 
ATOM     13  C   UNL     1       1.135   4.443  19.207  0.00  0.00    +0.000 A 
ATOM     14  C   UNL     1       1.138   3.892  20.484  0.00  0.00    +0.000 A 
ATOM     15  C   UNL     1       2.223   3.125  20.904  0.00  0.00    +0.000 A 
ATOM     16  C   UNL     1       3.310   2.894  20.044  0.00  0.00    +0.000 A 
BRANCH  16  17
ATOM     17  C   UNL     1       4.408   2.113  20.537  0.00  0.00    +0.000 C 
ATOM     18  N   UNL     1       5.296   1.476  20.933  0.00  0.00    +0.000 NA
ENDBRANCH  16  17
ENDBRANCH  10  11
ENDBRANCH   1  10
TORSDOF 5
ENDMDL
MODEL 4
REMARK VINA RESULT:      -6.7      1.541      1.658
REMARK  Name = 
REMARK  6 active torsions:
REMARK  status: ('A' for Active; 'I' for Inactive)
REMARK    1  A    between atoms: C_1  and  C_2
REMARK    2  A    between atoms: C_2  and  C_3
REMARK    3  A    between atoms: C_6  and  S_7
REMARK    4  A    between atoms: S_7  and  C_8
REMARK    5  A    between atoms: C_8  and  C_9
REMARK    6  A    between atoms: C_14  and  C_15
REMARK                            x       y       z     vdW  Elec       q    Type
REMARK                         _______ _______ _______ _____ _____    ______ ____
ROOT
ATOM      1  S   UNL     1       5.648   4.898  17.470  0.00  0.00    +0.000 S 
ENDROOT
BRANCH   1   5
ATOM      2  C   UNL     1       6.780   4.408  13.869  0.00  0.00    +0.000 A 
ATOM      3  N   UNL     1       7.619   5.400  14.199  0.00  0.00    +0.000 NA
ATOM      4  N   UNL     1       7.280   5.616  15.480  0.00  0.00    +0.000 N 
ATOM      5  C   UNL     1       6.280   4.785  15.872  0.00  0.00    +0.000 A 
ATOM      6  N   UNL     1       5.934   4.001  14.881  0.00  0.00    +0.000 NA
ATOM      7  H   UNL     1       7.748   6.336  16.015  0.00  0.00    +0.000 HD
BRANCH   2   9
ATOM      8  C   UNL     1       5.375   3.290  12.140  0.00  0.00    +0.000 C 
ATOM      9  C   UNL     1       6.750   3.831  12.500  0.00  0.00    +0.000 C 
ENDBRANCH   2   9
ENDBRANCH   1   5
BRANCH   1  10
ATOM     10  C   UNL     1       3.861   4.776  17.184  0.00  0.00    +0.000 C 
BRANCH  10  11
ATOM     11  C   UNL     1       3.096   4.806  18.496  0.00  0.00    +0.000 A 
ATOM     12  C   UNL     1       2.677   6.044  19.019  0.00  0.00    +0.000 A 
ATOM     13  C   UNL     1       1.971   6.115  20.224  0.00  0.00    +0.000 A 
ATOM     14  C   UNL     1       1.677   4.954  20.931  0.00  0.00    +0.000 A 
ATOM     15  C   UNL     1       2.100   3.719  20.441  0.00  0.00    +0.000 A 
ATOM     16  C   UNL     1       2.812   3.637  19.232  0.00  0.00    +0.000 A 
BRANCH  16  17
ATOM     17  C   UNL     1       3.238   2.342  18.786  0.00  0.00    +0.000 C 
ATOM     18  N   UNL     1       3.586   1.291  18.430  0.00  0.00    +0.000 NA
ENDBRANCH  16  17
ENDBRANCH  10  11
ENDBRANCH   1  10
TORSDOF 5
ENDMDL
MODEL 5
REMARK VINA RESULT:      -6.7      2.081      2.650
REMARK  Name = 
REMARK  6 active torsions:
REMARK  status: ('A' for Active; 'I' for Inactive)
REMARK    1  A    between atoms: C_1  and  C_2
REMARK    2  A    between atoms: C_2  and  C_3
REMARK    3  A    between atoms: C_6  and  S_7
REMARK    4  A    between atoms: S_7  and  C_8
REMARK    5  A    between atoms: C_8  and  C_9
REMARK    6  A    between atoms: C_14  and  C_15
REMARK                            x       y       z     vdW  Elec       q    Type
REMARK                         _______ _______ _______ _____ _____    ______ ____
ROOT
ATOM      1  S   UNL     1       6.612   4.496  17.229  0.00  0.00    +0.000 S 
ENDROOT
BRANCH   1   5
ATOM      2  C   UNL     1       6.953   4.447  13.439  0.00  0.00    +0.000 A 
ATOM      3  N   UNL     1       7.737   5.506  13.686  0.00  0.00    +0.000 NA
ATOM      4  N   UNL     1       7.673   5.573  15.026  0.00  0.00    +0.000 N 
ATOM      5  C   UNL     1       6.878   4.594  15.531  0.00  0.00    +0.000 A 
ATOM      6  N   UNL     1       6.402   3.857  14.558  0.00  0.00    +0.000 NA
ATOM      7  H   UNL     1       8.171   6.300  15.523  0.00  0.00    +0.000 HD
BRANCH   2   9
ATOM      8  C   UNL     1       5.968   2.640  12.032  0.00  0.00    +0.000 C 
ATOM      9  C   UNL     1       6.677   3.985  12.053  0.00  0.00    +0.000 C 
ENDBRANCH   2   9
ENDBRANCH   1   5
BRANCH   1  10
ATOM     10  C   UNL     1       5.172   5.577  17.454  0.00  0.00    +0.000 C 
BRANCH  10  11
ATOM     11  C   UNL     1       3.910   4.763  17.683  0.00  0.00    +0.000 A 
ATOM     12  C   UNL     1       3.955   3.366  17.526  0.00  0.00    +0.000 A 
ATOM     13  C   UNL     1       2.815   2.581  17.727  0.00  0.00    +0.000 A 
ATOM     14  C   UNL     1       1.610   3.177  18.081  0.00  0.00    +0.000 A 
ATOM     15  C   UNL     1       1.539   4.563  18.223  0.00  0.00    +0.000 A 
ATOM     16  C   UNL     1       2.677   5.361  18.021  0.00  0.00    +0.000 A 
BRANCH  16  17
ATOM     17  C   UNL     1       2.540   6.782  18.161  0.00  0.00    +0.000 C 
ATOM     18  N   UNL     1       2.432   7.933  18.278  0.00  0.00    +0.000 NA
ENDBRANCH  16  17
ENDBRANCH  10  11
ENDBRANCH   1  10
TORSDOF 5
ENDMDL
MODEL 6
REMARK VINA RESULT:      -6.7      2.219      2.832
REMARK  Name = 
REMARK  6 active torsions:
REMARK  status: ('A' for Active; 'I' for Inactive)
REMARK    1  A    between atoms: C_1  and  C_2
REMARK    2  A    between atoms: C_2  and  C_3
REMARK    3  A    between atoms: C_6  and  S_7
REMARK    4  A    between atoms: S_7  and  C_8
REMARK    5  A    between atoms: C_8  and  C_9
REMARK    6  A    between atoms: C_14  and  C_15
REMARK                            x       y       z     vdW  Elec       q    Type
REMARK                         _______ _______ _______ _____ _____    ______ ____
ROOT
ATOM      1  S   UNL     1       6.278   4.746  18.199  0.00  0.00    +0.000 S 
ENDROOT
BRANCH   1   5
ATOM      2  C   UNL     1       6.498   4.250  14.432  0.00  0.00    +0.000 A 
ATOM      3  N   UNL     1       7.307   5.315  14.531  0.00  0.00    +0.000 NA
ATOM      4  N   UNL     1       7.286   5.539  15.855  0.00  0.00    +0.000 N 
ATOM      5  C   UNL     1       6.491   4.641  16.494  0.00  0.00    +0.000 A 
ATOM      6  N   UNL     1       5.973   3.805  15.628  0.00  0.00    +0.000 NA
ATOM      7  H   UNL     1       7.812   6.308  16.249  0.00  0.00    +0.000 HD
BRANCH   2   9
ATOM      8  C   UNL     1       7.119   4.097  12.023  0.00  0.00    +0.000 C 
ATOM      9  C   UNL     1       6.171   3.637  13.119  0.00  0.00    +0.000 C 
ENDBRANCH   2   9
ENDBRANCH   1   5
BRANCH   1  10
ATOM     10  C   UNL     1       4.702   5.636  18.333  0.00  0.00    +0.000 C 
BRANCH  10  11
ATOM     11  C   UNL     1       3.747   4.915  19.268  0.00  0.00    +0.000 A 
ATOM     12  C   UNL     1       3.957   3.552  19.549  0.00  0.00    +0.000 A 
ATOM     13  C   UNL     1       3.099   2.852  20.404  0.00  0.00    +0.000 A 
ATOM     14  C   UNL     1       2.014   3.497  20.987  0.00  0.00    +0.000 A 
ATOM     15  C   UNL     1       1.776   4.842  20.706  0.00  0.00    +0.000 A 
ATOM     16  C   UNL     1       2.630   5.554  19.847  0.00  0.00    +0.000 A 
BRANCH  16  17
ATOM     17  C   UNL     1       2.325   6.930  19.579  0.00  0.00    +0.000 C 
ATOM     18  N   UNL     1       2.073   8.045  19.364  0.00  0.00    +0.000 NA
ENDBRANCH  16  17
ENDBRANCH  10  11
ENDBRANCH   1  10
TORSDOF 5
ENDMDL
MODEL 7
REMARK VINA RESULT:      -6.7      2.458      3.375
REMARK  Name = 
REMARK  6 active torsions:
REMARK  status: ('A' for Active; 'I' for Inactive)
REMARK    1  A    between atoms: C_1  and  C_2
REMARK    2  A    between atoms: C_2  and  C_3
REMARK    3  A    between atoms: C_6  and  S_7
REMARK    4  A    between atoms: S_7  and  C_8
REMARK    5  A    between atoms: C_8  and  C_9
REMARK    6  A    between atoms: C_14  and  C_15
REMARK                            x       y       z     vdW  Elec       q    Type
REMARK                         _______ _______ _______ _____ _____    ______ ____
ROOT
ATOM      1  S   UNL     1       4.546   4.094  16.575  0.00  0.00    +0.000 S 
ENDROOT
BRANCH   1   5
ATOM      2  C   UNL     1       7.399   6.035  18.182  0.00  0.00    +0.000 A 
ATOM      3  N   UNL     1       7.748   4.807  18.593  0.00  0.00    +0.000 NA
ATOM      4  N   UNL     1       6.779   4.059  18.043  0.00  0.00    +0.000 N 
ATOM      5  C   UNL     1       5.900   4.826  17.345  0.00  0.00    +0.000 A 
ATOM      6  N   UNL     1       6.258   6.085  17.407  0.00  0.00    +0.000 NA
ATOM      7  H   UNL     1       6.765   3.058  18.187  0.00  0.00    +0.000 HD
BRANCH   2   9
ATOM      8  C   UNL     1       7.872   8.429  17.674  0.00  0.00    +0.000 C 
ATOM      9  C   UNL     1       8.171   7.241  18.576  0.00  0.00    +0.000 C 
ENDBRANCH   2   9
ENDBRANCH   1   5
BRANCH   1  10
ATOM     10  C   UNL     1       4.132   2.752  17.724  0.00  0.00    +0.000 C 
BRANCH  10  11
ATOM     11  C   UNL     1       3.184   3.235  18.807  0.00  0.00    +0.000 A 
ATOM     12  C   UNL     1       2.119   4.087  18.460  0.00  0.00    +0.000 A 
ATOM     13  C   UNL     1       1.225   4.555  19.429  0.00  0.00    +0.000 A 
ATOM     14  C   UNL     1       1.382   4.186  20.761  0.00  0.00    +0.000 A 
ATOM     15  C   UNL     1       2.442   3.359  21.129  0.00  0.00    +0.000 A 
ATOM     16  C   UNL     1       3.347   2.886  20.165  0.00  0.00    +0.000 A 
BRANCH  16  17
ATOM     17  C   UNL     1       4.430   2.054  20.605  0.00  0.00    +0.000 C 
ATOM     18  N   UNL     1       5.305   1.376  20.962  0.00  0.00    +0.000 NA
ENDBRANCH  16  17
ENDBRANCH  10  11
ENDBRANCH   1  10
TORSDOF 5
ENDMDL
MODEL 8
REMARK VINA RESULT:      -6.6      1.770      2.183
REMARK  Name = 
REMARK  6 active torsions:
REMARK  status: ('A' for Active; 'I' for Inactive)
REMARK    1  A    between atoms: C_1  and  C_2
REMARK    2  A    between atoms: C_2  and  C_3
REMARK    3  A    between atoms: C_6  and  S_7
REMARK    4  A    between atoms: S_7  and  C_8
REMARK    5  A    between atoms: C_8  and  C_9
REMARK    6  A    between atoms: C_14  and  C_15
REMARK                            x       y       z     vdW  Elec       q    Type
REMARK                         _______ _______ _______ _____ _____    ______ ____
ROOT
ATOM      1  S   UNL     1       6.173   4.516  17.409  0.00  0.00    +0.000 S 
ENDROOT
BRANCH   1   5
ATOM      2  C   UNL     1       6.855   4.372  13.668  0.00  0.00    +0.000 A 
ATOM      3  N   UNL     1       7.679   5.385  13.972  0.00  0.00    +0.000 NA
ATOM      4  N   UNL     1       7.497   5.482  15.299  0.00  0.00    +0.000 N 
ATOM      5  C   UNL     1       6.599   4.564  15.742  0.00  0.00    +0.000 A 
ATOM      6  N   UNL     1       6.168   3.838  14.739  0.00  0.00    +0.000 NA
ATOM      7  H   UNL     1       7.993   6.186  15.830  0.00  0.00    +0.000 HD
BRANCH   2   9
ATOM      8  C   UNL     1       5.364   3.158  12.080  0.00  0.00    +0.000 C 
ATOM      9  C   UNL     1       6.678   3.901  12.269  0.00  0.00    +0.000 C 
ENDBRANCH   2   9
ENDBRANCH   1   5
BRANCH   1  10
ATOM     10  C   UNL     1       4.384   4.223  17.339  0.00  0.00    +0.000 C 
BRANCH  10  11
ATOM     11  C   UNL     1       3.624   5.314  18.073  0.00  0.00    +0.000 A 
ATOM     12  C   UNL     1       3.569   6.606  17.519  0.00  0.00    +0.000 A 
ATOM     13  C   UNL     1       2.880   7.639  18.164  0.00  0.00    +0.000 A 
ATOM     14  C   UNL     1       2.241   7.402  19.376  0.00  0.00    +0.000 A 
ATOM     15  C   UNL     1       2.300   6.134  19.953  0.00  0.00    +0.000 A 
ATOM     16  C   UNL     1       2.992   5.090  19.315  0.00  0.00    +0.000 A 
BRANCH  16  17
ATOM     17  C   UNL     1       3.036   3.812  19.965  0.00  0.00    +0.000 C 
ATOM     18  N   UNL     1       3.077   2.775  20.490  0.00  0.00    +0.000 NA
ENDBRANCH  16  17
ENDBRANCH  10  11
ENDBRANCH   1  10
TORSDOF 5
ENDMDL
MODEL 9
REMARK VINA RESULT:      -6.6      2.768      3.850
REMARK  Name = 
REMARK  6 active torsions:
REMARK  status: ('A' for Active; 'I' for Inactive)
REMARK    1  A    between atoms: C_1  and  C_2
REMARK    2  A    between atoms: C_2  and  C_3
REMARK    3  A    between atoms: C_6  and  S_7
REMARK    4  A    between atoms: S_7  and  C_8
REMARK    5  A    between atoms: C_8  and  C_9
REMARK    6  A    between atoms: C_14  and  C_15
REMARK                            x       y       z     vdW  Elec       q    Type
REMARK                         _______ _______ _______ _____ _____    ______ ____
ROOT
ATOM      1  S   UNL     1       3.426   2.319  18.298  0.00  0.00    +0.000 S 
ENDROOT
BRANCH   1   5
ATOM      2  C   UNL     1       6.236   4.775  17.553  0.00  0.00    +0.000 A 
ATOM      3  N   UNL     1       6.470   4.610  18.863  0.00  0.00    +0.000 NA
ATOM      4  N   UNL     1       5.510   3.731  19.193  0.00  0.00    +0.000 N 
ATOM      5  C   UNL     1       4.748   3.406  18.116  0.00  0.00    +0.000 A 
ATOM      6  N   UNL     1       5.176   4.045  17.055  0.00  0.00    +0.000 NA
ATOM      7  H   UNL     1       5.420   3.410  20.148  0.00  0.00    +0.000 HD
BRANCH   2   9
ATOM      8  C   UNL     1       7.414   6.971  17.490  0.00  0.00    +0.000 C 
ATOM      9  C   UNL     1       7.044   5.709  16.726  0.00  0.00    +0.000 C 
ENDBRANCH   2   9
ENDBRANCH   1   5
BRANCH   1  10
ATOM     10  C   UNL     1       2.008   3.364  17.866  0.00  0.00    +0.000 C 
BRANCH  10  11
ATOM     11  C   UNL     1       2.056   4.685  18.615  0.00  0.00    +0.000 A 
ATOM     12  C   UNL     1       2.402   5.858  17.919  0.00  0.00    +0.000 A 
ATOM     13  C   UNL     1       2.457   7.094  18.572  0.00  0.00    +0.000 A 
ATOM     14  C   UNL     1       2.176   7.179  19.931  0.00  0.00    +0.000 A 
ATOM     15  C   UNL     1       1.851   6.025  20.644  0.00  0.00    +0.000 A 
ATOM     16  C   UNL     1       1.794   4.779  19.998  0.00  0.00    +0.000 A 
BRANCH  16  17
ATOM     17  C   UNL     1       1.474   3.623  20.786  0.00  0.00    +0.000 C 
ATOM     18  N   UNL     1       1.210   2.689  21.426  0.00  0.00    +0.000 NA
ENDBRANCH  16  17
ENDBRANCH  10  11
ENDBRANCH   1  10
TORSDOF 5
ENDMDL
