MODEL 1
REMARK VINA RESULT:      -7.5      0.000      0.000
REMARK  Name = 
REMARK  6 active torsions:
REMARK  status: ('A' for Active; 'I' for Inactive)
REMARK    1  A    between atoms: N_4  and  C_5
REMARK    2  A    between atoms: C_5  and  C_6
REMARK    3  A    between atoms: C_9  and  C_10
REMARK    4  A    between atoms: C_10  and  N_11
REMARK    5  A    between atoms: N_11  and  C_12
REMARK    6  A    between atoms: C_12  and  C_13
REMARK                            x       y       z     vdW  Elec       q    Type
REMARK                         _______ _______ _______ _____ _____    ______ ____
ROOT
ATOM      1  C   UNL     1       2.623   5.294  20.229  0.00  0.00    +0.000 C 
ENDROOT
BRANCH   1   5
ATOM      2  C   UNL     1       1.515   9.194  18.829  0.00  0.00    +0.000 A 
ATOM      3  C   UNL     1       2.074   8.256  17.949  0.00  0.00    +0.000 A 
ATOM      4  C   UNL     1       2.420   6.991  18.404  0.00  0.00    +0.000 A 
ATOM      5  C   UNL     1       2.211   6.646  19.743  0.00  0.00    +0.000 A 
ATOM      6  C   UNL     1       1.612   7.560  20.614  0.00  0.00    +0.000 A 
ATOM      7  C   UNL     1       1.262   8.826  20.158  0.00  0.00    +0.000 A 
BRANCH   2   8
ATOM      8  C   UNL     1       1.175  10.578  18.353  0.00  0.00    +0.000 C 
BRANCH   8  12
ATOM      9  C   UNL     1      -2.053  11.781  18.782  0.00  0.00    +0.000 A 
ATOM     10  N   UNL     1      -2.406  10.621  18.151  0.00  0.00    +0.000 NA
ATOM     11  C   UNL     1      -1.249  10.040  17.937  0.00  0.00    +0.000 A 
ATOM     12  N   UNL     1      -0.249  10.825  18.424  0.00  0.00    +0.000 N 
ATOM     13  N   UNL     1      -0.741  11.963  18.952  0.00  0.00    +0.000 NA
ENDBRANCH   8  12
ENDBRANCH   2   8
ENDBRANCH   1   5
BRANCH   1  14
ATOM     14  N   UNL     1       2.836   4.362  19.112  0.00  0.00    +0.000 NA
ATOM     15  H   UNL     1       2.741   4.877  18.236  0.00  0.00    +0.000 HD
BRANCH  14  16
ATOM     16  C   UNL     1       4.201   3.887  19.248  0.00  0.00    +0.000 C 
BRANCH  16  17
ATOM     17  C   UNL     1       5.231   4.379  18.274  0.00  0.00    +0.000 A 
ATOM     18  C   UNL     1       6.385   5.110  18.544  0.00  0.00    +0.000 A 
ATOM     19  C   UNL     1       7.223   5.505  17.483  0.00  0.00    +0.000 A 
ATOM     20  C   UNL     1       6.890   5.188  16.163  0.00  0.00    +0.000 A 
ATOM     21  C   UNL     1       5.702   4.526  15.906  0.00  0.00    +0.000 A 
ATOM     22  C   UNL     1       4.902   4.095  16.946  0.00  0.00    +0.000 A 
ATOM     23  O   UNL     1       5.226   4.265  14.655  0.00  0.00    +0.000 OA
ATOM     24  C   UNL     1       6.328   3.994  13.807  0.00  0.00    +0.000 C 
ATOM     25  C   UNL     1       7.374   5.104  13.861  0.00  0.00    +0.000 C 
ATOM     26  O   UNL     1       7.772   5.526  15.175  0.00  0.00    +0.000 OA
ENDBRANCH  16  17
ENDBRANCH  14  16
ENDBRANCH   1  14
TORSDOF 6
ENDMDL
MODEL 2
REMARK VINA RESULT:      -7.3      1.384      2.177
REMARK  Name = 
REMARK  6 active torsions:
REMARK  status: ('A' for Active; 'I' for Inactive)
REMARK    1  A    between atoms: N_4  and  C_5
REMARK    2  A    between atoms: C_5  and  C_6
REMARK    3  A    between atoms: C_9  and  C_10
REMARK    4  A    between atoms: C_10  and  N_11
REMARK    5  A    between atoms: N_11  and  C_12
REMARK    6  A    between atoms: C_12  and  C_13
REMARK                            x       y       z     vdW  Elec       q    Type
REMARK                         _______ _______ _______ _____ _____    ______ ____
ROOT
ATOM      1  C   UNL     1       2.717   5.668  20.150  0.00  0.00    +0.000 C 
ENDROOT
BRANCH   1   5
ATOM      2  C   UNL     1       1.156   9.511  19.055  0.00  0.00    +0.000 A 
ATOM      3  C   UNL     1       0.992   9.022  20.359  0.00  0.00    +0.000 A 
ATOM      4  C   UNL     1       1.509   7.784  20.712  0.00  0.00    +0.000 A 
ATOM      5  C   UNL     1       2.198   7.017  19.768  0.00  0.00    +0.000 A 
ATOM      6  C   UNL     1       2.405   7.518  18.480  0.00  0.00    +0.000 A 
ATOM      7  C   UNL     1       1.891   8.760  18.127  0.00  0.00    +0.000 A 
BRANCH   2   8
ATOM      8  C   UNL     1       0.564  10.833  18.655  0.00  0.00    +0.000 C 
BRANCH   8  12
ATOM      9  C   UNL     1       2.357  13.395  20.159  0.00  0.00    +0.000 A 
ATOM     10  N   UNL     1       3.005  13.443  18.957  0.00  0.00    +0.000 NA
ATOM     11  C   UNL     1       2.400  12.509  18.261  0.00  0.00    +0.000 A 
ATOM     12  N   UNL     1       1.431  11.931  19.022  0.00  0.00    +0.000 N 
ATOM     13  N   UNL     1       1.400  12.469  20.258  0.00  0.00    +0.000 NA
ENDBRANCH   8  12
ENDBRANCH   2   8
ENDBRANCH   1   5
BRANCH   1  14
ATOM     14  N   UNL     1       2.850   4.792  18.977  0.00  0.00    +0.000 NA
ATOM     15  H   UNL     1       2.810   5.366  18.135  0.00  0.00    +0.000 HD
BRANCH  14  16
ATOM     16  C   UNL     1       4.164   4.183  19.086  0.00  0.00    +0.000 C 
BRANCH  16  17
ATOM     17  C   UNL     1       5.213   4.558  18.080  0.00  0.00    +0.000 A 
ATOM     18  C   UNL     1       6.418   5.218  18.304  0.00  0.00    +0.000 A 
ATOM     19  C   UNL     1       7.267   5.507  17.218  0.00  0.00    +0.000 A 
ATOM     20  C   UNL     1       6.895   5.155  15.917  0.00  0.00    +0.000 A 
ATOM     21  C   UNL     1       5.661   4.567  15.703  0.00  0.00    +0.000 A 
ATOM     22  C   UNL     1       4.847   4.239  16.769  0.00  0.00    +0.000 A 
ATOM     23  O   UNL     1       5.151   4.283  14.470  0.00  0.00    +0.000 OA
ATOM     24  C   UNL     1       6.221   3.899  13.624  0.00  0.00    +0.000 C 
ATOM     25  C   UNL     1       7.341   4.935  13.617  0.00  0.00    +0.000 C 
ATOM     26  O   UNL     1       7.786   5.386  14.906  0.00  0.00    +0.000 OA
ENDBRANCH  16  17
ENDBRANCH  14  16
ENDBRANCH   1  14
TORSDOF 6
ENDMDL
MODEL 3
REMARK VINA RESULT:      -7.3      5.992      8.648
REMARK  Name = 
REMARK  6 active torsions:
REMARK  status: ('A' for Active; 'I' for Inactive)
REMARK    1  A    between atoms: N_4  and  C_5
REMARK    2  A    between atoms: C_5  and  C_6
REMARK    3  A    between atoms: C_9  and  C_10
REMARK    4  A    between atoms: C_10  and  N_11
REMARK    5  A    between atoms: N_11  and  C_12
REMARK    6  A    between atoms: C_12  and  C_13
REMARK                            x       y       z     vdW  Elec       q    Type
REMARK                         _______ _______ _______ _____ _____    ______ ____
ROOT
ATOM      1  C   UNL     1       8.508   7.907  18.573  0.00  0.00    +0.000 C 
ENDROOT
BRANCH   1   5
ATOM      2  C   UNL     1       5.717   5.085  16.948  0.00  0.00    +0.000 A 
ATOM      3  C   UNL     1       6.664   4.680  17.899  0.00  0.00    +0.000 A 
ATOM      4  C   UNL     1       7.558   5.599  18.432  0.00  0.00    +0.000 A 
ATOM      5  C   UNL     1       7.517   6.935  18.021  0.00  0.00    +0.000 A 
ATOM      6  C   UNL     1       6.546   7.355  17.107  0.00  0.00    +0.000 A 
ATOM      7  C   UNL     1       5.648   6.436  16.577  0.00  0.00    +0.000 A 
BRANCH   2   8
ATOM      8  C   UNL     1       4.774   4.088  16.337  0.00  0.00    +0.000 C 
BRANCH   8  12
ATOM      9  C   UNL     1       2.681   2.490  18.599  0.00  0.00    +0.000 A 
ATOM     10  N   UNL     1       2.102   3.724  18.702  0.00  0.00    +0.000 NA
ATOM     11  C   UNL     1       2.804   4.448  17.862  0.00  0.00    +0.000 A 
ATOM     12  N   UNL     1       3.761   3.673  17.283  0.00  0.00    +0.000 N 
ATOM     13  N   UNL     1       3.717   2.412  17.760  0.00  0.00    +0.000 NA
ENDBRANCH   8  12
ENDBRANCH   2   8
ENDBRANCH   1   5
BRANCH   1  14
ATOM     14  N   UNL     1       8.269   9.267  18.065  0.00  0.00    +0.000 NA
ATOM     15  H   UNL     1       7.271   9.464  18.122  0.00  0.00    +0.000 HD
BRANCH  14  16
ATOM     16  C   UNL     1       8.990  10.155  18.960  0.00  0.00    +0.000 C 
BRANCH  16  17
ATOM     17  C   UNL     1       9.631  11.384  18.386  0.00  0.00    +0.000 A 
ATOM     18  C   UNL     1      10.815  11.473  17.659  0.00  0.00    +0.000 A 
ATOM     19  C   UNL     1      11.272  12.731  17.223  0.00  0.00    +0.000 A 
ATOM     20  C   UNL     1      10.555  13.891  17.533  0.00  0.00    +0.000 A 
ATOM     21  C   UNL     1       9.420  13.793  18.319  0.00  0.00    +0.000 A 
ATOM     22  C   UNL     1       8.943  12.557  18.710  0.00  0.00    +0.000 A 
ATOM     23  O   UNL     1       8.709  14.864  18.774  0.00  0.00    +0.000 OA
ATOM     24  C   UNL     1       8.737  15.871  17.778  0.00  0.00    +0.000 C 
ATOM     25  C   UNL     1      10.161  16.203  17.344  0.00  0.00    +0.000 C 
ATOM     26  O   UNL     1      10.996  15.079  17.022  0.00  0.00    +0.000 OA
ENDBRANCH  16  17
ENDBRANCH  14  16
ENDBRANCH   1  14
TORSDOF 6
ENDMDL
MODEL 4
REMARK VINA RESULT:      -7.2      0.887      1.108
REMARK  Name = 
REMARK  6 active torsions:
REMARK  status: ('A' for Active; 'I' for Inactive)
REMARK    1  A    between atoms: N_4  and  C_5
REMARK    2  A    between atoms: C_5  and  C_6
REMARK    3  A    between atoms: C_9  and  C_10
REMARK    4  A    between atoms: C_10  and  N_11
REMARK    5  A    between atoms: N_11  and  C_12
REMARK    6  A    between atoms: C_12  and  C_13
REMARK                            x       y       z     vdW  Elec       q    Type
REMARK                         _______ _______ _______ _____ _____    ______ ____
ROOT
ATOM      1  C   UNL     1       2.275   5.959  20.035  0.00  0.00    +0.000 C 
ENDROOT
BRANCH   1   5
ATOM      2  C   UNL     1       1.234  10.016  19.109  0.00  0.00    +0.000 A 
ATOM      3  C   UNL     1       1.845   9.202  18.145  0.00  0.00    +0.000 A 
ATOM      4  C   UNL     1       2.169   7.886  18.445  0.00  0.00    +0.000 A 
ATOM      5  C   UNL     1       1.887   7.366  19.711  0.00  0.00    +0.000 A 
ATOM      6  C   UNL     1       1.237   8.158  20.662  0.00  0.00    +0.000 A 
ATOM      7  C   UNL     1       0.908   9.474  20.360  0.00  0.00    +0.000 A 
BRANCH   2   8
ATOM      8  C   UNL     1       0.918  11.453  18.805  0.00  0.00    +0.000 C 
BRANCH   8  12
ATOM      9  C   UNL     1      -2.531  11.595  18.440  0.00  0.00    +0.000 A 
ATOM     10  N   UNL     1      -2.462  12.401  19.542  0.00  0.00    +0.000 NA
ATOM     11  C   UNL     1      -1.174  12.450  19.789  0.00  0.00    +0.000 A 
ATOM     12  N   UNL     1      -0.506  11.703  18.868  0.00  0.00    +0.000 N 
ATOM     13  N   UNL     1      -1.361  11.123  18.002  0.00  0.00    +0.000 NA
ENDBRANCH   8  12
ENDBRANCH   2   8
ENDBRANCH   1   5
BRANCH   1  14
ATOM     14  N   UNL     1       3.733   5.777  19.982  0.00  0.00    +0.000 NA
ATOM     15  H   UNL     1       4.050   5.423  20.884  0.00  0.00    +0.000 HD
BRANCH  14  16
ATOM     16  C   UNL     1       3.970   4.775  18.958  0.00  0.00    +0.000 C 
BRANCH  16  17
ATOM     17  C   UNL     1       5.057   5.020  17.954  0.00  0.00    +0.000 A 
ATOM     18  C   UNL     1       6.267   5.683  18.145  0.00  0.00    +0.000 A 
ATOM     19  C   UNL     1       7.156   5.837  17.064  0.00  0.00    +0.000 A 
ATOM     20  C   UNL     1       6.821   5.347  15.798  0.00  0.00    +0.000 A 
ATOM     21  C   UNL     1       5.584   4.757  15.607  0.00  0.00    +0.000 A 
ATOM     22  C   UNL     1       4.729   4.563  16.674  0.00  0.00    +0.000 A 
ATOM     23  O   UNL     1       5.109   4.346  14.397  0.00  0.00    +0.000 OA
ATOM     24  C   UNL     1       6.199   3.854  13.636  0.00  0.00    +0.000 C 
ATOM     25  C   UNL     1       7.338   4.866  13.553  0.00  0.00    +0.000 C 
ATOM     26  O   UNL     1       7.748   5.452  14.799  0.00  0.00    +0.000 OA
ENDBRANCH  16  17
ENDBRANCH  14  16
ENDBRANCH   1  14
TORSDOF 6
ENDMDL
MODEL 5
REMARK VINA RESULT:      -7.2      5.941      8.468
REMARK  Name = 
REMARK  6 active torsions:
REMARK  status: ('A' for Active; 'I' for Inactive)
REMARK    1  A    between atoms: N_4  and  C_5
REMARK    2  A    between atoms: C_5  and  C_6
REMARK    3  A    between atoms: C_9  and  C_10
REMARK    4  A    between atoms: C_10  and  N_11
REMARK    5  A    between atoms: N_11  and  C_12
REMARK    6  A    between atoms: C_12  and  C_13
REMARK                            x       y       z     vdW  Elec       q    Type
REMARK                         _______ _______ _______ _____ _____    ______ ____
ROOT
ATOM      1  C   UNL     1       8.506   7.837  18.485  0.00  0.00    +0.000 C 
ENDROOT
BRANCH   1   5
ATOM      2  C   UNL     1       5.526   5.081  17.100  0.00  0.00    +0.000 A 
ATOM      3  C   UNL     1       5.397   6.453  16.844  0.00  0.00    +0.000 A 
ATOM      4  C   UNL     1       6.370   7.340  17.284  0.00  0.00    +0.000 A 
ATOM      5  C   UNL     1       7.484   6.868  17.984  0.00  0.00    +0.000 A 
ATOM      6  C   UNL     1       7.641   5.496  18.202  0.00  0.00    +0.000 A 
ATOM      7  C   UNL     1       6.669   4.608  17.758  0.00  0.00    +0.000 A 
BRANCH   2   8
ATOM      8  C   UNL     1       4.456   4.119  16.662  0.00  0.00    +0.000 C 
BRANCH   8  12
ATOM      9  C   UNL     1       2.539   3.362  19.454  0.00  0.00    +0.000 A 
ATOM     10  N   UNL     1       1.610   4.157  18.844  0.00  0.00    +0.000 NA
ATOM     11  C   UNL     1       2.212   4.512  17.734  0.00  0.00    +0.000 A 
ATOM     12  N   UNL     1       3.451   3.948  17.688  0.00  0.00    +0.000 N 
ATOM     13  N   UNL     1       3.693   3.221  18.797  0.00  0.00    +0.000 NA
ENDBRANCH   8  12
ENDBRANCH   2   8
ENDBRANCH   1   5
BRANCH   1  14
ATOM     14  N   UNL     1       8.298   9.178  17.919  0.00  0.00    +0.000 NA
ATOM     15  H   UNL     1       7.296   9.355  17.861  0.00  0.00    +0.000 HD
BRANCH  14  16
ATOM     16  C   UNL     1       8.899  10.103  18.865  0.00  0.00    +0.000 C 
BRANCH  16  17
ATOM     17  C   UNL     1       9.553  11.345  18.334  0.00  0.00    +0.000 A 
ATOM     18  C   UNL     1      10.758  11.451  17.645  0.00  0.00    +0.000 A 
ATOM     19  C   UNL     1      11.223  12.719  17.247  0.00  0.00    +0.000 A 
ATOM     20  C   UNL     1      10.494  13.870  17.560  0.00  0.00    +0.000 A 
ATOM     21  C   UNL     1       9.337  13.754  18.310  0.00  0.00    +0.000 A 
ATOM     22  C   UNL     1       8.852  12.509  18.661  0.00  0.00    +0.000 A 
ATOM     23  O   UNL     1       8.609  14.814  18.764  0.00  0.00    +0.000 OA
ATOM     24  C   UNL     1       8.663  15.841  17.790  0.00  0.00    +0.000 C 
ATOM     25  C   UNL     1      10.099  16.185  17.405  0.00  0.00    +0.000 C 
ATOM     26  O   UNL     1      10.946  15.070  17.086  0.00  0.00    +0.000 OA
ENDBRANCH  16  17
ENDBRANCH  14  16
ENDBRANCH   1  14
TORSDOF 6
ENDMDL
MODEL 6
REMARK VINA RESULT:      -7.1      3.857      9.173
REMARK  Name = 
REMARK  6 active torsions:
REMARK  status: ('A' for Active; 'I' for Inactive)
REMARK    1  A    between atoms: N_4  and  C_5
REMARK    2  A    between atoms: C_5  and  C_6
REMARK    3  A    between atoms: C_9  and  C_10
REMARK    4  A    between atoms: C_10  and  N_11
REMARK    5  A    between atoms: N_11  and  C_12
REMARK    6  A    between atoms: C_12  and  C_13
REMARK                            x       y       z     vdW  Elec       q    Type
REMARK                         _______ _______ _______ _____ _____    ______ ____
ROOT
ATOM      1  C   UNL     1       1.367   8.798  19.677  0.00  0.00    +0.000 C 
ENDROOT
BRANCH   1   5
ATOM      2  C   UNL     1       3.535   5.332  18.379  0.00  0.00    +0.000 A 
ATOM      3  C   UNL     1       3.525   6.497  17.598  0.00  0.00    +0.000 A 
ATOM      4  C   UNL     1       2.832   7.620  18.027  0.00  0.00    +0.000 A 
ATOM      5  C   UNL     1       2.141   7.595  19.243  0.00  0.00    +0.000 A 
ATOM      6  C   UNL     1       2.185   6.453  20.047  0.00  0.00    +0.000 A 
ATOM      7  C   UNL     1       2.883   5.330  19.619  0.00  0.00    +0.000 A 
BRANCH   2   8
ATOM      8  C   UNL     1       4.249   4.099  17.901  0.00  0.00    +0.000 C 
BRANCH   8  12
ATOM      9  C   UNL     1       7.655   4.769  17.885  0.00  0.00    +0.000 A 
ATOM     10  N   UNL     1       7.523   4.626  16.532  0.00  0.00    +0.000 NA
ATOM     11  C   UNL     1       6.242   4.378  16.388  0.00  0.00    +0.000 A 
ATOM     12  N   UNL     1       5.639   4.375  17.608  0.00  0.00    +0.000 N 
ATOM     13  N   UNL     1       6.534   4.601  18.591  0.00  0.00    +0.000 NA
ENDBRANCH   8  12
ENDBRANCH   2   8
ENDBRANCH   1   5
BRANCH   1  14
ATOM     14  N   UNL     1       1.515   9.906  18.721  0.00  0.00    +0.000 NA
ATOM     15  H   UNL     1       0.960   9.696  17.891  0.00  0.00    +0.000 HD
BRANCH  14  16
ATOM     16  C   UNL     1       0.968  11.076  19.385  0.00  0.00    +0.000 C 
BRANCH  16  17
ATOM     17  C   UNL     1      -0.487  11.391  19.197  0.00  0.00    +0.000 A 
ATOM     18  C   UNL     1      -1.313  12.148  20.023  0.00  0.00    +0.000 A 
ATOM     19  C   UNL     1      -2.671  12.312  19.689  0.00  0.00    +0.000 A 
ATOM     20  C   UNL     1      -3.197  11.701  18.546  0.00  0.00    +0.000 A 
ATOM     21  C   UNL     1      -2.380  10.892  17.776  0.00  0.00    +0.000 A 
ATOM     22  C   UNL     1      -1.037  10.766  18.074  0.00  0.00    +0.000 A 
ATOM     23  O   UNL     1      -2.812  10.162  16.709  0.00  0.00    +0.000 OA
ATOM     24  C   UNL     1      -3.823  10.900  16.045  0.00  0.00    +0.000 C 
ATOM     25  C   UNL     1      -4.932  11.332  16.999  0.00  0.00    +0.000 C 
ATOM     26  O   UNL     1      -4.501  11.952  18.221  0.00  0.00    +0.000 OA
ENDBRANCH  16  17
ENDBRANCH  14  16
ENDBRANCH   1  14
TORSDOF 6
ENDMDL
MODEL 7
REMARK VINA RESULT:      -7.1      1.447      1.884
REMARK  Name = 
REMARK  6 active torsions:
REMARK  status: ('A' for Active; 'I' for Inactive)
REMARK    1  A    between atoms: N_4  and  C_5
REMARK    2  A    between atoms: C_5  and  C_6
REMARK    3  A    between atoms: C_9  and  C_10
REMARK    4  A    between atoms: C_10  and  N_11
REMARK    5  A    between atoms: N_11  and  C_12
REMARK    6  A    between atoms: C_12  and  C_13
REMARK                            x       y       z     vdW  Elec       q    Type
REMARK                         _______ _______ _______ _____ _____    ______ ____
ROOT
ATOM      1  C   UNL     1       2.865   6.062  19.914  0.00  0.00    +0.000 C 
ENDROOT
BRANCH   1   5
ATOM      2  C   UNL     1       0.969   9.822  19.097  0.00  0.00    +0.000 A 
ATOM      3  C   UNL     1       1.638   9.128  18.079  0.00  0.00    +0.000 A 
ATOM      4  C   UNL     1       2.240   7.906  18.345  0.00  0.00    +0.000 A 
ATOM      5  C   UNL     1       2.181   7.361  19.631  0.00  0.00    +0.000 A 
ATOM      6  C   UNL     1       1.476   8.025  20.639  0.00  0.00    +0.000 A 
ATOM      7  C   UNL     1       0.870   9.246  20.372  0.00  0.00    +0.000 A 
BRANCH   2   8
ATOM      8  C   UNL     1       0.350  11.164  18.826  0.00  0.00    +0.000 C 
BRANCH   8  12
ATOM      9  C   UNL     1       0.250  13.210  21.629  0.00  0.00    +0.000 A 
ATOM     10  N   UNL     1       1.574  13.403  21.348  0.00  0.00    +0.000 NA
ATOM     11  C   UNL     1       1.752  12.678  20.268  0.00  0.00    +0.000 A 
ATOM     12  N   UNL     1       0.579  12.080  19.922  0.00  0.00    +0.000 N 
ATOM     13  N   UNL     1      -0.398  12.389  20.798  0.00  0.00    +0.000 NA
ENDBRANCH   8  12
ENDBRANCH   2   8
ENDBRANCH   1   5
BRANCH   1  14
ATOM     14  N   UNL     1       2.385   4.995  19.024  0.00  0.00    +0.000 NA
ATOM     15  H   UNL     1       2.267   5.381  18.087  0.00  0.00    +0.000 HD
BRANCH  14  16
ATOM     16  C   UNL     1       3.435   3.993  19.006  0.00  0.00    +0.000 C 
BRANCH  16  17
ATOM     17  C   UNL     1       4.657   4.251  18.176  0.00  0.00    +0.000 A 
ATOM     18  C   UNL     1       5.937   4.582  18.614  0.00  0.00    +0.000 A 
ATOM     19  C   UNL     1       6.958   4.814  17.672  0.00  0.00    +0.000 A 
ATOM     20  C   UNL     1       6.688   4.736  16.303  0.00  0.00    +0.000 A 
ATOM     21  C   UNL     1       5.395   4.480  15.882  0.00  0.00    +0.000 A 
ATOM     22  C   UNL     1       4.401   4.205  16.802  0.00  0.00    +0.000 A 
ATOM     23  O   UNL     1       4.996   4.490  14.579  0.00  0.00    +0.000 OA
ATOM     24  C   UNL     1       6.058   3.991  13.785  0.00  0.00    +0.000 C 
ATOM     25  C   UNL     1       7.364   4.734  14.049  0.00  0.00    +0.000 C 
ATOM     26  O   UNL     1       7.728   4.893  15.429  0.00  0.00    +0.000 OA
ENDBRANCH  16  17
ENDBRANCH  14  16
ENDBRANCH   1  14
TORSDOF 6
ENDMDL
MODEL 8
REMARK VINA RESULT:      -7.1      5.227      7.804
REMARK  Name = 
REMARK  6 active torsions:
REMARK  status: ('A' for Active; 'I' for Inactive)
REMARK    1  A    between atoms: N_4  and  C_5
REMARK    2  A    between atoms: C_5  and  C_6
REMARK    3  A    between atoms: C_9  and  C_10
REMARK    4  A    between atoms: C_10  and  N_11
REMARK    5  A    between atoms: N_11  and  C_12
REMARK    6  A    between atoms: C_12  and  C_13
REMARK                            x       y       z     vdW  Elec       q    Type
REMARK                         _______ _______ _______ _____ _____    ______ ____
ROOT
ATOM      1  C   UNL     1       7.626   7.038  16.992  0.00  0.00    +0.000 C 
ENDROOT
BRANCH   1   5
ATOM      2  C   UNL     1       4.040   4.710  17.340  0.00  0.00    +0.000 A 
ATOM      3  C   UNL     1       4.016   6.092  17.578  0.00  0.00    +0.000 A 
ATOM      4  C   UNL     1       5.176   6.843  17.453  0.00  0.00    +0.000 A 
ATOM      5  C   UNL     1       6.375   6.225  17.087  0.00  0.00    +0.000 A 
ATOM      6  C   UNL     1       6.397   4.857  16.803  0.00  0.00    +0.000 A 
ATOM      7  C   UNL     1       5.234   4.105  16.924  0.00  0.00    +0.000 A 
BRANCH   2   8
ATOM      8  C   UNL     1       2.797   3.883  17.513  0.00  0.00    +0.000 C 
BRANCH   8  12
ATOM      9  C   UNL     1       2.656   3.244  20.922  0.00  0.00    +0.000 A 
ATOM     10  N   UNL     1       1.422   3.824  20.825  0.00  0.00    +0.000 NA
ATOM     11  C   UNL     1       1.332   4.109  19.548  0.00  0.00    +0.000 A 
ATOM     12  N   UNL     1       2.468   3.714  18.912  0.00  0.00    +0.000 N 
ATOM     13  N   UNL     1       3.347   3.174  19.781  0.00  0.00    +0.000 NA
ENDBRANCH   8  12
ENDBRANCH   2   8
ENDBRANCH   1   5
BRANCH   1  14
ATOM     14  N   UNL     1       7.838   7.842  18.205  0.00  0.00    +0.000 NA
ATOM     15  H   UNL     1       8.697   7.529  18.656  0.00  0.00    +0.000 HD
BRANCH  14  16
ATOM     16  C   UNL     1       8.002   9.211  17.748  0.00  0.00    +0.000 C 
BRANCH  16  17
ATOM     17  C   UNL     1       8.931  10.112  18.507  0.00  0.00    +0.000 A 
ATOM     18  C   UNL     1       9.135  10.169  19.884  0.00  0.00    +0.000 A 
ATOM     19  C   UNL     1      10.039  11.109  20.415  0.00  0.00    +0.000 A 
ATOM     20  C   UNL     1      10.713  11.997  19.572  0.00  0.00    +0.000 A 
ATOM     21  C   UNL     1      10.443  11.978  18.215  0.00  0.00    +0.000 A 
ATOM     22  C   UNL     1       9.594  11.027  17.684  0.00  0.00    +0.000 A 
ATOM     23  O   UNL     1      10.957  12.867  17.318  0.00  0.00    +0.000 OA
ATOM     24  C   UNL     1      12.274  13.196  17.724  0.00  0.00    +0.000 C 
ATOM     25  C   UNL     1      12.322  13.668  19.174  0.00  0.00    +0.000 C 
ATOM     26  O   UNL     1      11.637  12.839  20.126  0.00  0.00    +0.000 OA
ENDBRANCH  16  17
ENDBRANCH  14  16
ENDBRANCH   1  14
TORSDOF 6
ENDMDL
MODEL 9
REMARK VINA RESULT:      -7.1      6.245      8.649
REMARK  Name = 
REMARK  6 active torsions:
REMARK  status: ('A' for Active; 'I' for Inactive)
REMARK    1  A    between atoms: N_4  and  C_5
REMARK    2  A    between atoms: C_5  and  C_6
REMARK    3  A    between atoms: C_9  and  C_10
REMARK    4  A    between atoms: C_10  and  N_11
REMARK    5  A    between atoms: N_11  and  C_12
REMARK    6  A    between atoms: C_12  and  C_13
REMARK                            x       y       z     vdW  Elec       q    Type
REMARK                         _______ _______ _______ _____ _____    ______ ____
ROOT
ATOM      1  C   UNL     1       8.122   8.319  17.354  0.00  0.00    +0.000 C 
ENDROOT
BRANCH   1   5
ATOM      2  C   UNL     1       5.777   5.004  18.736  0.00  0.00    +0.000 A 
ATOM      3  C   UNL     1       5.324   5.800  17.674  0.00  0.00    +0.000 A 
ATOM      4  C   UNL     1       6.092   6.864  17.222  0.00  0.00    +0.000 A 
ATOM      5  C   UNL     1       7.322   7.147  17.825  0.00  0.00    +0.000 A 
ATOM      6  C   UNL     1       7.799   6.330  18.853  0.00  0.00    +0.000 A 
ATOM      7  C   UNL     1       7.033   5.261  19.302  0.00  0.00    +0.000 A 
BRANCH   2   8
ATOM      8  C   UNL     1       4.932   3.875  19.257  0.00  0.00    +0.000 C 
BRANCH   8  12
ATOM      9  C   UNL     1       1.694   4.268  18.073  0.00  0.00    +0.000 A 
ATOM     10  N   UNL     1       2.076   3.329  17.157  0.00  0.00    +0.000 NA
ATOM     11  C   UNL     1       3.314   3.068  17.505  0.00  0.00    +0.000 A 
ATOM     12  N   UNL     1       3.651   3.822  18.587  0.00  0.00    +0.000 N 
ATOM     13  N   UNL     1       2.630   4.621  18.957  0.00  0.00    +0.000 NA
ENDBRANCH   8  12
ENDBRANCH   2   8
ENDBRANCH   1   5
BRANCH   1  14
ATOM     14  N   UNL     1       8.533   9.175  18.477  0.00  0.00    +0.000 NA
ATOM     15  H   UNL     1       9.453   8.873  18.797  0.00  0.00    +0.000 HD
BRANCH  14  16
ATOM     16  C   UNL     1       8.625  10.519  17.935  0.00  0.00    +0.000 C 
BRANCH  16  17
ATOM     17  C   UNL     1       9.655  11.451  18.503  0.00  0.00    +0.000 A 
ATOM     18  C   UNL     1      10.532  11.217  19.560  0.00  0.00    +0.000 A 
ATOM     19  C   UNL     1      11.417  12.234  19.968  0.00  0.00    +0.000 A 
ATOM     20  C   UNL     1      11.404  13.480  19.335  0.00  0.00    +0.000 A 
ATOM     21  C   UNL     1      10.476  13.721  18.337  0.00  0.00    +0.000 A 
ATOM     22  C   UNL     1       9.639  12.712  17.901  0.00  0.00    +0.000 A 
ATOM     23  O   UNL     1      10.300  14.928  17.730  0.00  0.00    +0.000 OA
ATOM     24  C   UNL     1      11.563  15.560  17.621  0.00  0.00    +0.000 C 
ATOM     25  C   UNL     1      12.281  15.632  18.966  0.00  0.00    +0.000 C 
ATOM     26  O   UNL     1      12.333  14.407  19.715  0.00  0.00    +0.000 OA
ENDBRANCH  16  17
ENDBRANCH  14  16
ENDBRANCH   1  14
TORSDOF 6
ENDMDL
