MODEL 1
REMARK VINA RESULT:      -7.5      0.000      0.000
REMARK  Name = 
REMARK  3 active torsions:
REMARK  status: ('A' for Active; 'I' for Inactive)
REMARK    1  A    between atoms: C_1  and  N_2
REMARK    2  A    between atoms: C_11  and  C_12
REMARK    3  A    between atoms: N_21  and  C_22
REMARK                            x       y       z     vdW  Elec       q    Type
REMARK                         _______ _______ _______ _____ _____    ______ ____
ROOT
ATOM      1  C   UNL     1       4.014   2.163  19.865  0.00  0.00    +0.000 C 
ATOM      2  N   UNL     1       3.153   3.240  19.382  0.00  0.00    +0.000 NA
ATOM      3  C   UNL     1       3.893   4.120  18.447  0.00  0.00    +0.000 C 
ATOM      4  C   UNL     1       3.038   5.310  17.947  0.00  0.00    +0.000 C 
ATOM      5  N   UNL     1       2.530   6.050  19.106  0.00  0.00    +0.000 N 
ATOM      6  C   UNL     1       2.242   7.387  18.978  0.00  0.00    +0.000 A 
ATOM      7  N   UNL     1       2.553   7.996  17.825  0.00  0.00    +0.000 NA
ATOM      8  C   UNL     1       2.318   9.318  17.730  0.00  0.00    +0.000 A 
ATOM      9  C   UNL     1       1.794  10.084  18.741  0.00  0.00    +0.000 A 
ATOM     10  N   UNL     1       1.582  11.457  18.552  0.00  0.00    +0.000 NA
ATOM     11  C   UNL     1       1.103  12.141  19.551  0.00  0.00    +0.000 A 
ATOM     12  C   UNL     1       0.730  11.476  20.883  0.00  0.00    +0.000 A 
ATOM     13  O   UNL     1       0.152  12.137  21.740  0.00  0.00    +0.000 OA
ATOM     14  N   UNL     1       1.073  10.134  21.027  0.00  0.00    +0.000 N 
ATOM     15  C   UNL     1       1.548   9.391  19.913  0.00  0.00    +0.000 A 
ATOM     16  N   UNL     1       1.745   8.057  20.033  0.00  0.00    +0.000 NA
ATOM     17  C   UNL     1       1.772   5.240  20.058  0.00  0.00    +0.000 C 
ATOM     18  C   UNL     1       2.648   4.050  20.516  0.00  0.00    +0.000 C 
ENDROOT
BRANCH  11  19
ATOM     19  C   UNL     1       0.928  13.614  19.394  0.00  0.00    +0.000 A 
ATOM     20  C   UNL     1      -0.275  14.118  18.873  0.00  0.00    +0.000 A 
ATOM     21  C   UNL     1      -0.435  15.496  18.692  0.00  0.00    +0.000 A 
ATOM     22  C   UNL     1       0.605  16.361  19.020  0.00  0.00    +0.000 A 
ATOM     23  F   UNL     1       0.452  17.679  18.841  0.00  0.00    +0.000 F 
ATOM     24  C   UNL     1       1.802  15.875  19.526  0.00  0.00    +0.000 A 
ATOM     25  C   UNL     1       1.972  14.503  19.703  0.00  0.00    +0.000 A 
ENDBRANCH  11  19
BRANCH  14  26
ATOM     26  C   UNL     1       0.821   9.477  22.291  0.00  0.00    +0.000 C 
ATOM     27  C   UNL     1      -0.305   9.854  23.221  0.00  0.00    +0.000 C 
ATOM     28  C   UNL     1      -0.392   8.578  22.450  0.00  0.00    +0.000 C 
ENDBRANCH  14  26
TORSDOF 2
ENDMDL
MODEL 2
REMARK VINA RESULT:      -7.4      4.376      8.554
REMARK  Name = 
REMARK  3 active torsions:
REMARK  status: ('A' for Active; 'I' for Inactive)
REMARK    1  A    between atoms: C_1  and  N_2
REMARK    2  A    between atoms: C_11  and  C_12
REMARK    3  A    between atoms: N_21  and  C_22
REMARK                            x       y       z     vdW  Elec       q    Type
REMARK                         _______ _______ _______ _____ _____    ______ ____
ROOT
ATOM      1  C   UNL     1      -2.105  11.008  23.271  0.00  0.00    +0.000 C 
ATOM      2  N   UNL     1      -0.795  10.803  22.659  0.00  0.00    +0.000 NA
ATOM      3  C   UNL     1      -0.826  11.171  21.223  0.00  0.00    +0.000 C 
ATOM      4  C   UNL     1       0.528  10.919  20.515  0.00  0.00    +0.000 C 
ATOM      5  N   UNL     1       0.914   9.519  20.711  0.00  0.00    +0.000 N 
ATOM      6  C   UNL     1       1.719   8.906  19.781  0.00  0.00    +0.000 A 
ATOM      7  N   UNL     1       2.023   9.579  18.663  0.00  0.00    +0.000 NA
ATOM      8  C   UNL     1       2.765   8.949  17.733  0.00  0.00    +0.000 A 
ATOM      9  C   UNL     1       3.220   7.659  17.851  0.00  0.00    +0.000 A 
ATOM     10  N   UNL     1       3.990   7.082  16.831  0.00  0.00    +0.000 NA
ATOM     11  C   UNL     1       4.376   5.849  16.985  0.00  0.00    +0.000 A 
ATOM     12  C   UNL     1       4.052   5.051  18.255  0.00  0.00    +0.000 A 
ATOM     13  O   UNL     1       4.558   3.944  18.411  0.00  0.00    +0.000 OA
ATOM     14  N   UNL     1       3.192   5.655  19.169  0.00  0.00    +0.000 N 
ATOM     15  C   UNL     1       2.820   7.018  19.011  0.00  0.00    +0.000 A 
ATOM     16  N   UNL     1       2.099   7.631  19.979  0.00  0.00    +0.000 NA
ATOM     17  C   UNL     1       0.983   9.098  22.109  0.00  0.00    +0.000 C 
ATOM     18  C   UNL     1      -0.377   9.386  22.789  0.00  0.00    +0.000 C 
ENDROOT
BRANCH  11  19
ATOM     19  C   UNL     1       5.143   5.195  15.885  0.00  0.00    +0.000 A 
ATOM     20  C   UNL     1       6.514   5.463  15.741  0.00  0.00    +0.000 A 
ATOM     21  C   UNL     1       7.233   4.880  14.693  0.00  0.00    +0.000 A 
ATOM     22  C   UNL     1       6.583   4.043  13.790  0.00  0.00    +0.000 A 
ATOM     23  F   UNL     1       7.272   3.490  12.784  0.00  0.00    +0.000 F 
ATOM     24  C   UNL     1       5.227   3.778  13.916  0.00  0.00    +0.000 A 
ATOM     25  C   UNL     1       4.501   4.361  14.953  0.00  0.00    +0.000 A 
ENDBRANCH  11  19
BRANCH  14  26
ATOM     26  C   UNL     1       2.785   4.918  20.344  0.00  0.00    +0.000 C 
ATOM     27  C   UNL     1       1.346   4.703  20.741  0.00  0.00    +0.000 C 
ATOM     28  C   UNL     1       2.132   3.555  20.197  0.00  0.00    +0.000 C 
ENDBRANCH  14  26
TORSDOF 2
ENDMDL
MODEL 3
REMARK VINA RESULT:      -7.4      3.988      8.957
REMARK  Name = 
REMARK  3 active torsions:
REMARK  status: ('A' for Active; 'I' for Inactive)
REMARK    1  A    between atoms: C_1  and  N_2
REMARK    2  A    between atoms: C_11  and  C_12
REMARK    3  A    between atoms: N_21  and  C_22
REMARK                            x       y       z     vdW  Elec       q    Type
REMARK                         _______ _______ _______ _____ _____    ______ ____
ROOT
ATOM      1  C   UNL     1      -1.741  17.121  23.259  0.00  0.00    +0.000 C 
ATOM      2  N   UNL     1      -1.962  15.713  22.939  0.00  0.00    +0.000 NA
ATOM      3  C   UNL     1      -1.385  14.842  23.990  0.00  0.00    +0.000 C 
ATOM      4  C   UNL     1      -1.547  13.336  23.670  0.00  0.00    +0.000 C 
ATOM      5  N   UNL     1      -0.962  13.064  22.354  0.00  0.00    +0.000 N 
ATOM      6  C   UNL     1      -0.479  11.807  22.079  0.00  0.00    +0.000 A 
ATOM      7  N   UNL     1      -0.451  10.907  23.071  0.00  0.00    +0.000 NA
ATOM      8  C   UNL     1       0.077   9.697  22.806  0.00  0.00    +0.000 A 
ATOM      9  C   UNL     1       0.598   9.331  21.590  0.00  0.00    +0.000 A 
ATOM     10  N   UNL     1       1.127   8.046  21.402  0.00  0.00    +0.000 NA
ATOM     11  C   UNL     1       1.628   7.759  20.236  0.00  0.00    +0.000 A 
ATOM     12  C   UNL     1       1.607   8.763  19.076  0.00  0.00    +0.000 A 
ATOM     13  O   UNL     1       1.962   8.396  17.961  0.00  0.00    +0.000 OA
ATOM     14  N   UNL     1       1.167  10.050  19.374  0.00  0.00    +0.000 N 
ATOM     15  C   UNL     1       0.577  10.333  20.636  0.00  0.00    +0.000 A 
ATOM     16  N   UNL     1       0.029  11.551  20.860  0.00  0.00    +0.000 NA
ATOM     17  C   UNL     1      -1.505  13.878  21.268  0.00  0.00    +0.000 C 
ATOM     18  C   UNL     1      -1.346  15.373  21.634  0.00  0.00    +0.000 C 
ENDROOT
BRANCH  11  19
ATOM     19  C   UNL     1       2.253   6.419  20.034  0.00  0.00    +0.000 A 
ATOM     20  C   UNL     1       1.642   5.280  20.581  0.00  0.00    +0.000 A 
ATOM     21  C   UNL     1       2.237   4.024  20.424  0.00  0.00    +0.000 A 
ATOM     22  C   UNL     1       3.440   3.911  19.734  0.00  0.00    +0.000 A 
ATOM     23  F   UNL     1       4.011   2.709  19.588  0.00  0.00    +0.000 F 
ATOM     24  C   UNL     1       4.059   5.031  19.196  0.00  0.00    +0.000 A 
ATOM     25  C   UNL     1       3.476   6.287  19.354  0.00  0.00    +0.000 A 
ENDBRANCH  11  19
BRANCH  14  26
ATOM     26  C   UNL     1       1.203  11.062  18.341  0.00  0.00    +0.000 C 
ATOM     27  C   UNL     1       1.314  12.540  18.620  0.00  0.00    +0.000 C 
ATOM     28  C   UNL     1       2.492  11.814  18.059  0.00  0.00    +0.000 C 
ENDBRANCH  14  26
TORSDOF 2
ENDMDL
MODEL 4
REMARK VINA RESULT:      -7.3      4.171      8.412
REMARK  Name = 
REMARK  3 active torsions:
REMARK  status: ('A' for Active; 'I' for Inactive)
REMARK    1  A    between atoms: C_1  and  N_2
REMARK    2  A    between atoms: C_11  and  C_12
REMARK    3  A    between atoms: N_21  and  C_22
REMARK                            x       y       z     vdW  Elec       q    Type
REMARK                         _______ _______ _______ _____ _____    ______ ____
ROOT
ATOM      1  C   UNL     1      -2.677  11.881  23.400  0.00  0.00    +0.000 C 
ATOM      2  N   UNL     1      -1.348  11.563  22.883  0.00  0.00    +0.000 NA
ATOM      3  C   UNL     1      -1.250  11.912  21.445  0.00  0.00    +0.000 C 
ATOM      4  C   UNL     1       0.124  11.544  20.836  0.00  0.00    +0.000 C 
ATOM      5  N   UNL     1       0.383  10.121  21.071  0.00  0.00    +0.000 N 
ATOM      6  C   UNL     1       1.199   9.434  20.205  0.00  0.00    +0.000 A 
ATOM      7  N   UNL     1       1.632  10.064  19.105  0.00  0.00    +0.000 NA
ATOM      8  C   UNL     1       2.384   9.364  18.235  0.00  0.00    +0.000 A 
ATOM      9  C   UNL     1       2.725   8.044  18.396  0.00  0.00    +0.000 A 
ATOM     10  N   UNL     1       3.516   7.394  17.438  0.00  0.00    +0.000 NA
ATOM     11  C   UNL     1       3.791   6.136  17.629  0.00  0.00    +0.000 A 
ATOM     12  C   UNL     1       3.317   5.385  18.880  0.00  0.00    +0.000 A 
ATOM     13  O   UNL     1       3.721   4.244  19.081  0.00  0.00    +0.000 OA
ATOM     14  N   UNL     1       2.447   6.068  19.726  0.00  0.00    +0.000 N 
ATOM     15  C   UNL     1       2.197   7.453  19.531  0.00  0.00    +0.000 A 
ATOM     16  N   UNL     1       1.461   8.135  20.440  0.00  0.00    +0.000 NA
ATOM     17  C   UNL     1       0.322   9.716  22.474  0.00  0.00    +0.000 C 
ATOM     18  C   UNL     1      -1.055  10.120  23.054  0.00  0.00    +0.000 C 
ENDROOT
BRANCH  11  19
ATOM     19  C   UNL     1       4.577   5.408  16.591  0.00  0.00    +0.000 A 
ATOM     20  C   UNL     1       5.189   6.129  15.553  0.00  0.00    +0.000 A 
ATOM     21  C   UNL     1       5.901   5.452  14.557  0.00  0.00    +0.000 A 
ATOM     22  C   UNL     1       5.991   4.063  14.596  0.00  0.00    +0.000 A 
ATOM     23  F   UNL     1       6.669   3.416  13.639  0.00  0.00    +0.000 F 
ATOM     24  C   UNL     1       5.384   3.339  15.611  0.00  0.00    +0.000 A 
ATOM     25  C   UNL     1       4.666   4.006  16.603  0.00  0.00    +0.000 A 
ENDBRANCH  11  19
BRANCH  14  26
ATOM     26  C   UNL     1       1.902   5.382  20.876  0.00  0.00    +0.000 C 
ATOM     27  C   UNL     1       1.162   4.070  20.796  0.00  0.00    +0.000 C 
ATOM     28  C   UNL     1       2.542   4.095  21.366  0.00  0.00    +0.000 C 
ENDBRANCH  14  26
TORSDOF 2
ENDMDL
MODEL 5
REMARK VINA RESULT:      -7.2      3.255      4.444
REMARK  Name = 
REMARK  3 active torsions:
REMARK  status: ('A' for Active; 'I' for Inactive)
REMARK    1  A    between atoms: C_1  and  N_2
REMARK    2  A    between atoms: C_11  and  C_12
REMARK    3  A    between atoms: N_21  and  C_22
REMARK                            x       y       z     vdW  Elec       q    Type
REMARK                         _______ _______ _______ _____ _____    ______ ____
ROOT
ATOM      1  C   UNL     1       2.991   3.993  17.530  0.00  0.00    +0.000 C 
ATOM      2  N   UNL     1       3.104   5.213  18.326  0.00  0.00    +0.000 NA
ATOM      3  C   UNL     1       2.568   4.998  19.691  0.00  0.00    +0.000 C 
ATOM      4  C   UNL     1       2.616   6.279  20.558  0.00  0.00    +0.000 C 
ATOM      5  N   UNL     1       1.908   7.354  19.858  0.00  0.00    +0.000 N 
ATOM      6  C   UNL     1       1.332   8.367  20.586  0.00  0.00    +0.000 A 
ATOM      7  N   UNL     1       1.336   8.269  21.922  0.00  0.00    +0.000 NA
ATOM      8  C   UNL     1       0.720   9.239  22.624  0.00  0.00    +0.000 A 
ATOM      9  C   UNL     1       0.078  10.313  22.060  0.00  0.00    +0.000 A 
ATOM     10  N   UNL     1      -0.537  11.278  22.870  0.00  0.00    +0.000 NA
ATOM     11  C   UNL     1      -1.151  12.263  22.282  0.00  0.00    +0.000 A 
ATOM     12  C   UNL     1      -1.169  12.410  20.755  0.00  0.00    +0.000 A 
ATOM     13  O   UNL     1      -1.638  13.429  20.258  0.00  0.00    +0.000 OA
ATOM     14  N   UNL     1      -0.633  11.356  20.020  0.00  0.00    +0.000 N 
ATOM     15  C   UNL     1       0.076  10.312  20.676  0.00  0.00    +0.000 A 
ATOM     16  N   UNL     1       0.710   9.370  19.940  0.00  0.00    +0.000 NA
ATOM     17  C   UNL     1       2.403   7.630  18.511  0.00  0.00    +0.000 C 
ATOM     18  C   UNL     1       2.362   6.324  17.682  0.00  0.00    +0.000 C 
ENDROOT
BRANCH  11  19
ATOM     19  C   UNL     1      -1.866  13.267  23.123  0.00  0.00    +0.000 A 
ATOM     20  C   UNL     1      -1.159  14.362  23.647  0.00  0.00    +0.000 A 
ATOM     21  C   UNL     1      -1.814  15.290  24.464  0.00  0.00    +0.000 A 
ATOM     22  C   UNL     1      -3.162  15.118  24.761  0.00  0.00    +0.000 A 
ATOM     23  F   UNL     1      -3.787  16.005  25.547  0.00  0.00    +0.000 F 
ATOM     24  C   UNL     1      -3.870  14.036  24.257  0.00  0.00    +0.000 A 
ATOM     25  C   UNL     1      -3.223  13.102  23.448  0.00  0.00    +0.000 A 
ENDBRANCH  11  19
BRANCH  14  26
ATOM     26  C   UNL     1      -0.698  11.400  18.576  0.00  0.00    +0.000 C 
ATOM     27  C   UNL     1      -1.227  10.272  17.727  0.00  0.00    +0.000 C 
ATOM     28  C   UNL     1      -2.043  11.513  17.880  0.00  0.00    +0.000 C 
ENDBRANCH  14  26
TORSDOF 2
ENDMDL
MODEL 6
REMARK VINA RESULT:      -6.9      3.616      8.492
REMARK  Name = 
REMARK  3 active torsions:
REMARK  status: ('A' for Active; 'I' for Inactive)
REMARK    1  A    between atoms: C_1  and  N_2
REMARK    2  A    between atoms: C_11  and  C_12
REMARK    3  A    between atoms: N_21  and  C_22
REMARK                            x       y       z     vdW  Elec       q    Type
REMARK                         _______ _______ _______ _____ _____    ______ ____
ROOT
ATOM      1  C   UNL     1      -1.156  16.756  20.540  0.00  0.00    +0.000 C 
ATOM      2  N   UNL     1      -0.076  15.794  20.332  0.00  0.00    +0.000 NA
ATOM      3  C   UNL     1      -0.071  15.309  18.932  0.00  0.00    +0.000 C 
ATOM      4  C   UNL     1       1.024  14.246  18.674  0.00  0.00    +0.000 C 
ATOM      5  N   UNL     1       0.856  13.148  19.631  0.00  0.00    +0.000 N 
ATOM      6  C   UNL     1       1.291  11.889  19.295  0.00  0.00    +0.000 A 
ATOM      7  N   UNL     1       1.745  11.686  18.051  0.00  0.00    +0.000 NA
ATOM      8  C   UNL     1       2.116  10.436  17.714  0.00  0.00    +0.000 A 
ATOM      9  C   UNL     1       2.046   9.355  18.558  0.00  0.00    +0.000 A 
ATOM     10  N   UNL     1       2.456   8.087  18.122  0.00  0.00    +0.000 NA
ATOM     11  C   UNL     1       2.348   7.094  18.956  0.00  0.00    +0.000 A 
ATOM     12  C   UNL     1       1.839   7.292  20.390  0.00  0.00    +0.000 A 
ATOM     13  O   UNL     1       1.890   6.352  21.177  0.00  0.00    +0.000 OA
ATOM     14  N   UNL     1       1.349   8.555  20.709  0.00  0.00    +0.000 N 
ATOM     15  C   UNL     1       1.519   9.640  19.806  0.00  0.00    +0.000 A 
ATOM     16  N   UNL     1       1.164  10.890  20.187  0.00  0.00    +0.000 NA
ATOM     17  C   UNL     1       0.863  13.559  21.034  0.00  0.00    +0.000 C 
ATOM     18  C   UNL     1      -0.227  14.637  21.247  0.00  0.00    +0.000 C 
ENDROOT
BRANCH  11  19
ATOM     19  C   UNL     1       2.720   5.725  18.492  0.00  0.00    +0.000 A 
ATOM     20  C   UNL     1       1.725   4.869  17.993  0.00  0.00    +0.000 A 
ATOM     21  C   UNL     1       2.058   3.573  17.586  0.00  0.00    +0.000 A 
ATOM     22  C   UNL     1       3.376   3.134  17.688  0.00  0.00    +0.000 A 
ATOM     23  F   UNL     1       3.692   1.891  17.303  0.00  0.00    +0.000 F 
ATOM     24  C   UNL     1       4.366   3.967  18.188  0.00  0.00    +0.000 A 
ATOM     25  C   UNL     1       4.041   5.258  18.603  0.00  0.00    +0.000 A 
ENDBRANCH  11  19
BRANCH  14  26
ATOM     26  C   UNL     1       0.779   8.778  22.019  0.00  0.00    +0.000 C 
ATOM     27  C   UNL     1      -0.158   9.914  22.342  0.00  0.00    +0.000 C 
ATOM     28  C   UNL     1      -0.699   8.525  22.257  0.00  0.00    +0.000 C 
ENDBRANCH  14  26
TORSDOF 2
ENDMDL
MODEL 7
REMARK VINA RESULT:      -6.7      3.326      4.577
REMARK  Name = 
REMARK  3 active torsions:
REMARK  status: ('A' for Active; 'I' for Inactive)
REMARK    1  A    between atoms: C_1  and  N_2
REMARK    2  A    between atoms: C_11  and  C_12
REMARK    3  A    between atoms: N_21  and  C_22
REMARK                            x       y       z     vdW  Elec       q    Type
REMARK                         _______ _______ _______ _____ _____    ______ ____
ROOT
ATOM      1  C   UNL     1       2.698   4.327  17.737  0.00  0.00    +0.000 C 
ATOM      2  N   UNL     1       2.807   5.449  18.667  0.00  0.00    +0.000 NA
ATOM      3  C   UNL     1       2.013   5.191  19.892  0.00  0.00    +0.000 C 
ATOM      4  C   UNL     1       2.054   6.376  20.888  0.00  0.00    +0.000 C 
ATOM      5  N   UNL     1       1.614   7.592  20.198  0.00  0.00    +0.000 N 
ATOM      6  C   UNL     1       1.039   8.607  20.924  0.00  0.00    +0.000 A 
ATOM      7  N   UNL     1       0.790   8.396  22.224  0.00  0.00    +0.000 NA
ATOM      8  C   UNL     1       0.176   9.375  22.913  0.00  0.00    +0.000 A 
ATOM      9  C   UNL     1      -0.225  10.570  22.367  0.00  0.00    +0.000 A 
ATOM     10  N   UNL     1      -0.858  11.535  23.162  0.00  0.00    +0.000 NA
ATOM     11  C   UNL     1      -1.237  12.641  22.589  0.00  0.00    +0.000 A 
ATOM     12  C   UNL     1      -0.963  12.919  21.105  0.00  0.00    +0.000 A 
ATOM     13  O   UNL     1      -1.212  14.030  20.649  0.00  0.00    +0.000 OA
ATOM     14  N   UNL     1      -0.430  11.869  20.362  0.00  0.00    +0.000 N 
ATOM     15  C   UNL     1       0.023  10.688  21.011  0.00  0.00    +0.000 A 
ATOM     16  N   UNL     1       0.665   9.735  20.294  0.00  0.00    +0.000 NA
ATOM     17  C   UNL     1       2.372   7.914  18.991  0.00  0.00    +0.000 C 
ATOM     18  C   UNL     1       2.328   6.700  18.031  0.00  0.00    +0.000 C 
ENDROOT
BRANCH  11  19
ATOM     19  C   UNL     1      -1.969  13.656  23.402  0.00  0.00    +0.000 A 
ATOM     20  C   UNL     1      -3.373  13.653  23.413  0.00  0.00    +0.000 A 
ATOM     21  C   UNL     1      -4.068  14.620  24.145  0.00  0.00    +0.000 A 
ATOM     22  C   UNL     1      -3.363  15.589  24.854  0.00  0.00    +0.000 A 
ATOM     23  F   UNL     1      -4.030  16.518  25.551  0.00  0.00    +0.000 F 
ATOM     24  C   UNL     1      -1.976  15.608  24.844  0.00  0.00    +0.000 A 
ATOM     25  C   UNL     1      -1.275  14.652  24.110  0.00  0.00    +0.000 A 
ENDBRANCH  11  19
BRANCH  14  26
ATOM     26  C   UNL     1      -0.229  12.045  18.941  0.00  0.00    +0.000 C 
ATOM     27  C   UNL     1      -0.249  13.387  18.253  0.00  0.00    +0.000 C 
ATOM     28  C   UNL     1       1.053  12.678  18.429  0.00  0.00    +0.000 C 
ENDBRANCH  14  26
TORSDOF 2
ENDMDL
MODEL 8
REMARK VINA RESULT:      -6.6      4.151      8.869
REMARK  Name = 
REMARK  3 active torsions:
REMARK  status: ('A' for Active; 'I' for Inactive)
REMARK    1  A    between atoms: C_1  and  N_2
REMARK    2  A    between atoms: C_11  and  C_12
REMARK    3  A    between atoms: N_21  and  C_22
REMARK                            x       y       z     vdW  Elec       q    Type
REMARK                         _______ _______ _______ _____ _____    ______ ____
ROOT
ATOM      1  C   UNL     1      -3.823  16.785  24.629  0.00  0.00    +0.000 C 
ATOM      2  N   UNL     1      -3.789  15.440  24.059  0.00  0.00    +0.000 NA
ATOM      3  C   UNL     1      -3.014  14.524  24.929  0.00  0.00    +0.000 C 
ATOM      4  C   UNL     1      -2.904  13.096  24.340  0.00  0.00    +0.000 C 
ATOM      5  N   UNL     1      -2.335  13.180  22.992  0.00  0.00    +0.000 N 
ATOM      6  C   UNL     1      -1.636  12.110  22.488  0.00  0.00    +0.000 A 
ATOM      7  N   UNL     1      -1.397  11.070  23.299  0.00  0.00    +0.000 NA
ATOM      8  C   UNL     1      -0.663  10.051  22.813  0.00  0.00    +0.000 A 
ATOM      9  C   UNL     1      -0.134  10.015  21.546  0.00  0.00    +0.000 A 
ATOM     10  N   UNL     1       0.618   8.910  21.123  0.00  0.00    +0.000 NA
ATOM     11  C   UNL     1       1.114   8.937  19.921  0.00  0.00    +0.000 A 
ATOM     12  C   UNL     1       0.855  10.108  18.964  0.00  0.00    +0.000 A 
ATOM     13  O   UNL     1       1.226  10.021  17.798  0.00  0.00    +0.000 OA
ATOM     14  N   UNL     1       0.194  11.213  19.495  0.00  0.00    +0.000 N 
ATOM     15  C   UNL     1      -0.384  11.148  20.792  0.00  0.00    +0.000 A 
ATOM     16  N   UNL     1      -1.142  12.177  21.239  0.00  0.00    +0.000 NA
ATOM     17  C   UNL     1      -3.066  14.055  22.078  0.00  0.00    +0.000 C 
ATOM     18  C   UNL     1      -3.176  15.464  22.709  0.00  0.00    +0.000 C 
ENDROOT
BRANCH  11  19
ATOM     19  C   UNL     1       1.970   7.800  19.472  0.00  0.00    +0.000 A 
ATOM     20  C   UNL     1       2.096   6.664  20.287  0.00  0.00    +0.000 A 
ATOM     21  C   UNL     1       2.922   5.607  19.890  0.00  0.00    +0.000 A 
ATOM     22  C   UNL     1       3.624   5.692  18.691  0.00  0.00    +0.000 A 
ATOM     23  F   UNL     1       4.418   4.682  18.314  0.00  0.00    +0.000 F 
ATOM     24  C   UNL     1       3.515   6.813  17.881  0.00  0.00    +0.000 A 
ATOM     25  C   UNL     1       2.700   7.874  18.273  0.00  0.00    +0.000 A 
ENDBRANCH  11  19
BRANCH  14  26
ATOM     26  C   UNL     1      -0.004  12.379  18.664  0.00  0.00    +0.000 C 
ATOM     27  C   UNL     1      -0.119  13.783  19.205  0.00  0.00    +0.000 C 
ATOM     28  C   UNL     1       1.122  13.380  18.479  0.00  0.00    +0.000 C 
ENDBRANCH  14  26
TORSDOF 2
ENDMDL
MODEL 9
REMARK VINA RESULT:      -6.5      4.025      8.726
REMARK  Name = 
REMARK  3 active torsions:
REMARK  status: ('A' for Active; 'I' for Inactive)
REMARK    1  A    between atoms: C_1  and  N_2
REMARK    2  A    between atoms: C_11  and  C_12
REMARK    3  A    between atoms: N_21  and  C_22
REMARK                            x       y       z     vdW  Elec       q    Type
REMARK                         _______ _______ _______ _____ _____    ______ ____
ROOT
ATOM      1  C   UNL     1      -3.754  16.304  24.225  0.00  0.00    +0.000 C 
ATOM      2  N   UNL     1      -3.678  14.995  23.580  0.00  0.00    +0.000 NA
ATOM      3  C   UNL     1      -3.011  14.013  24.467  0.00  0.00    +0.000 C 
ATOM      4  C   UNL     1      -2.858  12.622  23.807  0.00  0.00    +0.000 C 
ATOM      5  N   UNL     1      -2.150  12.775  22.532  0.00  0.00    +0.000 N 
ATOM      6  C   UNL     1      -1.417  11.724  22.038  0.00  0.00    +0.000 A 
ATOM      7  N   UNL     1      -1.277  10.633  22.804  0.00  0.00    +0.000 NA
ATOM      8  C   UNL     1      -0.510   9.631  22.335  0.00  0.00    +0.000 A 
ATOM      9  C   UNL     1       0.148   9.660  21.130  0.00  0.00    +0.000 A 
ATOM     10  N   UNL     1       0.925   8.568  20.720  0.00  0.00    +0.000 NA
ATOM     11  C   UNL     1       1.545   8.658  19.579  0.00  0.00    +0.000 A 
ATOM     12  C   UNL     1       1.402   9.889  18.674  0.00  0.00    +0.000 A 
ATOM     13  O   UNL     1       1.891   9.864  17.549  0.00  0.00    +0.000 OA
ATOM     14  N   UNL     1       0.704  10.972  19.201  0.00  0.00    +0.000 N 
ATOM     15  C   UNL     1      -0.007  10.841  20.425  0.00  0.00    +0.000 A 
ATOM     16  N   UNL     1      -0.794  11.856  20.853  0.00  0.00    +0.000 NA
ATOM     17  C   UNL     1      -2.771  13.717  21.602  0.00  0.00    +0.000 C 
ATOM     18  C   UNL     1      -2.928  15.088  22.305  0.00  0.00    +0.000 C 
ENDROOT
BRANCH  11  19
ATOM     19  C   UNL     1       2.428   7.533  19.152  0.00  0.00    +0.000 A 
ATOM     20  C   UNL     1       3.121   7.619  17.934  0.00  0.00    +0.000 A 
ATOM     21  C   UNL     1       3.925   6.557  17.510  0.00  0.00    +0.000 A 
ATOM     22  C   UNL     1       4.027   5.412  18.296  0.00  0.00    +0.000 A 
ATOM     23  F   UNL     1       4.794   4.393  17.887  0.00  0.00    +0.000 F 
ATOM     24  C   UNL     1       3.341   5.311  19.498  0.00  0.00    +0.000 A 
ATOM     25  C   UNL     1       2.531   6.363  19.923  0.00  0.00    +0.000 A 
ENDBRANCH  11  19
BRANCH  14  26
ATOM     26  C   UNL     1       0.609  12.190  18.427  0.00  0.00    +0.000 C 
ATOM     27  C   UNL     1       0.605  13.570  19.036  0.00  0.00    +0.000 C 
ATOM     28  C   UNL     1       1.815  13.103  18.296  0.00  0.00    +0.000 C 
ENDBRANCH  14  26
TORSDOF 2
ENDMDL
