MODEL 1
REMARK VINA RESULT:      -8.3      0.000      0.000
REMARK  Name = 
REMARK  9 active torsions:
REMARK  status: ('A' for Active; 'I' for Inactive)
REMARK    1  A    between atoms: C_1  and  O_2
REMARK    2  A    between atoms: O_2  and  C_3
REMARK    3  A    between atoms: C_6  and  C_7
REMARK    4  A    between atoms: C_11  and  C_12
REMARK    5  A    between atoms: N_13  and  N_14
REMARK    6  A    between atoms: N_14  and  S_15
REMARK    7  A    between atoms: S_15  and  C_18
REMARK    8  A    between atoms: C_25  and  O_26
REMARK    9  A    between atoms: O_26  and  C_27
REMARK                            x       y       z     vdW  Elec       q    Type
REMARK                         _______ _______ _______ _____ _____    ______ ____
ROOT
ATOM      1  C   UNL     1       2.689   4.219  18.680  0.00  0.00    +0.000 A 
ATOM      2  N   UNL     1       1.785   3.362  18.086  0.00  0.00    +0.000 N 
ATOM      3  N   UNL     1       2.322   2.255  17.570  0.00  0.00    +0.000 NA
ATOM      4  C   UNL     1       3.608   2.361  17.868  0.00  0.00    +0.000 A 
ATOM      5  C   UNL     1       3.917   3.565  18.552  0.00  0.00    +0.000 A 
ATOM      6  H   UNL     1       0.783   3.503  17.988  0.00  0.00    +0.000 HD
ENDROOT
BRANCH   1  10
ATOM      7  C   UNL     1       1.654   8.160  20.180  0.00  0.00    +0.000 A 
ATOM      8  C   UNL     1       1.532   7.012  20.994  0.00  0.00    +0.000 A 
ATOM      9  C   UNL     1       1.816   5.710  20.520  0.00  0.00    +0.000 A 
ATOM     10  C   UNL     1       2.238   5.522  19.209  0.00  0.00    +0.000 A 
ATOM     11  C   UNL     1       2.309   6.666  18.398  0.00  0.00    +0.000 A 
ATOM     12  C   UNL     1       2.036   7.980  18.846  0.00  0.00    +0.000 A 
BRANCH   7  14
ATOM     13  C   UNL     1       0.776   9.269  22.111  0.00  0.00    +0.000 C 
ATOM     14  O   UNL     1       1.126   9.297  20.732  0.00  0.00    +0.000 OA
ENDBRANCH   7  14
BRANCH  12  15
ATOM     15  O   UNL     1       2.129   8.818  17.783  0.00  0.00    +0.000 OA
ATOM     16  C   UNL     1       2.144  10.222  17.865  0.00  0.00    +0.000 C 
ENDBRANCH  12  15
ENDBRANCH   1  10
BRANCH   5  17
ATOM     17  C   UNL     1       5.181   3.991  19.101  0.00  0.00    +0.000 C 
ATOM     18  N   UNL     1       6.311   4.173  18.484  0.00  0.00    +0.000 NA
BRANCH  18  19
ATOM     19  N   UNL     1       6.410   4.074  17.052  0.00  0.00    +0.000 N 
ATOM     20  H   UNL     1       6.015   3.283  16.539  0.00  0.00    +0.000 HD
BRANCH  19  21
ATOM     21  S   UNL     1       6.340   5.528  16.136  0.00  0.00    +0.000 S 
ATOM     22  O   UNL     1       5.023   6.115  16.289  0.00  0.00    +0.000 OA
ATOM     23  O   UNL     1       7.545   6.261  16.451  0.00  0.00    +0.000 OA
BRANCH  21  24
ATOM     24  C   UNL     1       6.502   4.923  14.467  0.00  0.00    +0.000 A 
ATOM     25  C   UNL     1       5.592   3.982  13.979  0.00  0.00    +0.000 A 
ATOM     26  C   UNL     1       5.790   3.433  12.711  0.00  0.00    +0.000 A 
ATOM     27  C   UNL     1       6.878   3.837  11.936  0.00  0.00    +0.000 A 
ATOM     28  C   UNL     1       7.747   4.827  12.404  0.00  0.00    +0.000 A 
ATOM     29  C   UNL     1       7.554   5.383  13.669  0.00  0.00    +0.000 A 
ENDBRANCH  21  24
ENDBRANCH  19  21
ENDBRANCH  18  19
ENDBRANCH   5  17
TORSDOF 7
ENDMDL
MODEL 2
REMARK VINA RESULT:      -8.1      2.985      5.069
REMARK  Name = 
REMARK  9 active torsions:
REMARK  status: ('A' for Active; 'I' for Inactive)
REMARK    1  A    between atoms: C_1  and  O_2
REMARK    2  A    between atoms: O_2  and  C_3
REMARK    3  A    between atoms: C_6  and  C_7
REMARK    4  A    between atoms: C_11  and  C_12
REMARK    5  A    between atoms: N_13  and  N_14
REMARK    6  A    between atoms: N_14  and  S_15
REMARK    7  A    between atoms: S_15  and  C_18
REMARK    8  A    between atoms: C_25  and  O_26
REMARK    9  A    between atoms: O_26  and  C_27
REMARK                            x       y       z     vdW  Elec       q    Type
REMARK                         _______ _______ _______ _____ _____    ______ ____
ROOT
ATOM      1  C   UNL     1       4.498   6.630  17.402  0.00  0.00    +0.000 A 
ATOM      2  N   UNL     1       4.479   6.860  16.041  0.00  0.00    +0.000 N 
ATOM      3  N   UNL     1       5.566   6.443  15.389  0.00  0.00    +0.000 NA
ATOM      4  C   UNL     1       6.305   5.884  16.336  0.00  0.00    +0.000 A 
ATOM      5  C   UNL     1       5.711   5.970  17.621  0.00  0.00    +0.000 A 
ATOM      6  H   UNL     1       3.747   7.324  15.511  0.00  0.00    +0.000 HD
ENDROOT
BRANCH   1  10
ATOM      7  C   UNL     1       1.432   8.345  19.952  0.00  0.00    +0.000 A 
ATOM      8  C   UNL     1       2.042   7.111  20.270  0.00  0.00    +0.000 A 
ATOM      9  C   UNL     1       3.009   6.504  19.435  0.00  0.00    +0.000 A 
ATOM     10  C   UNL     1       3.398   7.124  18.253  0.00  0.00    +0.000 A 
ATOM     11  C   UNL     1       2.750   8.326  17.928  0.00  0.00    +0.000 A 
ATOM     12  C   UNL     1       1.783   8.958  18.745  0.00  0.00    +0.000 A 
BRANCH   7  14
ATOM     13  C   UNL     1       0.631   9.027  22.102  0.00  0.00    +0.000 C 
ATOM     14  O   UNL     1       0.367   8.666  20.751  0.00  0.00    +0.000 OA
ENDBRANCH   7  14
BRANCH  12  15
ATOM     15  O   UNL     1       1.319  10.050  18.086  0.00  0.00    +0.000 OA
ATOM     16  C   UNL     1       1.095  11.308  18.672  0.00  0.00    +0.000 C 
ENDBRANCH  12  15
ENDBRANCH   1  10
BRANCH   5  17
ATOM     17  C   UNL     1       6.175   5.414  18.868  0.00  0.00    +0.000 C 
ATOM     18  N   UNL     1       5.999   4.212  19.333  0.00  0.00    +0.000 NA
BRANCH  18  19
ATOM     19  N   UNL     1       5.371   3.186  18.545  0.00  0.00    +0.000 N 
ATOM     20  H   UNL     1       5.779   2.855  17.669  0.00  0.00    +0.000 HD
BRANCH  19  21
ATOM     21  S   UNL     1       4.535   1.931  19.373  0.00  0.00    +0.000 S 
ATOM     22  O   UNL     1       4.304   0.835  18.454  0.00  0.00    +0.000 OA
ATOM     23  O   UNL     1       5.228   1.744  20.628  0.00  0.00    +0.000 OA
BRANCH  21  24
ATOM     24  C   UNL     1       2.970   2.706  19.737  0.00  0.00    +0.000 A 
ATOM     25  C   UNL     1       2.621   2.974  21.063  0.00  0.00    +0.000 A 
ATOM     26  C   UNL     1       1.351   3.479  21.347  0.00  0.00    +0.000 A 
ATOM     27  C   UNL     1       0.450   3.729  20.311  0.00  0.00    +0.000 A 
ATOM     28  C   UNL     1       0.830   3.522  18.983  0.00  0.00    +0.000 A 
ATOM     29  C   UNL     1       2.099   3.020  18.690  0.00  0.00    +0.000 A 
ENDBRANCH  21  24
ENDBRANCH  19  21
ENDBRANCH  18  19
ENDBRANCH   5  17
TORSDOF 7
ENDMDL
MODEL 3
REMARK VINA RESULT:      -8.1      0.768      2.103
REMARK  Name = 
REMARK  9 active torsions:
REMARK  status: ('A' for Active; 'I' for Inactive)
REMARK    1  A    between atoms: C_1  and  O_2
REMARK    2  A    between atoms: O_2  and  C_3
REMARK    3  A    between atoms: C_6  and  C_7
REMARK    4  A    between atoms: C_11  and  C_12
REMARK    5  A    between atoms: N_13  and  N_14
REMARK    6  A    between atoms: N_14  and  S_15
REMARK    7  A    between atoms: S_15  and  C_18
REMARK    8  A    between atoms: C_25  and  O_26
REMARK    9  A    between atoms: O_26  and  C_27
REMARK                            x       y       z     vdW  Elec       q    Type
REMARK                         _______ _______ _______ _____ _____    ______ ____
ROOT
ATOM      1  C   UNL     1       2.750   4.815  18.778  0.00  0.00    +0.000 A 
ATOM      2  N   UNL     1       1.743   3.924  18.465  0.00  0.00    +0.000 N 
ATOM      3  N   UNL     1       2.144   2.661  18.311  0.00  0.00    +0.000 NA
ATOM      4  C   UNL     1       3.442   2.709  18.570  0.00  0.00    +0.000 A 
ATOM      5  C   UNL     1       3.898   4.021  18.860  0.00  0.00    +0.000 A 
ATOM      6  H   UNL     1       0.761   4.140  18.323  0.00  0.00    +0.000 HD
ENDROOT
BRANCH   1  10
ATOM      7  C   UNL     1       1.593   8.981  19.165  0.00  0.00    +0.000 A 
ATOM      8  C   UNL     1       2.120   8.478  17.956  0.00  0.00    +0.000 A 
ATOM      9  C   UNL     1       2.550   7.138  17.813  0.00  0.00    +0.000 A 
ATOM     10  C   UNL     1       2.457   6.258  18.885  0.00  0.00    +0.000 A 
ATOM     11  C   UNL     1       1.976   6.784  20.094  0.00  0.00    +0.000 A 
ATOM     12  C   UNL     1       1.535   8.118  20.265  0.00  0.00    +0.000 A 
BRANCH   7  14
ATOM     13  C   UNL     1       2.080  11.101  18.167  0.00  0.00    +0.000 C 
ATOM     14  O   UNL     1       1.442  10.342  19.188  0.00  0.00    +0.000 OA
ENDBRANCH   7  14
BRANCH  12  15
ATOM     15  O   UNL     1       1.213   8.294  21.571  0.00  0.00    +0.000 OA
ATOM     16  C   UNL     1       0.009   8.854  22.034  0.00  0.00    +0.000 C 
ENDBRANCH  12  15
ENDBRANCH   1  10
BRANCH   5  17
ATOM     17  C   UNL     1       5.215   4.450  19.261  0.00  0.00    +0.000 C 
ATOM     18  N   UNL     1       6.294   4.530  18.541  0.00  0.00    +0.000 NA
BRANCH  18  19
ATOM     19  N   UNL     1       6.270   4.292  17.123  0.00  0.00    +0.000 N 
ATOM     20  H   UNL     1       5.719   3.536  16.713  0.00  0.00    +0.000 HD
BRANCH  19  21
ATOM     21  S   UNL     1       6.365   5.653  16.075  0.00  0.00    +0.000 S 
ATOM     22  O   UNL     1       5.091   6.347  16.091  0.00  0.00    +0.000 OA
ATOM     23  O   UNL     1       7.605   6.324  16.396  0.00  0.00    +0.000 OA
BRANCH  21  24
ATOM     24  C   UNL     1       6.571   4.881  14.481  0.00  0.00    +0.000 A 
ATOM     25  C   UNL     1       7.593   5.308  13.631  0.00  0.00    +0.000 A 
ATOM     26  C   UNL     1       7.680   4.776  12.343  0.00  0.00    +0.000 A 
ATOM     27  C   UNL     1       6.762   3.813  11.922  0.00  0.00    +0.000 A 
ATOM     28  C   UNL     1       5.783   3.342  12.800  0.00  0.00    +0.000 A 
ATOM     29  C   UNL     1       5.691   3.867  14.090  0.00  0.00    +0.000 A 
ENDBRANCH  21  24
ENDBRANCH  19  21
ENDBRANCH  18  19
ENDBRANCH   5  17
TORSDOF 7
ENDMDL
MODEL 4
REMARK VINA RESULT:      -8.0      0.833      1.348
REMARK  Name = 
REMARK  9 active torsions:
REMARK  status: ('A' for Active; 'I' for Inactive)
REMARK    1  A    between atoms: C_1  and  O_2
REMARK    2  A    between atoms: O_2  and  C_3
REMARK    3  A    between atoms: C_6  and  C_7
REMARK    4  A    between atoms: C_11  and  C_12
REMARK    5  A    between atoms: N_13  and  N_14
REMARK    6  A    between atoms: N_14  and  S_15
REMARK    7  A    between atoms: S_15  and  C_18
REMARK    8  A    between atoms: C_25  and  O_26
REMARK    9  A    between atoms: O_26  and  C_27
REMARK                            x       y       z     vdW  Elec       q    Type
REMARK                         _______ _______ _______ _____ _____    ______ ____
ROOT
ATOM      1  C   UNL     1       2.582   3.957  18.726  0.00  0.00    +0.000 A 
ATOM      2  N   UNL     1       1.709   3.190  17.981  0.00  0.00    +0.000 N 
ATOM      3  N   UNL     1       2.250   2.099  17.435  0.00  0.00    +0.000 NA
ATOM      4  C   UNL     1       3.502   2.120  17.867  0.00  0.00    +0.000 A 
ATOM      5  C   UNL     1       3.790   3.254  18.669  0.00  0.00    +0.000 A 
ATOM      6  H   UNL     1       0.730   3.387  17.795  0.00  0.00    +0.000 HD
ENDROOT
BRANCH   1  10
ATOM      7  C   UNL     1       1.566   7.815  20.437  0.00  0.00    +0.000 A 
ATOM      8  C   UNL     1       1.245   6.612  21.104  0.00  0.00    +0.000 A 
ATOM      9  C   UNL     1       1.521   5.339  20.551  0.00  0.00    +0.000 A 
ATOM     10  C   UNL     1       2.135   5.237  19.307  0.00  0.00    +0.000 A 
ATOM     11  C   UNL     1       2.405   6.441  18.636  0.00  0.00    +0.000 A 
ATOM     12  C   UNL     1       2.145   7.727  19.167  0.00  0.00    +0.000 A 
BRANCH   7  14
ATOM     13  C   UNL     1       1.378   9.226  22.361  0.00  0.00    +0.000 C 
ATOM     14  O   UNL     1       1.028   8.935  21.013  0.00  0.00    +0.000 OA
ENDBRANCH   7  14
BRANCH  12  15
ATOM     15  O   UNL     1       2.458   8.647  18.220  0.00  0.00    +0.000 OA
ATOM     16  C   UNL     1       1.583   9.638  17.741  0.00  0.00    +0.000 C 
ENDBRANCH  12  15
ENDBRANCH   1  10
BRANCH   5  17
ATOM     17  C   UNL     1       5.007   3.576  19.372  0.00  0.00    +0.000 C 
ATOM     18  N   UNL     1       5.986   4.340  18.986  0.00  0.00    +0.000 NA
BRANCH  18  19
ATOM     19  N   UNL     1       5.909   5.103  17.769  0.00  0.00    +0.000 N 
ATOM     20  H   UNL     1       5.327   5.940  17.694  0.00  0.00    +0.000 HD
BRANCH  19  21
ATOM     21  S   UNL     1       7.326   5.223  16.801  0.00  0.00    +0.000 S 
ATOM     22  O   UNL     1       7.690   6.620  16.673  0.00  0.00    +0.000 OA
ATOM     23  O   UNL     1       8.250   4.236  17.314  0.00  0.00    +0.000 OA
BRANCH  21  24
ATOM     24  C   UNL     1       6.745   4.640  15.219  0.00  0.00    +0.000 A 
ATOM     25  C   UNL     1       7.511   4.867  14.072  0.00  0.00    +0.000 A 
ATOM     26  C   UNL     1       6.998   4.506  12.826  0.00  0.00    +0.000 A 
ATOM     27  C   UNL     1       5.741   3.907  12.732  0.00  0.00    +0.000 A 
ATOM     28  C   UNL     1       5.010   3.624  13.889  0.00  0.00    +0.000 A 
ATOM     29  C   UNL     1       5.516   3.979  15.139  0.00  0.00    +0.000 A 
ENDBRANCH  21  24
ENDBRANCH  19  21
ENDBRANCH  18  19
ENDBRANCH   5  17
TORSDOF 7
ENDMDL
MODEL 5
REMARK VINA RESULT:      -7.9      0.935      1.853
REMARK  Name = 
REMARK  9 active torsions:
REMARK  status: ('A' for Active; 'I' for Inactive)
REMARK    1  A    between atoms: C_1  and  O_2
REMARK    2  A    between atoms: O_2  and  C_3
REMARK    3  A    between atoms: C_6  and  C_7
REMARK    4  A    between atoms: C_11  and  C_12
REMARK    5  A    between atoms: N_13  and  N_14
REMARK    6  A    between atoms: N_14  and  S_15
REMARK    7  A    between atoms: S_15  and  C_18
REMARK    8  A    between atoms: C_25  and  O_26
REMARK    9  A    between atoms: O_26  and  C_27
REMARK                            x       y       z     vdW  Elec       q    Type
REMARK                         _______ _______ _______ _____ _____    ______ ____
ROOT
ATOM      1  C   UNL     1       2.874   4.429  19.186  0.00  0.00    +0.000 A 
ATOM      2  N   UNL     1       1.836   3.524  19.276  0.00  0.00    +0.000 N 
ATOM      3  N   UNL     1       2.208   2.243  19.245  0.00  0.00    +0.000 NA
ATOM      4  C   UNL     1       3.529   2.302  19.176  0.00  0.00    +0.000 A 
ATOM      5  C   UNL     1       4.020   3.631  19.124  0.00  0.00    +0.000 A 
ATOM      6  H   UNL     1       0.844   3.737  19.338  0.00  0.00    +0.000 HD
ENDROOT
BRANCH   1  10
ATOM      7  C   UNL     1       1.744   8.618  19.039  0.00  0.00    +0.000 A 
ATOM      8  C   UNL     1       2.349   7.985  17.932  0.00  0.00    +0.000 A 
ATOM      9  C   UNL     1       2.772   6.635  17.965  0.00  0.00    +0.000 A 
ATOM     10  C   UNL     1       2.592   5.876  19.116  0.00  0.00    +0.000 A 
ATOM     11  C   UNL     1       2.032   6.533  20.224  0.00  0.00    +0.000 A 
ATOM     12  C   UNL     1       1.597   7.879  20.218  0.00  0.00    +0.000 A 
BRANCH   7  14
ATOM     13  C   UNL     1       0.308  10.494  18.655  0.00  0.00    +0.000 C 
ATOM     14  O   UNL     1       1.609   9.974  18.904  0.00  0.00    +0.000 OA
ENDBRANCH   7  14
BRANCH  12  15
ATOM     15  O   UNL     1       1.185   8.197  21.471  0.00  0.00    +0.000 OA
ATOM     16  C   UNL     1      -0.108   8.639  21.805  0.00  0.00    +0.000 C 
ENDBRANCH  12  15
ENDBRANCH   1  10
BRANCH   5  17
ATOM     17  C   UNL     1       5.388   4.088  19.123  0.00  0.00    +0.000 C 
ATOM     18  N   UNL     1       6.121   4.444  18.110  0.00  0.00    +0.000 NA
BRANCH  18  19
ATOM     19  N   UNL     1       5.573   4.541  16.783  0.00  0.00    +0.000 N 
ATOM     20  H   UNL     1       4.588   4.350  16.592  0.00  0.00    +0.000 HD
BRANCH  19  21
ATOM     21  S   UNL     1       6.201   5.755  15.738  0.00  0.00    +0.000 S 
ATOM     22  O   UNL     1       5.218   6.813  15.604  0.00  0.00    +0.000 OA
ATOM     23  O   UNL     1       7.549   6.017  16.188  0.00  0.00    +0.000 OA
BRANCH  21  24
ATOM     24  C   UNL     1       6.315   4.885  14.186  0.00  0.00    +0.000 A 
ATOM     25  C   UNL     1       5.319   3.973  13.828  0.00  0.00    +0.000 A 
ATOM     26  C   UNL     1       5.471   3.217  12.665  0.00  0.00    +0.000 A 
ATOM     27  C   UNL     1       6.599   3.387  11.862  0.00  0.00    +0.000 A 
ATOM     28  C   UNL     1       7.559   4.348  12.191  0.00  0.00    +0.000 A 
ATOM     29  C   UNL     1       7.413   5.110  13.351  0.00  0.00    +0.000 A 
ENDBRANCH  21  24
ENDBRANCH  19  21
ENDBRANCH  18  19
ENDBRANCH   5  17
TORSDOF 7
ENDMDL
MODEL 6
REMARK VINA RESULT:      -7.8      2.512      3.790
REMARK  Name = 
REMARK  9 active torsions:
REMARK  status: ('A' for Active; 'I' for Inactive)
REMARK    1  A    between atoms: C_1  and  O_2
REMARK    2  A    between atoms: O_2  and  C_3
REMARK    3  A    between atoms: C_6  and  C_7
REMARK    4  A    between atoms: C_11  and  C_12
REMARK    5  A    between atoms: N_13  and  N_14
REMARK    6  A    between atoms: N_14  and  S_15
REMARK    7  A    between atoms: S_15  and  C_18
REMARK    8  A    between atoms: C_25  and  O_26
REMARK    9  A    between atoms: O_26  and  C_27
REMARK                            x       y       z     vdW  Elec       q    Type
REMARK                         _______ _______ _______ _____ _____    ______ ____
ROOT
ATOM      1  C   UNL     1       2.361   4.779  20.213  0.00  0.00    +0.000 A 
ATOM      2  N   UNL     1       2.585   4.450  21.535  0.00  0.00    +0.000 N 
ATOM      3  N   UNL     1       2.610   3.140  21.787  0.00  0.00    +0.000 NA
ATOM      4  C   UNL     1       2.441   2.587  20.595  0.00  0.00    +0.000 A 
ATOM      5  C   UNL     1       2.268   3.545  19.564  0.00  0.00    +0.000 A 
ATOM      6  H   UNL     1       2.705   5.093  22.312  0.00  0.00    +0.000 HD
ENDROOT
BRANCH   1  10
ATOM      7  C   UNL     1       1.633   8.909  19.092  0.00  0.00    +0.000 A 
ATOM      8  C   UNL     1       2.234   8.002  18.192  0.00  0.00    +0.000 A 
ATOM      9  C   UNL     1       2.527   6.664  18.543  0.00  0.00    +0.000 A 
ATOM     10  C   UNL     1       2.218   6.193  19.815  0.00  0.00    +0.000 A 
ATOM     11  C   UNL     1       1.665   7.119  20.714  0.00  0.00    +0.000 A 
ATOM     12  C   UNL     1       1.358   8.462  20.388  0.00  0.00    +0.000 A 
BRANCH   7  14
ATOM     13  C   UNL     1       0.385  10.892  18.604  0.00  0.00    +0.000 C 
ATOM     14  O   UNL     1       1.632  10.209  18.660  0.00  0.00    +0.000 OA
ENDBRANCH   7  14
BRANCH  12  15
ATOM     15  O   UNL     1       0.913   9.079  21.512  0.00  0.00    +0.000 OA
ATOM     16  C   UNL     1      -0.367   8.910  22.069  0.00  0.00    +0.000 C 
ENDBRANCH  12  15
ENDBRANCH   1  10
BRANCH   5  17
ATOM     17  C   UNL     1       2.137   3.327  18.144  0.00  0.00    +0.000 C 
ATOM     18  N   UNL     1       3.045   3.441  17.220  0.00  0.00    +0.000 NA
BRANCH  18  19
ATOM     19  N   UNL     1       4.420   3.707  17.548  0.00  0.00    +0.000 N 
ATOM     20  H   UNL     1       4.963   3.078  18.144  0.00  0.00    +0.000 HD
BRANCH  19  21
ATOM     21  S   UNL     1       5.404   4.459  16.354  0.00  0.00    +0.000 S 
ATOM     22  O   UNL     1       6.230   3.449  15.722  0.00  0.00    +0.000 OA
ATOM     23  O   UNL     1       4.525   5.316  15.590  0.00  0.00    +0.000 OA
BRANCH  21  24
ATOM     24  C   UNL     1       6.449   5.511  17.344  0.00  0.00    +0.000 A 
ATOM     25  C   UNL     1       6.751   6.802  16.902  0.00  0.00    +0.000 A 
ATOM     26  C   UNL     1       7.657   7.578  17.626  0.00  0.00    +0.000 A 
ATOM     27  C   UNL     1       8.238   7.073  18.789  0.00  0.00    +0.000 A 
ATOM     28  C   UNL     1       7.882   5.806  19.261  0.00  0.00    +0.000 A 
ATOM     29  C   UNL     1       6.975   5.025  18.544  0.00  0.00    +0.000 A 
ENDBRANCH  21  24
ENDBRANCH  19  21
ENDBRANCH  18  19
ENDBRANCH   5  17
TORSDOF 7
ENDMDL
MODEL 7
REMARK VINA RESULT:      -7.8      3.049      5.103
REMARK  Name = 
REMARK  9 active torsions:
REMARK  status: ('A' for Active; 'I' for Inactive)
REMARK    1  A    between atoms: C_1  and  O_2
REMARK    2  A    between atoms: O_2  and  C_3
REMARK    3  A    between atoms: C_6  and  C_7
REMARK    4  A    between atoms: C_11  and  C_12
REMARK    5  A    between atoms: N_13  and  N_14
REMARK    6  A    between atoms: N_14  and  S_15
REMARK    7  A    between atoms: S_15  and  C_18
REMARK    8  A    between atoms: C_25  and  O_26
REMARK    9  A    between atoms: O_26  and  C_27
REMARK                            x       y       z     vdW  Elec       q    Type
REMARK                         _______ _______ _______ _____ _____    ______ ____
ROOT
ATOM      1  C   UNL     1       4.457   6.606  17.443  0.00  0.00    +0.000 A 
ATOM      2  N   UNL     1       4.472   6.813  16.079  0.00  0.00    +0.000 N 
ATOM      3  N   UNL     1       5.558   6.350  15.456  0.00  0.00    +0.000 NA
ATOM      4  C   UNL     1       6.259   5.784  16.427  0.00  0.00    +0.000 A 
ATOM      5  C   UNL     1       5.643   5.911  17.698  0.00  0.00    +0.000 A 
ATOM      6  H   UNL     1       3.767   7.292  15.526  0.00  0.00    +0.000 HD
ENDROOT
BRANCH   1  10
ATOM      7  C   UNL     1       1.402   8.458  19.910  0.00  0.00    +0.000 A 
ATOM      8  C   UNL     1       1.940   7.194  20.238  0.00  0.00    +0.000 A 
ATOM      9  C   UNL     1       2.901   6.543  19.429  0.00  0.00    +0.000 A 
ATOM     10  C   UNL     1       3.357   7.150  18.264  0.00  0.00    +0.000 A 
ATOM     11  C   UNL     1       2.779   8.384  17.927  0.00  0.00    +0.000 A 
ATOM     12  C   UNL     1       1.820   9.059  18.718  0.00  0.00    +0.000 A 
BRANCH   7  14
ATOM     13  C   UNL     1      -0.389   9.996  20.302  0.00  0.00    +0.000 C 
ATOM     14  O   UNL     1       0.330   8.827  20.678  0.00  0.00    +0.000 OA
ENDBRANCH   7  14
BRANCH  12  15
ATOM     15  O   UNL     1       1.431  10.175  18.052  0.00  0.00    +0.000 OA
ATOM     16  C   UNL     1       2.069  11.426  18.138  0.00  0.00    +0.000 C 
ENDBRANCH  12  15
ENDBRANCH   1  10
BRANCH   5  17
ATOM     17  C   UNL     1       6.064   5.361  18.963  0.00  0.00    +0.000 C 
ATOM     18  N   UNL     1       5.881   4.159  19.424  0.00  0.00    +0.000 NA
BRANCH  18  19
ATOM     19  N   UNL     1       5.292   3.125  18.615  0.00  0.00    +0.000 N 
ATOM     20  H   UNL     1       5.715   2.825  17.734  0.00  0.00    +0.000 HD
BRANCH  19  21
ATOM     21  S   UNL     1       4.498   1.827  19.416  0.00  0.00    +0.000 S 
ATOM     22  O   UNL     1       4.298   0.745  18.473  0.00  0.00    +0.000 OA
ATOM     23  O   UNL     1       5.200   1.634  20.665  0.00  0.00    +0.000 OA
BRANCH  21  24
ATOM     24  C   UNL     1       2.911   2.545  19.801  0.00  0.00    +0.000 A 
ATOM     25  C   UNL     1       1.961   2.710  18.789  0.00  0.00    +0.000 A 
ATOM     26  C   UNL     1       0.766   3.372  19.075  0.00  0.00    +0.000 A 
ATOM     27  C   UNL     1       0.519   3.845  20.364  0.00  0.00    +0.000 A 
ATOM     28  C   UNL     1       1.445   3.617  21.386  0.00  0.00    +0.000 A 
ATOM     29  C   UNL     1       2.641   2.954  21.110  0.00  0.00    +0.000 A 
ENDBRANCH  21  24
ENDBRANCH  19  21
ENDBRANCH  18  19
ENDBRANCH   5  17
TORSDOF 7
ENDMDL
MODEL 8
REMARK VINA RESULT:      -7.7      0.534      1.075
REMARK  Name = 
REMARK  9 active torsions:
REMARK  status: ('A' for Active; 'I' for Inactive)
REMARK    1  A    between atoms: C_1  and  O_2
REMARK    2  A    between atoms: O_2  and  C_3
REMARK    3  A    between atoms: C_6  and  C_7
REMARK    4  A    between atoms: C_11  and  C_12
REMARK    5  A    between atoms: N_13  and  N_14
REMARK    6  A    between atoms: N_14  and  S_15
REMARK    7  A    between atoms: S_15  and  C_18
REMARK    8  A    between atoms: C_25  and  O_26
REMARK    9  A    between atoms: O_26  and  C_27
REMARK                            x       y       z     vdW  Elec       q    Type
REMARK                         _______ _______ _______ _____ _____    ______ ____
ROOT
ATOM      1  C   UNL     1       2.660   3.837  19.188  0.00  0.00    +0.000 A 
ATOM      2  N   UNL     1       1.719   2.850  18.969  0.00  0.00    +0.000 N 
ATOM      3  N   UNL     1       2.219   1.684  18.557  0.00  0.00    +0.000 NA
ATOM      4  C   UNL     1       3.527   1.890  18.544  0.00  0.00    +0.000 A 
ATOM      5  C   UNL     1       3.880   3.212  18.915  0.00  0.00    +0.000 A 
ATOM      6  H   UNL     1       0.711   2.936  19.067  0.00  0.00    +0.000 HD
ENDROOT
BRANCH   1  10
ATOM      7  C   UNL     1       1.703   7.937  20.245  0.00  0.00    +0.000 A 
ATOM      8  C   UNL     1       1.427   6.870  21.128  0.00  0.00    +0.000 A 
ATOM      9  C   UNL     1       1.684   5.520  20.794  0.00  0.00    +0.000 A 
ATOM     10  C   UNL     1       2.233   5.200  19.557  0.00  0.00    +0.000 A 
ATOM     11  C   UNL     1       2.457   6.266  18.671  0.00  0.00    +0.000 A 
ATOM     12  C   UNL     1       2.215   7.626  18.981  0.00  0.00    +0.000 A 
BRANCH   7  14
ATOM     13  C   UNL     1       0.798   9.285  22.003  0.00  0.00    +0.000 C 
ATOM     14  O   UNL     1       1.187   9.142  20.642  0.00  0.00    +0.000 OA
ENDBRANCH   7  14
BRANCH  12  15
ATOM     15  O   UNL     1       2.471   8.364  17.871  0.00  0.00    +0.000 OA
ATOM     16  C   UNL     1       2.108   9.713  17.702  0.00  0.00    +0.000 C 
ENDBRANCH  12  15
ENDBRANCH   1  10
BRANCH   5  17
ATOM     17  C   UNL     1       5.195   3.779  19.090  0.00  0.00    +0.000 C 
ATOM     18  N   UNL     1       5.975   4.306  18.193  0.00  0.00    +0.000 NA
BRANCH  18  19
ATOM     19  N   UNL     1       5.535   4.504  16.838  0.00  0.00    +0.000 N 
ATOM     20  H   UNL     1       4.562   4.359  16.561  0.00  0.00    +0.000 HD
BRANCH  19  21
ATOM     21  S   UNL     1       6.277   5.758  15.924  0.00  0.00    +0.000 S 
ATOM     22  O   UNL     1       5.316   6.825  15.724  0.00  0.00    +0.000 OA
ATOM     23  O   UNL     1       7.566   5.994  16.536  0.00  0.00    +0.000 OA
BRANCH  21  24
ATOM     24  C   UNL     1       6.567   4.954  14.359  0.00  0.00    +0.000 A 
ATOM     25  C   UNL     1       7.637   5.362  13.558  0.00  0.00    +0.000 A 
ATOM     26  C   UNL     1       7.792   4.805  12.288  0.00  0.00    +0.000 A 
ATOM     27  C   UNL     1       6.895   3.836  11.835  0.00  0.00    +0.000 A 
ATOM     28  C   UNL     1       5.867   3.386  12.667  0.00  0.00    +0.000 A 
ATOM     29  C   UNL     1       5.707   3.936  13.939  0.00  0.00    +0.000 A 
ENDBRANCH  21  24
ENDBRANCH  19  21
ENDBRANCH  18  19
ENDBRANCH   5  17
TORSDOF 7
ENDMDL
MODEL 9
REMARK VINA RESULT:      -7.7      2.500      3.770
REMARK  Name = 
REMARK  9 active torsions:
REMARK  status: ('A' for Active; 'I' for Inactive)
REMARK    1  A    between atoms: C_1  and  O_2
REMARK    2  A    between atoms: O_2  and  C_3
REMARK    3  A    between atoms: C_6  and  C_7
REMARK    4  A    between atoms: C_11  and  C_12
REMARK    5  A    between atoms: N_13  and  N_14
REMARK    6  A    between atoms: N_14  and  S_15
REMARK    7  A    between atoms: S_15  and  C_18
REMARK    8  A    between atoms: C_25  and  O_26
REMARK    9  A    between atoms: O_26  and  C_27
REMARK                            x       y       z     vdW  Elec       q    Type
REMARK                         _______ _______ _______ _____ _____    ______ ____
ROOT
ATOM      1  C   UNL     1       2.243   5.386  19.911  0.00  0.00    +0.000 A 
ATOM      2  N   UNL     1       2.432   5.017  21.227  0.00  0.00    +0.000 N 
ATOM      3  N   UNL     1       2.448   3.700  21.441  0.00  0.00    +0.000 NA
ATOM      4  C   UNL     1       2.310   3.183  20.229  0.00  0.00    +0.000 A 
ATOM      5  C   UNL     1       2.165   4.172  19.222  0.00  0.00    +0.000 A 
ATOM      6  H   UNL     1       2.532   5.636  22.026  0.00  0.00    +0.000 HD
ENDROOT
BRANCH   1  10
ATOM      7  C   UNL     1       1.551   9.547  18.884  0.00  0.00    +0.000 A 
ATOM      8  C   UNL     1       2.214   8.674  17.993  0.00  0.00    +0.000 A 
ATOM      9  C   UNL     1       2.496   7.326  18.317  0.00  0.00    +0.000 A 
ATOM     10  C   UNL     1       2.114   6.812  19.551  0.00  0.00    +0.000 A 
ATOM     11  C   UNL     1       1.498   7.703  20.444  0.00  0.00    +0.000 A 
ATOM     12  C   UNL     1       1.200   9.054  20.145  0.00  0.00    +0.000 A 
BRANCH   7  14
ATOM     13  C   UNL     1       0.358  11.604  18.614  0.00  0.00    +0.000 C 
ATOM     14  O   UNL     1       1.565  10.860  18.496  0.00  0.00    +0.000 OA
ENDBRANCH   7  14
BRANCH  12  15
ATOM     15  O   UNL     1       0.681   9.630  21.259  0.00  0.00    +0.000 OA
ATOM     16  C   UNL     1       1.017   9.275  22.578  0.00  0.00    +0.000 C 
ENDBRANCH  12  15
ENDBRANCH   1  10
BRANCH   5  17
ATOM     17  C   UNL     1       2.072   3.997  17.794  0.00  0.00    +0.000 C 
ATOM     18  N   UNL     1       3.029   3.998  16.914  0.00  0.00    +0.000 NA
BRANCH  18  19
ATOM     19  N   UNL     1       4.411   4.065  17.308  0.00  0.00    +0.000 N 
ATOM     20  H   UNL     1       4.822   3.382  17.947  0.00  0.00    +0.000 HD
BRANCH  19  21
ATOM     21  S   UNL     1       5.554   4.622  16.149  0.00  0.00    +0.000 S 
ATOM     22  O   UNL     1       6.279   3.484  15.621  0.00  0.00    +0.000 OA
ATOM     23  O   UNL     1       4.842   5.541  15.289  0.00  0.00    +0.000 OA
BRANCH  21  24
ATOM     24  C   UNL     1       6.665   5.586  17.157  0.00  0.00    +0.000 A 
ATOM     25  C   UNL     1       7.218   5.024  18.311  0.00  0.00    +0.000 A 
ATOM     26  C   UNL     1       7.998   5.819  19.152  0.00  0.00    +0.000 A 
ATOM     27  C   UNL     1       8.235   7.156  18.830  0.00  0.00    +0.000 A 
ATOM     28  C   UNL     1       7.734   7.693  17.641  0.00  0.00    +0.000 A 
ATOM     29  C   UNL     1       6.955   6.904  16.793  0.00  0.00    +0.000 A 
ENDBRANCH  21  24
ENDBRANCH  19  21
ENDBRANCH  18  19
ENDBRANCH   5  17
TORSDOF 7
ENDMDL
