MODEL 1
REMARK VINA RESULT:      -7.4      0.000      0.000
REMARK  Name = 
REMARK  4 active torsions:
REMARK  status: ('A' for Active; 'I' for Inactive)
REMARK    1  A    between atoms: C_1  and  C_2
REMARK    2  A    between atoms: C_2  and  N_3
REMARK    3  A    between atoms: C_6  and  C_7
REMARK    4  A    between atoms: C_7  and  N_8
REMARK                            x       y       z     vdW  Elec       q    Type
REMARK                         _______ _______ _______ _____ _____    ______ ____
ROOT
ATOM      1  N   UNL     1       2.817   3.917  18.470  0.00  0.00    +0.000 N 
ATOM      2  C   UNL     1       2.665   2.825  19.315  0.00  0.00    +0.000 C 
ATOM      3  O   UNL     1       3.103   1.700  19.071  0.00  0.00    +0.000 OA
ATOM      4  C   UNL     1       1.755   3.084  20.506  0.00  0.00    +0.000 C 
ATOM      5  O   UNL     1       1.816   4.349  21.131  0.00  0.00    +0.000 OA
ATOM      6  C   UNL     1       1.989   5.381  20.248  0.00  0.00    +0.000 A 
ATOM      7  C   UNL     1       1.687   6.647  20.761  0.00  0.00    +0.000 A 
ATOM      8  C   UNL     1       1.878   7.779  19.977  0.00  0.00    +0.000 A 
ATOM      9  C   UNL     1       2.367   7.630  18.687  0.00  0.00    +0.000 A 
ATOM     10  F   UNL     1       2.585   8.721  17.940  0.00  0.00    +0.000 F 
ATOM     11  C   UNL     1       2.651   6.372  18.157  0.00  0.00    +0.000 A 
ATOM     12  C   UNL     1       2.471   5.221  18.936  0.00  0.00    +0.000 A 
ENDROOT
BRANCH   1  13
ATOM     13  C   UNL     1       3.145   3.644  17.076  0.00  0.00    +0.000 C 
BRANCH  13  17
ATOM     14  N   UNL     1       6.607   4.503  17.293  0.00  0.00    +0.000 N 
ATOM     15  C   UNL     1       6.540   4.538  15.936  0.00  0.00    +0.000 A 
ATOM     16  C   UNL     1       5.248   4.202  15.612  0.00  0.00    +0.000 A 
ATOM     17  C   UNL     1       4.598   3.972  16.856  0.00  0.00    +0.000 A 
ATOM     18  N   UNL     1       5.447   4.144  17.883  0.00  0.00    +0.000 NA
BRANCH  14  20
ATOM     19  C   UNL     1       7.731   6.230  18.651  0.00  0.00    +0.000 C 
ATOM     20  C   UNL     1       7.769   4.813  18.108  0.00  0.00    +0.000 C 
ENDBRANCH  14  20
ENDBRANCH  13  17
ENDBRANCH   1  13
TORSDOF 3
ENDMDL
MODEL 2
REMARK VINA RESULT:      -7.2      3.348      4.855
REMARK  Name = 
REMARK  4 active torsions:
REMARK  status: ('A' for Active; 'I' for Inactive)
REMARK    1  A    between atoms: C_1  and  C_2
REMARK    2  A    between atoms: C_2  and  N_3
REMARK    3  A    between atoms: C_6  and  C_7
REMARK    4  A    between atoms: C_7  and  N_8
REMARK                            x       y       z     vdW  Elec       q    Type
REMARK                         _______ _______ _______ _____ _____    ______ ____
ROOT
ATOM      1  N   UNL     1       5.119   5.160  16.758  0.00  0.00    +0.000 N 
ATOM      2  C   UNL     1       4.951   6.529  16.591  0.00  0.00    +0.000 C 
ATOM      3  O   UNL     1       5.681   7.231  15.891  0.00  0.00    +0.000 OA
ATOM      4  C   UNL     1       3.882   7.136  17.487  0.00  0.00    +0.000 C 
ATOM      5  O   UNL     1       2.706   6.390  17.726  0.00  0.00    +0.000 OA
ATOM      6  C   UNL     1       2.936   5.047  17.859  0.00  0.00    +0.000 A 
ATOM      7  C   UNL     1       1.891   4.331  18.453  0.00  0.00    +0.000 A 
ATOM      8  C   UNL     1       1.984   2.951  18.591  0.00  0.00    +0.000 A 
ATOM      9  C   UNL     1       3.123   2.303  18.134  0.00  0.00    +0.000 A 
ATOM     10  F   UNL     1       3.201   0.969  18.233  0.00  0.00    +0.000 F 
ATOM     11  C   UNL     1       4.179   3.009  17.559  0.00  0.00    +0.000 A 
ATOM     12  C   UNL     1       4.100   4.399  17.407  0.00  0.00    +0.000 A 
ENDROOT
BRANCH   1  13
ATOM     13  C   UNL     1       6.425   4.602  16.430  0.00  0.00    +0.000 C 
BRANCH  13  17
ATOM     14  N   UNL     1       6.136   3.630  13.002  0.00  0.00    +0.000 N 
ATOM     15  C   UNL     1       7.146   4.519  12.810  0.00  0.00    +0.000 A 
ATOM     16  C   UNL     1       7.418   5.056  14.045  0.00  0.00    +0.000 A 
ATOM     17  C   UNL     1       6.506   4.427  14.936  0.00  0.00    +0.000 A 
ATOM     18  N   UNL     1       5.710   3.564  14.283  0.00  0.00    +0.000 NA
BRANCH  14  20
ATOM     19  C   UNL     1       4.225   3.379  11.462  0.00  0.00    +0.000 C 
ATOM     20  C   UNL     1       5.521   2.791  11.990  0.00  0.00    +0.000 C 
ENDBRANCH  14  20
ENDBRANCH  13  17
ENDBRANCH   1  13
TORSDOF 3
ENDMDL
MODEL 3
REMARK VINA RESULT:      -7.1      2.813      4.067
REMARK  Name = 
REMARK  4 active torsions:
REMARK  status: ('A' for Active; 'I' for Inactive)
REMARK    1  A    between atoms: C_1  and  C_2
REMARK    2  A    between atoms: C_2  and  N_3
REMARK    3  A    between atoms: C_6  and  C_7
REMARK    4  A    between atoms: C_7  and  N_8
REMARK                            x       y       z     vdW  Elec       q    Type
REMARK                         _______ _______ _______ _____ _____    ______ ____
ROOT
ATOM      1  N   UNL     1       3.692   5.605  17.714  0.00  0.00    +0.000 N 
ATOM      2  C   UNL     1       3.109   6.802  18.108  0.00  0.00    +0.000 C 
ATOM      3  O   UNL     1       3.180   7.847  17.460  0.00  0.00    +0.000 OA
ATOM      4  C   UNL     1       2.512   6.771  19.506  0.00  0.00    +0.000 C 
ATOM      5  O   UNL     1       1.855   5.594  19.927  0.00  0.00    +0.000 OA
ATOM      6  C   UNL     1       2.464   4.449  19.488  0.00  0.00    +0.000 A 
ATOM      7  C   UNL     1       2.084   3.287  20.169  0.00  0.00    +0.000 A 
ATOM      8  C   UNL     1       2.592   2.053  19.776  0.00  0.00    +0.000 A 
ATOM      9  C   UNL     1       3.476   1.998  18.709  0.00  0.00    +0.000 A 
ATOM     10  F   UNL     1       3.941   0.808  18.305  0.00  0.00    +0.000 F 
ATOM     11  C   UNL     1       3.879   3.152  18.037  0.00  0.00    +0.000 A 
ATOM     12  C   UNL     1       3.372   4.402  18.415  0.00  0.00    +0.000 A 
ENDROOT
BRANCH   1  13
ATOM     13  C   UNL     1       4.755   5.672  16.719  0.00  0.00    +0.000 C 
BRANCH  13  17
ATOM     14  N   UNL     1       7.505   7.715  17.738  0.00  0.00    +0.000 N 
ATOM     15  C   UNL     1       7.831   6.647  18.513  0.00  0.00    +0.000 A 
ATOM     16  C   UNL     1       6.854   5.706  18.290  0.00  0.00    +0.000 A 
ATOM     17  C   UNL     1       5.964   6.305  17.357  0.00  0.00    +0.000 A 
ATOM     18  N   UNL     1       6.364   7.546  17.037  0.00  0.00    +0.000 NA
BRANCH  14  20
ATOM     19  C   UNL     1       8.883   9.380  18.929  0.00  0.00    +0.000 C 
ATOM     20  C   UNL     1       8.256   8.951  17.614  0.00  0.00    +0.000 C 
ENDBRANCH  14  20
ENDBRANCH  13  17
ENDBRANCH   1  13
TORSDOF 3
ENDMDL
MODEL 4
REMARK VINA RESULT:      -7.1      1.108      1.830
REMARK  Name = 
REMARK  4 active torsions:
REMARK  status: ('A' for Active; 'I' for Inactive)
REMARK    1  A    between atoms: C_1  and  C_2
REMARK    2  A    between atoms: C_2  and  N_3
REMARK    3  A    between atoms: C_6  and  C_7
REMARK    4  A    between atoms: C_7  and  N_8
REMARK                            x       y       z     vdW  Elec       q    Type
REMARK                         _______ _______ _______ _____ _____    ______ ____
ROOT
ATOM      1  N   UNL     1       3.075   4.073  18.680  0.00  0.00    +0.000 N 
ATOM      2  C   UNL     1       3.099   3.124  19.693  0.00  0.00    +0.000 C 
ATOM      3  O   UNL     1       3.634   2.020  19.589  0.00  0.00    +0.000 OA
ATOM      4  C   UNL     1       2.253   3.488  20.904  0.00  0.00    +0.000 C 
ATOM      5  O   UNL     1       2.224   4.838  21.318  0.00  0.00    +0.000 OA
ATOM      6  C   UNL     1       2.224   5.724  20.274  0.00  0.00    +0.000 A 
ATOM      7  C   UNL     1       1.827   7.024  20.610  0.00  0.00    +0.000 A 
ATOM      8  C   UNL     1       1.842   8.026  19.646  0.00  0.00    +0.000 A 
ATOM      9  C   UNL     1       2.251   7.715  18.357  0.00  0.00    +0.000 A 
ATOM     10  F   UNL     1       2.300   8.685  17.434  0.00  0.00    +0.000 F 
ATOM     11  C   UNL     1       2.629   6.419  18.007  0.00  0.00    +0.000 A 
ATOM     12  C   UNL     1       2.626   5.398  18.966  0.00  0.00    +0.000 A 
ENDROOT
BRANCH   1  13
ATOM     13  C   UNL     1       3.330   3.609  17.322  0.00  0.00    +0.000 C 
BRANCH  13  17
ATOM     14  N   UNL     1       6.364   4.527  15.670  0.00  0.00    +0.000 N 
ATOM     15  C   UNL     1       6.856   4.633  16.933  0.00  0.00    +0.000 A 
ATOM     16  C   UNL     1       5.810   4.333  17.772  0.00  0.00    +0.000 A 
ATOM     17  C   UNL     1       4.709   4.061  16.916  0.00  0.00    +0.000 A 
ATOM     18  N   UNL     1       5.055   4.198  15.625  0.00  0.00    +0.000 NA
BRANCH  14  20
ATOM     19  C   UNL     1       6.465   4.009  13.260  0.00  0.00    +0.000 C 
ATOM     20  C   UNL     1       7.104   4.724  14.437  0.00  0.00    +0.000 C 
ENDBRANCH  14  20
ENDBRANCH  13  17
ENDBRANCH   1  13
TORSDOF 3
ENDMDL
MODEL 5
REMARK VINA RESULT:      -7.1      2.967      4.256
REMARK  Name = 
REMARK  4 active torsions:
REMARK  status: ('A' for Active; 'I' for Inactive)
REMARK    1  A    between atoms: C_1  and  C_2
REMARK    2  A    between atoms: C_2  and  N_3
REMARK    3  A    between atoms: C_6  and  C_7
REMARK    4  A    between atoms: C_7  and  N_8
REMARK                            x       y       z     vdW  Elec       q    Type
REMARK                         _______ _______ _______ _____ _____    ______ ____
ROOT
ATOM      1  N   UNL     1       4.817   5.541  18.034  0.00  0.00    +0.000 N 
ATOM      2  C   UNL     1       4.072   6.620  17.577  0.00  0.00    +0.000 C 
ATOM      3  O   UNL     1       4.433   7.370  16.669  0.00  0.00    +0.000 OA
ATOM      4  C   UNL     1       2.833   6.916  18.408  0.00  0.00    +0.000 C 
ATOM      5  O   UNL     1       2.096   5.825  18.921  0.00  0.00    +0.000 OA
ATOM      6  C   UNL     1       2.886   4.786  19.334  0.00  0.00    +0.000 A 
ATOM      7  C   UNL     1       2.249   3.864  20.173  0.00  0.00    +0.000 A 
ATOM      8  C   UNL     1       2.931   2.735  20.612  0.00  0.00    +0.000 A 
ATOM      9  C   UNL     1       4.245   2.543  20.208  0.00  0.00    +0.000 A 
ATOM     10  F   UNL     1       4.895   1.439  20.600  0.00  0.00    +0.000 F 
ATOM     11  C   UNL     1       4.897   3.465  19.390  0.00  0.00    +0.000 A 
ATOM     12  C   UNL     1       4.222   4.605  18.933  0.00  0.00    +0.000 A 
ENDROOT
BRANCH   1  13
ATOM     13  C   UNL     1       6.241   5.529  17.719  0.00  0.00    +0.000 C 
BRANCH  13  17
ATOM     14  N   UNL     1       7.070   4.846  14.310  0.00  0.00    +0.000 N 
ATOM     15  C   UNL     1       6.164   3.840  14.437  0.00  0.00    +0.000 A 
ATOM     16  C   UNL     1       5.712   3.900  15.733  0.00  0.00    +0.000 A 
ATOM     17  C   UNL     1       6.414   4.985  16.325  0.00  0.00    +0.000 A 
ATOM     18  N   UNL     1       7.259   5.550  15.447  0.00  0.00    +0.000 NA
BRANCH  14  20
ATOM     19  C   UNL     1       7.301   4.454  11.885  0.00  0.00    +0.000 C 
ATOM     20  C   UNL     1       7.803   5.201  13.108  0.00  0.00    +0.000 C 
ENDBRANCH  14  20
ENDBRANCH  13  17
ENDBRANCH   1  13
TORSDOF 3
ENDMDL
MODEL 6
REMARK VINA RESULT:      -7.0      3.072      4.394
REMARK  Name = 
REMARK  4 active torsions:
REMARK  status: ('A' for Active; 'I' for Inactive)
REMARK    1  A    between atoms: C_1  and  C_2
REMARK    2  A    between atoms: C_2  and  N_3
REMARK    3  A    between atoms: C_6  and  C_7
REMARK    4  A    between atoms: C_7  and  N_8
REMARK                            x       y       z     vdW  Elec       q    Type
REMARK                         _______ _______ _______ _____ _____    ______ ____
ROOT
ATOM      1  N   UNL     1       4.727   5.210  17.528  0.00  0.00    +0.000 N 
ATOM      2  C   UNL     1       4.348   6.536  17.368  0.00  0.00    +0.000 C 
ATOM      3  O   UNL     1       5.041   7.388  16.810  0.00  0.00    +0.000 OA
ATOM      4  C   UNL     1       3.064   6.906  18.095  0.00  0.00    +0.000 C 
ATOM      5  O   UNL     1       2.016   5.960  18.125  0.00  0.00    +0.000 OA
ATOM      6  C   UNL     1       2.455   4.670  18.262  0.00  0.00    +0.000 A 
ATOM      7  C   UNL     1       1.474   3.758  18.664  0.00  0.00    +0.000 A 
ATOM      8  C   UNL     1       1.787   2.408  18.783  0.00  0.00    +0.000 A 
ATOM      9  C   UNL     1       3.079   1.988  18.499  0.00  0.00    +0.000 A 
ATOM     10  F   UNL     1       3.375   0.684  18.579  0.00  0.00    +0.000 F 
ATOM     11  C   UNL     1       4.070   2.892  18.118  0.00  0.00    +0.000 A 
ATOM     12  C   UNL     1       3.771   4.254  17.988  0.00  0.00    +0.000 A 
ENDROOT
BRANCH   1  13
ATOM     13  C   UNL     1       6.146   4.900  17.400  0.00  0.00    +0.000 C 
BRANCH  13  17
ATOM     14  N   UNL     1       7.312   4.926  14.022  0.00  0.00    +0.000 N 
ATOM     15  C   UNL     1       6.372   3.962  13.837  0.00  0.00    +0.000 A 
ATOM     16  C   UNL     1       5.786   3.764  15.064  0.00  0.00    +0.000 A 
ATOM     17  C   UNL     1       6.451   4.660  15.944  0.00  0.00    +0.000 A 
ATOM     18  N   UNL     1       7.399   5.359  15.298  0.00  0.00    +0.000 NA
BRANCH  14  20
ATOM     19  C   UNL     1       7.563   5.418  11.617  0.00  0.00    +0.000 C 
ATOM     20  C   UNL     1       8.177   5.494  13.003  0.00  0.00    +0.000 C 
ENDBRANCH  14  20
ENDBRANCH  13  17
ENDBRANCH   1  13
TORSDOF 3
ENDMDL
MODEL 7
REMARK VINA RESULT:      -6.9      3.269      4.965
REMARK  Name = 
REMARK  4 active torsions:
REMARK  status: ('A' for Active; 'I' for Inactive)
REMARK    1  A    between atoms: C_1  and  C_2
REMARK    2  A    between atoms: C_2  and  N_3
REMARK    3  A    between atoms: C_6  and  C_7
REMARK    4  A    between atoms: C_7  and  N_8
REMARK                            x       y       z     vdW  Elec       q    Type
REMARK                         _______ _______ _______ _____ _____    ______ ____
ROOT
ATOM      1  N   UNL     1       5.501   5.769  16.963  0.00  0.00    +0.000 N 
ATOM      2  C   UNL     1       6.645   6.335  17.509  0.00  0.00    +0.000 C 
ATOM      3  O   UNL     1       7.153   7.383  17.109  0.00  0.00    +0.000 OA
ATOM      4  C   UNL     1       7.335   5.461  18.545  0.00  0.00    +0.000 C 
ATOM      5  O   UNL     1       6.530   4.711  19.431  0.00  0.00    +0.000 OA
ATOM      6  C   UNL     1       5.406   4.200  18.839  0.00  0.00    +0.000 A 
ATOM      7  C   UNL     1       4.787   3.168  19.552  0.00  0.00    +0.000 A 
ATOM      8  C   UNL     1       3.605   2.607  19.079  0.00  0.00    +0.000 A 
ATOM      9  C   UNL     1       3.059   3.085  17.897  0.00  0.00    +0.000 A 
ATOM     10  F   UNL     1       1.903   2.571  17.456  0.00  0.00    +0.000 F 
ATOM     11  C   UNL     1       3.679   4.098  17.167  0.00  0.00    +0.000 A 
ATOM     12  C   UNL     1       4.866   4.679  17.631  0.00  0.00    +0.000 A 
ENDROOT
BRANCH   1  13
ATOM     13  C   UNL     1       5.115   6.200  15.624  0.00  0.00    +0.000 C 
BRANCH  13  17
ATOM     14  N   UNL     1       5.944   3.768  13.139  0.00  0.00    +0.000 N 
ATOM     15  C   UNL     1       7.227   4.072  13.471  0.00  0.00    +0.000 A 
ATOM     16  C   UNL     1       7.148   5.046  14.437  0.00  0.00    +0.000 A 
ATOM     17  C   UNL     1       5.758   5.276  14.624  0.00  0.00    +0.000 A 
ATOM     18  N   UNL     1       5.026   4.497  13.810  0.00  0.00    +0.000 NA
BRANCH  14  20
ATOM     19  C   UNL     1       4.303   3.220  11.381  0.00  0.00    +0.000 C 
ATOM     20  C   UNL     1       5.515   2.771  12.176  0.00  0.00    +0.000 C 
ENDBRANCH  14  20
ENDBRANCH  13  17
ENDBRANCH   1  13
TORSDOF 3
ENDMDL
MODEL 8
REMARK VINA RESULT:      -6.8      2.731      5.797
REMARK  Name = 
REMARK  4 active torsions:
REMARK  status: ('A' for Active; 'I' for Inactive)
REMARK    1  A    between atoms: C_1  and  C_2
REMARK    2  A    between atoms: C_2  and  N_3
REMARK    3  A    between atoms: C_6  and  C_7
REMARK    4  A    between atoms: C_7  and  N_8
REMARK                            x       y       z     vdW  Elec       q    Type
REMARK                         _______ _______ _______ _____ _____    ______ ____
ROOT
ATOM      1  N   UNL     1       4.916   5.268  17.387  0.00  0.00    +0.000 N 
ATOM      2  C   UNL     1       5.722   5.503  18.493  0.00  0.00    +0.000 C 
ATOM      3  O   UNL     1       5.298   5.606  19.645  0.00  0.00    +0.000 OA
ATOM      4  C   UNL     1       7.174   5.798  18.150  0.00  0.00    +0.000 C 
ATOM      5  O   UNL     1       7.770   5.082  17.088  0.00  0.00    +0.000 OA
ATOM      6  C   UNL     1       6.918   4.864  16.039  0.00  0.00    +0.000 A 
ATOM      7  C   UNL     1       7.545   4.502  14.842  0.00  0.00    +0.000 A 
ATOM      8  C   UNL     1       6.781   4.198  13.720  0.00  0.00    +0.000 A 
ATOM      9  C   UNL     1       5.398   4.263  13.810  0.00  0.00    +0.000 A 
ATOM     10  F   UNL     1       4.658   3.938  12.742  0.00  0.00    +0.000 F 
ATOM     11  C   UNL     1       4.763   4.644  14.991  0.00  0.00    +0.000 A 
ATOM     12  C   UNL     1       5.517   4.947  16.133  0.00  0.00    +0.000 A 
ENDROOT
BRANCH   1  13
ATOM     13  C   UNL     1       3.493   5.553  17.524  0.00  0.00    +0.000 C 
BRANCH  13  17
ATOM     14  N   UNL     1       1.771   3.108  19.481  0.00  0.00    +0.000 N 
ATOM     15  C   UNL     1       2.147   2.255  18.492  0.00  0.00    +0.000 A 
ATOM     16  C   UNL     1       2.834   3.016  17.577  0.00  0.00    +0.000 A 
ATOM     17  C   UNL     1       2.817   4.337  18.101  0.00  0.00    +0.000 A 
ATOM     18  N   UNL     1       2.147   4.387  19.264  0.00  0.00    +0.000 NA
BRANCH  14  20
ATOM     19  C   UNL     1       1.951   2.628  21.895  0.00  0.00    +0.000 C 
ATOM     20  C   UNL     1       1.040   2.762  20.687  0.00  0.00    +0.000 C 
ENDBRANCH  14  20
ENDBRANCH  13  17
ENDBRANCH   1  13
TORSDOF 3
ENDMDL
MODEL 9
REMARK VINA RESULT:      -6.8      2.299      3.269
REMARK  Name = 
REMARK  4 active torsions:
REMARK  status: ('A' for Active; 'I' for Inactive)
REMARK    1  A    between atoms: C_1  and  C_2
REMARK    2  A    between atoms: C_2  and  N_3
REMARK    3  A    between atoms: C_6  and  C_7
REMARK    4  A    between atoms: C_7  and  N_8
REMARK                            x       y       z     vdW  Elec       q    Type
REMARK                         _______ _______ _______ _____ _____    ______ ____
ROOT
ATOM      1  N   UNL     1       4.607   5.170  17.265  0.00  0.00    +0.000 N 
ATOM      2  C   UNL     1       4.941   3.873  16.896  0.00  0.00    +0.000 C 
ATOM      3  O   UNL     1       5.898   3.588  16.176  0.00  0.00    +0.000 OA
ATOM      4  C   UNL     1       3.920   2.826  17.315  0.00  0.00    +0.000 C 
ATOM      5  O   UNL     1       3.290   2.972  18.571  0.00  0.00    +0.000 OA
ATOM      6  C   UNL     1       3.007   4.274  18.887  0.00  0.00    +0.000 A 
ATOM      7  C   UNL     1       2.073   4.437  19.915  0.00  0.00    +0.000 A 
ATOM      8  C   UNL     1       1.746   5.712  20.363  0.00  0.00    +0.000 A 
ATOM      9  C   UNL     1       2.358   6.809  19.774  0.00  0.00    +0.000 A 
ATOM     10  F   UNL     1       2.072   8.038  20.226  0.00  0.00    +0.000 F 
ATOM     11  C   UNL     1       3.274   6.660  18.734  0.00  0.00    +0.000 A 
ATOM     12  C   UNL     1       3.619   5.382  18.274  0.00  0.00    +0.000 A 
ENDROOT
BRANCH   1  13
ATOM     13  C   UNL     1       5.150   6.256  16.458  0.00  0.00    +0.000 C 
BRANCH  13  17
ATOM     14  N   UNL     1       7.751   8.310  17.796  0.00  0.00    +0.000 N 
ATOM     15  C   UNL     1       8.110   7.180  18.462  0.00  0.00    +0.000 A 
ATOM     16  C   UNL     1       7.193   6.222  18.101  0.00  0.00    +0.000 A 
ATOM     17  C   UNL     1       6.302   6.874  17.206  0.00  0.00    +0.000 A 
ATOM     18  N   UNL     1       6.643   8.162  17.037  0.00  0.00    +0.000 NA
BRANCH  14  20
ATOM     19  C   UNL     1       9.132   9.830  19.163  0.00  0.00    +0.000 C 
ATOM     20  C   UNL     1       8.437   9.589  17.835  0.00  0.00    +0.000 C 
ENDBRANCH  14  20
ENDBRANCH  13  17
ENDBRANCH   1  13
TORSDOF 3
ENDMDL
