MODEL 1
REMARK VINA RESULT:      -8.0      0.000      0.000
REMARK  Name = 
REMARK  5 active torsions:
REMARK  status: ('A' for Active; 'I' for Inactive)
REMARK    1  A    between atoms: C_4  and  C_5
REMARK    2  A    between atoms: C_4  and  C_11
REMARK    3  A    between atoms: N_16  and  C_17
REMARK    4  A    between atoms: C_17  and  N_18
REMARK    5  A    between atoms: N_21  and  C_22
REMARK                            x       y       z     vdW  Elec       q    Type
REMARK                         _______ _______ _______ _____ _____    ______ ____
ROOT
ATOM      1  O   UNL     1       2.040   4.370  21.739  0.00  0.00    +0.000 OA
ATOM      2  C   UNL     1       2.500   4.814  20.700  0.00  0.00    +0.000 C 
ATOM      3  N   UNL     1       3.387   4.106  19.918  0.00  0.00    +0.000 N 
ATOM      4  C   UNL     1       3.300   4.515  18.535  0.00  0.00    +0.000 C 
ATOM      5  C   UNL     1       2.539   5.863  18.745  0.00  0.00    +0.000 C 
ATOM      6  O   UNL     1       2.207   6.647  17.860  0.00  0.00    +0.000 OA
ATOM      7  N   UNL     1       2.167   5.964  20.058  0.00  0.00    +0.000 N 
ATOM      8  H   UNL     1       3.577   3.150  20.185  0.00  0.00    +0.000 HD
ENDROOT
BRANCH   4   9
ATOM      9  C   UNL     1       4.659   4.639  17.843  0.00  0.00    +0.000 A 
ATOM     10  C   UNL     1       5.842   4.885  18.573  0.00  0.00    +0.000 A 
ATOM     11  C   UNL     1       7.094   4.894  17.954  0.00  0.00    +0.000 A 
ATOM     12  C   UNL     1       7.201   4.658  16.587  0.00  0.00    +0.000 A 
ATOM     13  C   UNL     1       6.049   4.415  15.839  0.00  0.00    +0.000 A 
ATOM     14  C   UNL     1       4.796   4.398  16.463  0.00  0.00    +0.000 A 
ENDBRANCH   4   9
BRANCH   4  15
ATOM     15  C   UNL     1       2.420   3.539  17.753  0.00  0.00    +0.000 C 
ATOM     16  C   UNL     1       2.497   2.039  17.965  0.00  0.00    +0.000 C 
ATOM     17  C   UNL     1       1.251   2.777  18.362  0.00  0.00    +0.000 C 
ENDBRANCH   4  15
BRANCH   7  18
ATOM     18  C   UNL     1       1.226   6.940  20.557  0.00  0.00    +0.000 C 
BRANCH  18  19
ATOM     19  N   UNL     1       1.865   8.254  20.698  0.00  0.00    +0.000 NA
ATOM     20  C   UNL     1       1.378   9.259  19.725  0.00  0.00    +0.000 C 
ATOM     21  C   UNL     1      -0.061   9.797  19.938  0.00  0.00    +0.000 C 
ATOM     22  N   UNL     1      -0.266  10.231  21.332  0.00  0.00    +0.000 N 
ATOM     23  C   UNL     1       0.199   9.289  22.365  0.00  0.00    +0.000 C 
ATOM     24  C   UNL     1       1.641   8.808  22.056  0.00  0.00    +0.000 C 
BRANCH  22  25
ATOM     25  C   UNL     1      -1.213  11.206  21.634  0.00  0.00    +0.000 A 
ATOM     26  C   UNL     1      -1.749  12.073  20.665  0.00  0.00    +0.000 A 
ATOM     27  C   UNL     1      -2.596  13.137  21.006  0.00  0.00    +0.000 A 
ATOM     28  C   UNL     1      -2.939  13.361  22.334  0.00  0.00    +0.000 A 
ATOM     29  C   UNL     1      -2.456  12.502  23.312  0.00  0.00    +0.000 A 
ATOM     30  C   UNL     1      -1.611  11.440  22.961  0.00  0.00    +0.000 A 
ENDBRANCH  22  25
ENDBRANCH  18  19
ENDBRANCH   7  18
TORSDOF 5
ENDMDL
MODEL 2
REMARK VINA RESULT:      -7.9      0.323      1.300
REMARK  Name = 
REMARK  5 active torsions:
REMARK  status: ('A' for Active; 'I' for Inactive)
REMARK    1  A    between atoms: C_4  and  C_5
REMARK    2  A    between atoms: C_4  and  C_11
REMARK    3  A    between atoms: N_16  and  C_17
REMARK    4  A    between atoms: C_17  and  N_18
REMARK    5  A    between atoms: N_21  and  C_22
REMARK                            x       y       z     vdW  Elec       q    Type
REMARK                         _______ _______ _______ _____ _____    ______ ____
ROOT
ATOM      1  O   UNL     1       2.112   4.444  21.653  0.00  0.00    +0.000 OA
ATOM      2  C   UNL     1       2.549   4.927  20.622  0.00  0.00    +0.000 C 
ATOM      3  N   UNL     1       3.434   4.257  19.805  0.00  0.00    +0.000 N 
ATOM      4  C   UNL     1       3.319   4.707  18.437  0.00  0.00    +0.000 C 
ATOM      5  C   UNL     1       2.541   6.036  18.700  0.00  0.00    +0.000 C 
ATOM      6  O   UNL     1       2.184   6.841  17.845  0.00  0.00    +0.000 OA
ATOM      7  N   UNL     1       2.188   6.090  20.021  0.00  0.00    +0.000 N 
ATOM      8  H   UNL     1       3.643   3.296  20.040  0.00  0.00    +0.000 HD
ENDROOT
BRANCH   4   9
ATOM      9  C   UNL     1       4.665   4.873  17.729  0.00  0.00    +0.000 A 
ATOM     10  C   UNL     1       4.796   4.695  16.335  0.00  0.00    +0.000 A 
ATOM     11  C   UNL     1       6.000   4.949  15.675  0.00  0.00    +0.000 A 
ATOM     12  C   UNL     1       7.111   5.388  16.389  0.00  0.00    +0.000 A 
ATOM     13  C   UNL     1       7.013   5.570  17.769  0.00  0.00    +0.000 A 
ATOM     14  C   UNL     1       5.802   5.323  18.426  0.00  0.00    +0.000 A 
ENDBRANCH   4   9
BRANCH   4  15
ATOM     15  C   UNL     1       2.442   3.741  17.639  0.00  0.00    +0.000 C 
ATOM     16  C   UNL     1       2.548   2.237  17.800  0.00  0.00    +0.000 C 
ATOM     17  C   UNL     1       1.297   2.940  18.242  0.00  0.00    +0.000 C 
ENDBRANCH   4  15
BRANCH   7  18
ATOM     18  C   UNL     1       1.241   7.036  20.564  0.00  0.00    +0.000 C 
BRANCH  18  19
ATOM     19  N   UNL     1       1.865   8.351  20.749  0.00  0.00    +0.000 NA
ATOM     20  C   UNL     1       1.365   9.383  19.812  0.00  0.00    +0.000 C 
ATOM     21  C   UNL     1      -0.079   9.897  20.045  0.00  0.00    +0.000 C 
ATOM     22  N   UNL     1      -0.286  10.282  21.453  0.00  0.00    +0.000 N 
ATOM     23  C   UNL     1       0.192   9.310  22.452  0.00  0.00    +0.000 C 
ATOM     24  C   UNL     1       1.638   8.856  22.125  0.00  0.00    +0.000 C 
BRANCH  22  25
ATOM     25  C   UNL     1      -1.242  11.235  21.790  0.00  0.00    +0.000 A 
ATOM     26  C   UNL     1      -1.749  11.378  23.094  0.00  0.00    +0.000 A 
ATOM     27  C   UNL     1      -2.809  12.247  23.390  0.00  0.00    +0.000 A 
ATOM     28  C   UNL     1      -3.391  13.009  22.383  0.00  0.00    +0.000 A 
ATOM     29  C   UNL     1      -2.891  12.919  21.091  0.00  0.00    +0.000 A 
ATOM     30  C   UNL     1      -1.830  12.048  20.806  0.00  0.00    +0.000 A 
ENDBRANCH  22  25
ENDBRANCH  18  19
ENDBRANCH   7  18
TORSDOF 5
ENDMDL
MODEL 3
REMARK VINA RESULT:      -7.6      1.426      2.051
REMARK  Name = 
REMARK  5 active torsions:
REMARK  status: ('A' for Active; 'I' for Inactive)
REMARK    1  A    between atoms: C_4  and  C_5
REMARK    2  A    between atoms: C_4  and  C_11
REMARK    3  A    between atoms: N_16  and  C_17
REMARK    4  A    between atoms: C_17  and  N_18
REMARK    5  A    between atoms: N_21  and  C_22
REMARK                            x       y       z     vdW  Elec       q    Type
REMARK                         _______ _______ _______ _____ _____    ______ ____
ROOT
ATOM      1  O   UNL     1       1.165   6.210  21.179  0.00  0.00    +0.000 OA
ATOM      2  C   UNL     1       1.968   6.557  20.329  0.00  0.00    +0.000 C 
ATOM      3  N   UNL     1       3.012   5.755  19.923  0.00  0.00    +0.000 N 
ATOM      4  C   UNL     1       3.409   6.067  18.569  0.00  0.00    +0.000 C 
ATOM      5  C   UNL     1       2.712   7.459  18.444  0.00  0.00    +0.000 C 
ATOM      6  O   UNL     1       2.740   8.192  17.458  0.00  0.00    +0.000 OA
ATOM      7  N   UNL     1       1.939   7.671  19.553  0.00  0.00    +0.000 N 
ATOM      8  H   UNL     1       3.040   4.813  20.288  0.00  0.00    +0.000 HD
ENDROOT
BRANCH   4   9
ATOM      9  C   UNL     1       4.924   6.079  18.359  0.00  0.00    +0.000 A 
ATOM     10  C   UNL     1       5.517   6.768  17.279  0.00  0.00    +0.000 A 
ATOM     11  C   UNL     1       6.904   6.866  17.147  0.00  0.00    +0.000 A 
ATOM     12  C   UNL     1       7.740   6.278  18.091  0.00  0.00    +0.000 A 
ATOM     13  C   UNL     1       7.183   5.587  19.168  0.00  0.00    +0.000 A 
ATOM     14  C   UNL     1       5.793   5.498  19.302  0.00  0.00    +0.000 A 
ENDBRANCH   4   9
BRANCH   4  15
ATOM     15  C   UNL     1       2.769   5.078  17.593  0.00  0.00    +0.000 C 
ATOM     16  C   UNL     1       3.364   3.707  17.332  0.00  0.00    +0.000 C 
ATOM     17  C   UNL     1       2.036   3.815  18.025  0.00  0.00    +0.000 C 
ENDBRANCH   4  15
BRANCH   7  18
ATOM     18  C   UNL     1       0.954   8.722  19.661  0.00  0.00    +0.000 C 
BRANCH  18  19
ATOM     19  N   UNL     1       1.470   9.839  20.461  0.00  0.00    +0.000 NA
ATOM     20  C   UNL     1       1.064  11.171  19.955  0.00  0.00    +0.000 C 
ATOM     21  C   UNL     1      -0.425  11.563  20.139  0.00  0.00    +0.000 C 
ATOM     22  N   UNL     1      -0.865  11.341  21.529  0.00  0.00    +0.000 N 
ATOM     23  C   UNL     1      -0.494  10.040  22.112  0.00  0.00    +0.000 C 
ATOM     24  C   UNL     1       1.008   9.740  21.867  0.00  0.00    +0.000 C 
BRANCH  22  25
ATOM     25  C   UNL     1      -1.913  12.086  22.063  0.00  0.00    +0.000 A 
ATOM     26  C   UNL     1      -2.438  11.849  23.346  0.00  0.00    +0.000 A 
ATOM     27  C   UNL     1      -3.580  12.513  23.817  0.00  0.00    +0.000 A 
ATOM     28  C   UNL     1      -4.228  13.445  23.015  0.00  0.00    +0.000 A 
ATOM     29  C   UNL     1      -3.715  13.729  21.757  0.00  0.00    +0.000 A 
ATOM     30  C   UNL     1      -2.572  13.061  21.296  0.00  0.00    +0.000 A 
ENDBRANCH  22  25
ENDBRANCH  18  19
ENDBRANCH   7  18
TORSDOF 5
ENDMDL
MODEL 4
REMARK VINA RESULT:      -7.6      1.203      1.567
REMARK  Name = 
REMARK  5 active torsions:
REMARK  status: ('A' for Active; 'I' for Inactive)
REMARK    1  A    between atoms: C_4  and  C_5
REMARK    2  A    between atoms: C_4  and  C_11
REMARK    3  A    between atoms: N_16  and  C_17
REMARK    4  A    between atoms: C_17  and  N_18
REMARK    5  A    between atoms: N_21  and  C_22
REMARK                            x       y       z     vdW  Elec       q    Type
REMARK                         _______ _______ _______ _____ _____    ______ ____
ROOT
ATOM      1  O   UNL     1       1.517   4.991  21.253  0.00  0.00    +0.000 OA
ATOM      2  C   UNL     1       2.253   5.606  20.499  0.00  0.00    +0.000 C 
ATOM      3  N   UNL     1       3.350   5.027  19.898  0.00  0.00    +0.000 N 
ATOM      4  C   UNL     1       3.667   5.688  18.653  0.00  0.00    +0.000 C 
ATOM      5  C   UNL     1       2.844   6.997  18.876  0.00  0.00    +0.000 C 
ATOM      6  O   UNL     1       2.771   7.942  18.094  0.00  0.00    +0.000 OA
ATOM      7  N   UNL     1       2.096   6.864  20.014  0.00  0.00    +0.000 N 
ATOM      8  H   UNL     1       3.476   4.032  20.026  0.00  0.00    +0.000 HD
ENDROOT
BRANCH   4   9
ATOM      9  C   UNL     1       5.167   5.895  18.431  0.00  0.00    +0.000 A 
ATOM     10  C   UNL     1       5.656   6.711  17.388  0.00  0.00    +0.000 A 
ATOM     11  C   UNL     1       7.018   6.983  17.251  0.00  0.00    +0.000 A 
ATOM     12  C   UNL     1       7.934   6.447  18.151  0.00  0.00    +0.000 A 
ATOM     13  C   UNL     1       7.481   5.634  19.190  0.00  0.00    +0.000 A 
ATOM     14  C   UNL     1       6.114   5.370  19.331  0.00  0.00    +0.000 A 
ENDBRANCH   4   9
BRANCH   4  15
ATOM     15  C   UNL     1       3.084   4.902  17.478  0.00  0.00    +0.000 C 
ATOM     16  C   UNL     1       3.742   3.644  16.946  0.00  0.00    +0.000 C 
ATOM     17  C   UNL     1       2.403   3.548  17.618  0.00  0.00    +0.000 C 
ENDBRANCH   4  15
BRANCH   7  18
ATOM     18  C   UNL     1       1.026   7.760  20.385  0.00  0.00    +0.000 C 
BRANCH  18  19
ATOM     19  N   UNL     1       1.561   9.014  20.928  0.00  0.00    +0.000 NA
ATOM     20  C   UNL     1       1.194  10.210  20.135  0.00  0.00    +0.000 C 
ATOM     21  C   UNL     1      -0.286  10.667  20.203  0.00  0.00    +0.000 C 
ATOM     22  N   UNL     1      -0.748  10.766  21.599  0.00  0.00    +0.000 N 
ATOM     23  C   UNL     1      -0.418   9.617  22.460  0.00  0.00    +0.000 C 
ATOM     24  C   UNL     1       1.079   9.237  22.314  0.00  0.00    +0.000 C 
BRANCH  22  25
ATOM     25  C   UNL     1      -1.783  11.633  21.939  0.00  0.00    +0.000 A 
ATOM     26  C   UNL     1      -2.363  12.524  21.019  0.00  0.00    +0.000 A 
ATOM     27  C   UNL     1      -3.307  13.486  21.407  0.00  0.00    +0.000 A 
ATOM     28  C   UNL     1      -3.706  13.578  22.735  0.00  0.00    +0.000 A 
ATOM     29  C   UNL     1      -3.180  12.690  23.663  0.00  0.00    +0.000 A 
ATOM     30  C   UNL     1      -2.238  11.732  23.265  0.00  0.00    +0.000 A 
ENDBRANCH  22  25
ENDBRANCH  18  19
ENDBRANCH   7  18
TORSDOF 5
ENDMDL
MODEL 5
REMARK VINA RESULT:      -7.4      1.539      2.151
REMARK  Name = 
REMARK  5 active torsions:
REMARK  status: ('A' for Active; 'I' for Inactive)
REMARK    1  A    between atoms: C_4  and  C_5
REMARK    2  A    between atoms: C_4  and  C_11
REMARK    3  A    between atoms: N_16  and  C_17
REMARK    4  A    between atoms: C_17  and  N_18
REMARK    5  A    between atoms: N_21  and  C_22
REMARK                            x       y       z     vdW  Elec       q    Type
REMARK                         _______ _______ _______ _____ _____    ______ ____
ROOT
ATOM      1  O   UNL     1       1.032   7.085  21.192  0.00  0.00    +0.000 OA
ATOM      2  C   UNL     1       1.819   7.242  20.274  0.00  0.00    +0.000 C 
ATOM      3  N   UNL     1       2.803   6.325  19.975  0.00  0.00    +0.000 N 
ATOM      4  C   UNL     1       3.164   6.389  18.578  0.00  0.00    +0.000 C 
ATOM      5  C   UNL     1       2.539   7.782  18.246  0.00  0.00    +0.000 C 
ATOM      6  O   UNL     1       2.570   8.342  17.154  0.00  0.00    +0.000 OA
ATOM      7  N   UNL     1       1.821   8.216  19.327  0.00  0.00    +0.000 N 
ATOM      8  H   UNL     1       2.794   5.454  20.488  0.00  0.00    +0.000 HD
ENDROOT
BRANCH   4   9
ATOM      9  C   UNL     1       4.669   6.278  18.326  0.00  0.00    +0.000 A 
ATOM     10  C   UNL     1       5.527   5.625  19.237  0.00  0.00    +0.000 A 
ATOM     11  C   UNL     1       6.881   5.432  18.957  0.00  0.00    +0.000 A 
ATOM     12  C   UNL     1       7.420   5.886  17.758  0.00  0.00    +0.000 A 
ATOM     13  C   UNL     1       6.598   6.539  16.838  0.00  0.00    +0.000 A 
ATOM     14  C   UNL     1       5.239   6.723  17.117  0.00  0.00    +0.000 A 
ENDBRANCH   4   9
BRANCH   4  15
ATOM     15  C   UNL     1       2.437   5.295  17.796  0.00  0.00    +0.000 C 
ATOM     16  C   UNL     1       3.098   3.973  17.455  0.00  0.00    +0.000 C 
ATOM     17  C   UNL     1       1.944   3.994  18.416  0.00  0.00    +0.000 C 
ENDBRANCH   4  15
BRANCH   7  18
ATOM     18  C   UNL     1       0.899   9.327  19.290  0.00  0.00    +0.000 C 
BRANCH  18  19
ATOM     19  N   UNL     1       1.390  10.439  20.112  0.00  0.00    +0.000 NA
ATOM     20  C   UNL     1       0.859  11.760  19.703  0.00  0.00    +0.000 C 
ATOM     21  C   UNL     1      -0.637  12.035  20.003  0.00  0.00    +0.000 C 
ATOM     22  N   UNL     1      -0.966  11.716  21.404  0.00  0.00    +0.000 N 
ATOM     23  C   UNL     1      -0.468  10.419  21.894  0.00  0.00    +0.000 C 
ATOM     24  C   UNL     1       1.031  10.240  21.538  0.00  0.00    +0.000 C 
BRANCH  22  25
ATOM     25  C   UNL     1      -2.024  12.357  22.043  0.00  0.00    +0.000 A 
ATOM     26  C   UNL     1      -2.528  11.940  23.288  0.00  0.00    +0.000 A 
ATOM     27  C   UNL     1      -3.679  12.506  23.853  0.00  0.00    +0.000 A 
ATOM     28  C   UNL     1      -4.359  13.520  23.188  0.00  0.00    +0.000 A 
ATOM     29  C   UNL     1      -3.868  13.981  21.974  0.00  0.00    +0.000 A 
ATOM     30  C   UNL     1      -2.716  13.408  21.418  0.00  0.00    +0.000 A 
ENDBRANCH  22  25
ENDBRANCH  18  19
ENDBRANCH   7  18
TORSDOF 5
ENDMDL
MODEL 6
REMARK VINA RESULT:      -7.2      1.686      3.632
REMARK  Name = 
REMARK  5 active torsions:
REMARK  status: ('A' for Active; 'I' for Inactive)
REMARK    1  A    between atoms: C_4  and  C_5
REMARK    2  A    between atoms: C_4  and  C_11
REMARK    3  A    between atoms: N_16  and  C_17
REMARK    4  A    between atoms: C_17  and  N_18
REMARK    5  A    between atoms: N_21  and  C_22
REMARK                            x       y       z     vdW  Elec       q    Type
REMARK                         _______ _______ _______ _____ _____    ______ ____
ROOT
ATOM      1  O   UNL     1       2.565   8.990  17.449  0.00  0.00    +0.000 OA
ATOM      2  C   UNL     1       2.361   8.010  18.147  0.00  0.00    +0.000 C 
ATOM      3  N   UNL     1       2.782   6.746  17.791  0.00  0.00    +0.000 N 
ATOM      4  C   UNL     1       2.994   5.923  18.960  0.00  0.00    +0.000 C 
ATOM      5  C   UNL     1       2.206   6.790  19.993  0.00  0.00    +0.000 C 
ATOM      6  O   UNL     1       2.058   6.530  21.184  0.00  0.00    +0.000 OA
ATOM      7  N   UNL     1       1.833   7.964  19.397  0.00  0.00    +0.000 N 
ATOM      8  H   UNL     1       3.359   6.666  16.966  0.00  0.00    +0.000 HD
ENDROOT
BRANCH   4   9
ATOM      9  C   UNL     1       2.489   4.487  18.801  0.00  0.00    +0.000 A 
ATOM     10  C   UNL     1       2.642   3.779  17.589  0.00  0.00    +0.000 A 
ATOM     11  C   UNL     1       2.276   2.436  17.478  0.00  0.00    +0.000 A 
ATOM     12  C   UNL     1       1.747   1.760  18.572  0.00  0.00    +0.000 A 
ATOM     13  C   UNL     1       1.581   2.436  19.782  0.00  0.00    +0.000 A 
ATOM     14  C   UNL     1       1.956   3.779  19.895  0.00  0.00    +0.000 A 
ENDBRANCH   4   9
BRANCH   4  15
ATOM     15  C   UNL     1       4.479   5.902  19.325  0.00  0.00    +0.000 C 
ATOM     16  C   UNL     1       5.334   4.662  19.145  0.00  0.00    +0.000 C 
ATOM     17  C   UNL     1       5.603   5.872  18.299  0.00  0.00    +0.000 C 
ENDBRANCH   4  15
BRANCH   7  18
ATOM     18  C   UNL     1       1.326   9.109  20.117  0.00  0.00    +0.000 C 
BRANCH  18  19
ATOM     19  N   UNL     1      -0.131   9.023  20.270  0.00  0.00    +0.000 NA
ATOM     20  C   UNL     1      -0.573   8.863  21.675  0.00  0.00    +0.000 C 
ATOM     21  C   UNL     1      -0.422  10.099  22.600  0.00  0.00    +0.000 C 
ATOM     22  N   UNL     1      -0.996  11.304  21.973  0.00  0.00    +0.000 N 
ATOM     23  C   UNL     1      -0.611  11.534  20.570  0.00  0.00    +0.000 C 
ATOM     24  C   UNL     1      -0.791  10.240  19.735  0.00  0.00    +0.000 C 
BRANCH  22  25
ATOM     25  C   UNL     1      -1.467  12.351  22.761  0.00  0.00    +0.000 A 
ATOM     26  C   UNL     1      -2.692  12.294  23.450  0.00  0.00    +0.000 A 
ATOM     27  C   UNL     1      -3.219  13.404  24.126  0.00  0.00    +0.000 A 
ATOM     28  C   UNL     1      -2.526  14.609  24.138  0.00  0.00    +0.000 A 
ATOM     29  C   UNL     1      -1.296  14.689  23.499  0.00  0.00    +0.000 A 
ATOM     30  C   UNL     1      -0.778  13.573  22.827  0.00  0.00    +0.000 A 
ENDBRANCH  22  25
ENDBRANCH  18  19
ENDBRANCH   7  18
TORSDOF 5
ENDMDL
MODEL 7
REMARK VINA RESULT:      -7.2      1.360      1.505
REMARK  Name = 
REMARK  5 active torsions:
REMARK  status: ('A' for Active; 'I' for Inactive)
REMARK    1  A    between atoms: C_4  and  C_5
REMARK    2  A    between atoms: C_4  and  C_11
REMARK    3  A    between atoms: N_16  and  C_17
REMARK    4  A    between atoms: C_17  and  N_18
REMARK    5  A    between atoms: N_21  and  C_22
REMARK                            x       y       z     vdW  Elec       q    Type
REMARK                         _______ _______ _______ _____ _____    ______ ____
ROOT
ATOM      1  O   UNL     1       1.269   5.441  21.361  0.00  0.00    +0.000 OA
ATOM      2  C   UNL     1       2.008   5.993  20.563  0.00  0.00    +0.000 C 
ATOM      3  N   UNL     1       3.072   5.348  19.969  0.00  0.00    +0.000 N 
ATOM      4  C   UNL     1       3.382   5.936  18.686  0.00  0.00    +0.000 C 
ATOM      5  C   UNL     1       2.607   7.280  18.859  0.00  0.00    +0.000 C 
ATOM      6  O   UNL     1       2.547   8.186  18.032  0.00  0.00    +0.000 OA
ATOM      7  N   UNL     1       1.881   7.230  20.017  0.00  0.00    +0.000 N 
ATOM      8  H   UNL     1       3.168   4.358  20.145  0.00  0.00    +0.000 HD
ENDROOT
BRANCH   4   9
ATOM      9  C   UNL     1       4.883   6.081  18.423  0.00  0.00    +0.000 A 
ATOM     10  C   UNL     1       5.843   5.458  19.249  0.00  0.00    +0.000 A 
ATOM     11  C   UNL     1       7.206   5.505  18.949  0.00  0.00    +0.000 A 
ATOM     12  C   UNL     1       7.650   6.176  17.814  0.00  0.00    +0.000 A 
ATOM     13  C   UNL     1       6.724   6.805  16.980  0.00  0.00    +0.000 A 
ATOM     14  C   UNL     1       5.358   6.749  17.279  0.00  0.00    +0.000 A 
ENDBRANCH   4   9
BRANCH   4  15
ATOM     15  C   UNL     1       2.749   5.111  17.564  0.00  0.00    +0.000 C 
ATOM     16  C   UNL     1       3.205   3.700  17.246  0.00  0.00    +0.000 C 
ATOM     17  C   UNL     1       1.828   3.922  17.802  0.00  0.00    +0.000 C 
ENDBRANCH   4  15
BRANCH   7  18
ATOM     18  C   UNL     1       0.848   8.178  20.364  0.00  0.00    +0.000 C 
BRANCH  18  19
ATOM     19  N   UNL     1       1.423   9.358  21.019  0.00  0.00    +0.000 NA
ATOM     20  C   UNL     1       1.123  10.631  20.323  0.00  0.00    +0.000 C 
ATOM     21  C   UNL     1      -0.338  11.144  20.403  0.00  0.00    +0.000 C 
ATOM     22  N   UNL     1      -0.824  11.147  21.795  0.00  0.00    +0.000 N 
ATOM     23  C   UNL     1      -0.559   9.917  22.563  0.00  0.00    +0.000 C 
ATOM     24  C   UNL     1       0.923   9.487  22.410  0.00  0.00    +0.000 C 
BRANCH  22  25
ATOM     25  C   UNL     1      -1.828  12.027  22.189  0.00  0.00    +0.000 A 
ATOM     26  C   UNL     1      -2.074  13.246  21.531  0.00  0.00    +0.000 A 
ATOM     27  C   UNL     1      -2.994  14.183  22.021  0.00  0.00    +0.000 A 
ATOM     28  C   UNL     1      -3.707  13.922  23.185  0.00  0.00    +0.000 A 
ATOM     29  C   UNL     1      -3.516  12.713  23.839  0.00  0.00    +0.000 A 
ATOM     30  C   UNL     1      -2.594  11.782  23.341  0.00  0.00    +0.000 A 
ENDBRANCH  22  25
ENDBRANCH  18  19
ENDBRANCH   7  18
TORSDOF 5
ENDMDL
MODEL 8
REMARK VINA RESULT:      -7.2      1.824      2.577
REMARK  Name = 
REMARK  5 active torsions:
REMARK  status: ('A' for Active; 'I' for Inactive)
REMARK    1  A    between atoms: C_4  and  C_5
REMARK    2  A    between atoms: C_4  and  C_11
REMARK    3  A    between atoms: N_16  and  C_17
REMARK    4  A    between atoms: C_17  and  N_18
REMARK    5  A    between atoms: N_21  and  C_22
REMARK                            x       y       z     vdW  Elec       q    Type
REMARK                         _______ _______ _______ _____ _____    ______ ____
ROOT
ATOM      1  O   UNL     1       0.992   7.357  21.196  0.00  0.00    +0.000 OA
ATOM      2  C   UNL     1       1.766   7.424  20.255  0.00  0.00    +0.000 C 
ATOM      3  N   UNL     1       2.715   6.456  20.005  0.00  0.00    +0.000 N 
ATOM      4  C   UNL     1       3.051   6.410  18.601  0.00  0.00    +0.000 C 
ATOM      5  C   UNL     1       2.464   7.796  18.183  0.00  0.00    +0.000 C 
ATOM      6  O   UNL     1       2.491   8.277  17.053  0.00  0.00    +0.000 OA
ATOM      7  N   UNL     1       1.781   8.328  19.242  0.00  0.00    +0.000 N 
ATOM      8  H   UNL     1       2.688   5.624  20.579  0.00  0.00    +0.000 HD
ENDROOT
BRANCH   4   9
ATOM      9  C   UNL     1       4.547   6.232  18.332  0.00  0.00    +0.000 A 
ATOM     10  C   UNL     1       5.172   6.814  17.208  0.00  0.00    +0.000 A 
ATOM     11  C   UNL     1       6.553   6.739  17.019  0.00  0.00    +0.000 A 
ATOM     12  C   UNL     1       7.352   6.078  17.948  0.00  0.00    +0.000 A 
ATOM     13  C   UNL     1       6.762   5.490  19.067  0.00  0.00    +0.000 A 
ATOM     14  C   UNL     1       5.378   5.575  19.258  0.00  0.00    +0.000 A 
ENDBRANCH   4   9
BRANCH   4  15
ATOM     15  C   UNL     1       2.274   5.288  17.911  0.00  0.00    +0.000 C 
ATOM     16  C   UNL     1       2.923   3.967  17.544  0.00  0.00    +0.000 C 
ATOM     17  C   UNL     1       1.857   3.997  18.601  0.00  0.00    +0.000 C 
ENDBRANCH   4  15
BRANCH   7  18
ATOM     18  C   UNL     1       0.894   9.464  19.142  0.00  0.00    +0.000 C 
BRANCH  18  19
ATOM     19  N   UNL     1       1.485  10.644  19.783  0.00  0.00    +0.000 NA
ATOM     20  C   UNL     1       1.355  11.883  18.982  0.00  0.00    +0.000 C 
ATOM     21  C   UNL     1      -0.064  12.499  18.871  0.00  0.00    +0.000 C 
ATOM     22  N   UNL     1      -0.691  12.630  20.199  0.00  0.00    +0.000 N 
ATOM     23  C   UNL     1      -0.600  11.441  21.064  0.00  0.00    +0.000 C 
ATOM     24  C   UNL     1       0.853  10.901  21.101  0.00  0.00    +0.000 C 
BRANCH  22  25
ATOM     25  C   UNL     1      -1.662  13.601  20.426  0.00  0.00    +0.000 A 
ATOM     26  C   UNL     1      -1.349  14.954  20.647  0.00  0.00    +0.000 A 
ATOM     27  C   UNL     1      -2.324  15.894  21.011  0.00  0.00    +0.000 A 
ATOM     28  C   UNL     1      -3.650  15.506  21.156  0.00  0.00    +0.000 A 
ATOM     29  C   UNL     1      -4.000  14.186  20.910  0.00  0.00    +0.000 A 
ATOM     30  C   UNL     1      -3.018  13.254  20.547  0.00  0.00    +0.000 A 
ENDBRANCH  22  25
ENDBRANCH  18  19
ENDBRANCH   7  18
TORSDOF 5
ENDMDL
MODEL 9
REMARK VINA RESULT:      -7.2      2.244      4.369
REMARK  Name = 
REMARK  5 active torsions:
REMARK  status: ('A' for Active; 'I' for Inactive)
REMARK    1  A    between atoms: C_4  and  C_5
REMARK    2  A    between atoms: C_4  and  C_11
REMARK    3  A    between atoms: N_16  and  C_17
REMARK    4  A    between atoms: C_17  and  N_18
REMARK    5  A    between atoms: N_21  and  C_22
REMARK                            x       y       z     vdW  Elec       q    Type
REMARK                         _______ _______ _______ _____ _____    ______ ____
ROOT
ATOM      1  O   UNL     1       2.284   9.102  17.132  0.00  0.00    +0.000 OA
ATOM      2  C   UNL     1       2.052   8.288  18.010  0.00  0.00    +0.000 C 
ATOM      3  N   UNL     1       2.302   6.941  17.859  0.00  0.00    +0.000 N 
ATOM      4  C   UNL     1       2.545   6.312  19.137  0.00  0.00    +0.000 C 
ATOM      5  C   UNL     1       1.960   7.432  20.055  0.00  0.00    +0.000 C 
ATOM      6  O   UNL     1       1.906   7.401  21.282  0.00  0.00    +0.000 OA
ATOM      7  N   UNL     1       1.651   8.521  19.287  0.00  0.00    +0.000 N 
ATOM      8  H   UNL     1       2.782   6.652  17.017  0.00  0.00    +0.000 HD
ENDROOT
BRANCH   4   9
ATOM      9  C   UNL     1       1.882   4.941  19.284  0.00  0.00    +0.000 A 
ATOM     10  C   UNL     1       1.621   4.120  18.165  0.00  0.00    +0.000 A 
ATOM     11  C   UNL     1       1.113   2.828  18.309  0.00  0.00    +0.000 A 
ATOM     12  C   UNL     1       0.848   2.317  19.576  0.00  0.00    +0.000 A 
ATOM     13  C   UNL     1       1.093   3.106  20.701  0.00  0.00    +0.000 A 
ATOM     14  C   UNL     1       1.611   4.397  20.554  0.00  0.00    +0.000 A 
ENDBRANCH   4   9
BRANCH   4  15
ATOM     15  C   UNL     1       4.049   6.176  19.378  0.00  0.00    +0.000 C 
ATOM     16  C   UNL     1       4.766   4.845  19.261  0.00  0.00    +0.000 C 
ATOM     17  C   UNL     1       5.067   5.934  18.272  0.00  0.00    +0.000 C 
ENDBRANCH   4  15
BRANCH   7  18
ATOM     18  C   UNL     1       1.340   9.825  19.824  0.00  0.00    +0.000 C 
BRANCH  18  19
ATOM     19  N   UNL     1      -0.112  10.033  19.878  0.00  0.00    +0.000 NA
ATOM     20  C   UNL     1      -0.557  10.820  21.051  0.00  0.00    +0.000 C 
ATOM     21  C   UNL     1      -0.214  12.333  21.048  0.00  0.00    +0.000 C 
ATOM     22  N   UNL     1      -0.609  12.965  19.777  0.00  0.00    +0.000 N 
ATOM     23  C   UNL     1      -0.210  12.240  18.557  0.00  0.00    +0.000 C 
ATOM     24  C   UNL     1      -0.589  10.741  18.664  0.00  0.00    +0.000 C 
BRANCH  22  25
ATOM     25  C   UNL     1      -0.911  14.323  19.729  0.00  0.00    +0.000 A 
ATOM     26  C   UNL     1      -0.282  15.212  18.840  0.00  0.00    +0.000 A 
ATOM     27  C   UNL     1      -0.496  16.597  18.896  0.00  0.00    +0.000 A 
ATOM     28  C   UNL     1      -1.357  17.134  19.846  0.00  0.00    +0.000 A 
ATOM     29  C   UNL     1      -2.022  16.281  20.716  0.00  0.00    +0.000 A 
ATOM     30  C   UNL     1      -1.802  14.898  20.650  0.00  0.00    +0.000 A 
ENDBRANCH  22  25
ENDBRANCH  18  19
ENDBRANCH   7  18
TORSDOF 5
ENDMDL
