MODEL 1
REMARK VINA RESULT:      -8.9      0.000      0.000
REMARK  Name = 
REMARK  4 active torsions:
REMARK  status: ('A' for Active; 'I' for Inactive)
REMARK    1  A    between atoms: C_2  and  C_11
REMARK    2  A    between atoms: N_3  and  C_4
REMARK    3  A    between atoms: C_14  and  C_15
REMARK    4  A    between atoms: C_22  and  C_23
REMARK                            x       y       z     vdW  Elec       q    Type
REMARK                         _______ _______ _______ _____ _____    ______ ____
ROOT
ATOM      1  C   UNL     1       1.142   9.106  20.675  0.00  0.00    +0.000 A 
ATOM      2  C   UNL     1       0.504   8.750  21.848  0.00  0.00    +0.000 A 
ATOM      3  C   UNL     1      -0.257   9.704  22.505  0.00  0.00    +0.000 A 
ATOM      4  C   UNL     1      -0.358  11.026  22.035  0.00  0.00    +0.000 A 
ATOM      5  C   UNL     1       0.413  11.337  20.872  0.00  0.00    +0.000 A 
ATOM      6  N   UNL     1       1.121  10.369  20.171  0.00  0.00    +0.000 NA
ENDROOT
BRANCH   5   7
ATOM      7  C   UNL     1       0.514  12.700  20.254  0.00  0.00    +0.000 A 
ATOM      8  C   UNL     1       1.700  13.449  20.451  0.00  0.00    +0.000 A 
ATOM      9  C   UNL     1       1.901  14.702  19.856  0.00  0.00    +0.000 A 
ATOM     10  C   UNL     1       0.942  15.216  18.995  0.00  0.00    +0.000 A 
ATOM     11 CL   UNL     1       1.192  16.741  18.238  0.00  0.00    +0.000 Cl
ATOM     12  C   UNL     1      -0.241  14.524  18.781  0.00  0.00    +0.000 A 
ATOM     13  C   UNL     1      -0.484  13.322  19.467  0.00  0.00    +0.000 A 
ATOM     14 CL   UNL     1      -2.113  12.735  19.360  0.00  0.00    +0.000 Cl
ENDBRANCH   5   7
BRANCH   4  15
ATOM     15  C   UNL     1      -1.223  11.970  22.809  0.00  0.00    +0.000 A 
ATOM     16  C   UNL     1      -0.782  13.288  23.074  0.00  0.00    +0.000 A 
ATOM     17  C   UNL     1      -1.620  14.250  23.648  0.00  0.00    +0.000 A 
ATOM     18  C   UNL     1      -2.933  13.919  23.950  0.00  0.00    +0.000 A 
ATOM     19 CL   UNL     1      -4.008  15.130  24.529  0.00  0.00    +0.000 Cl
ATOM     20  C   UNL     1      -3.383  12.616  23.764  0.00  0.00    +0.000 A 
ATOM     21  C   UNL     1      -2.519  11.640  23.245  0.00  0.00    +0.000 A 
ENDBRANCH   4  15
BRANCH   1  23
ATOM     22  O   UNL     1       2.353   8.215  18.844  0.00  0.00    +0.000 OA
ATOM     23  C   UNL     1       1.824   7.985  19.926  0.00  0.00    +0.000 C 
ATOM     24  N   UNL     1       1.861   6.728  20.503  0.00  0.00    +0.000 N 
ATOM     25  H   UNL     1       1.316   6.576  21.344  0.00  0.00    +0.000 HD
BRANCH  24  26
ATOM     26  C   UNL     1       2.535   5.614  19.815  0.00  0.00    +0.000 C 
ATOM     27  C   UNL     1       2.756   4.433  20.762  0.00  0.00    +0.000 C 
ATOM     28  C   UNL     1       1.492   3.636  21.066  0.00  0.00    +0.000 C 
ATOM     29  C   UNL     1       1.266   2.484  20.092  0.00  0.00    +0.000 C 
ATOM     30  C   UNL     1       0.941   2.894  18.659  0.00  0.00    +0.000 C 
ATOM     31  C   UNL     1       1.952   3.830  17.996  0.00  0.00    +0.000 C 
ATOM     32  C   UNL     1       1.835   5.278  18.483  0.00  0.00    +0.000 C 
ENDBRANCH  24  26
ENDBRANCH   1  23
TORSDOF 4
ENDMDL
MODEL 2
REMARK VINA RESULT:      -8.5      0.940      1.329
REMARK  Name = 
REMARK  4 active torsions:
REMARK  status: ('A' for Active; 'I' for Inactive)
REMARK    1  A    between atoms: C_2  and  C_11
REMARK    2  A    between atoms: N_3  and  C_4
REMARK    3  A    between atoms: C_14  and  C_15
REMARK    4  A    between atoms: C_22  and  C_23
REMARK                            x       y       z     vdW  Elec       q    Type
REMARK                         _______ _______ _______ _____ _____    ______ ____
ROOT
ATOM      1  C   UNL     1       1.145   9.232  20.610  0.00  0.00    +0.000 A 
ATOM      2  C   UNL     1       0.554   8.891  21.811  0.00  0.00    +0.000 A 
ATOM      3  C   UNL     1      -0.206   9.844  22.472  0.00  0.00    +0.000 A 
ATOM      4  C   UNL     1      -0.350  11.152  21.974  0.00  0.00    +0.000 A 
ATOM      5  C   UNL     1       0.375  11.451  20.779  0.00  0.00    +0.000 A 
ATOM      6  N   UNL     1       1.080  10.481  20.078  0.00  0.00    +0.000 NA
ENDROOT
BRANCH   5   7
ATOM      7  C   UNL     1       0.427  12.800  20.126  0.00  0.00    +0.000 A 
ATOM      8  C   UNL     1      -0.616  13.168  19.243  0.00  0.00    +0.000 A 
ATOM      9  C   UNL     1      -0.677  14.433  18.641  0.00  0.00    +0.000 A 
ATOM     10  C   UNL     1       0.276  15.390  18.956  0.00  0.00    +0.000 A 
ATOM     11 CL   UNL     1       0.195  16.955  18.245  0.00  0.00    +0.000 Cl
ATOM     12  C   UNL     1       1.324  15.072  19.807  0.00  0.00    +0.000 A 
ATOM     13  C   UNL     1       1.441  13.769  20.319  0.00  0.00    +0.000 A 
ATOM     14 CL   UNL     1       2.953  13.420  21.096  0.00  0.00    +0.000 Cl
ENDBRANCH   5   7
BRANCH   4  15
ATOM     15  C   UNL     1      -1.209  12.097  22.754  0.00  0.00    +0.000 A 
ATOM     16  C   UNL     1      -0.746  13.400  23.056  0.00  0.00    +0.000 A 
ATOM     17  C   UNL     1      -1.574  14.365  23.636  0.00  0.00    +0.000 A 
ATOM     18  C   UNL     1      -2.898  14.056  23.909  0.00  0.00    +0.000 A 
ATOM     19 CL   UNL     1      -3.958  15.275  24.497  0.00  0.00    +0.000 Cl
ATOM     20  C   UNL     1      -3.372  12.766  23.687  0.00  0.00    +0.000 A 
ATOM     21  C   UNL     1      -2.519  11.784  23.160  0.00  0.00    +0.000 A 
ENDBRANCH   4  15
BRANCH   1  23
ATOM     22  O   UNL     1       2.334   8.327  18.771  0.00  0.00    +0.000 OA
ATOM     23  C   UNL     1       1.826   8.107  19.865  0.00  0.00    +0.000 C 
ATOM     24  N   UNL     1       1.884   6.859  20.459  0.00  0.00    +0.000 N 
ATOM     25  H   UNL     1       1.356   6.713  21.311  0.00  0.00    +0.000 HD
BRANCH  24  26
ATOM     26  C   UNL     1       2.559   5.741  19.775  0.00  0.00    +0.000 C 
ATOM     27  C   UNL     1       2.752   4.552  20.719  0.00  0.00    +0.000 C 
ATOM     28  C   UNL     1       1.475   3.767  20.997  0.00  0.00    +0.000 C 
ATOM     29  C   UNL     1       1.253   2.623  20.012  0.00  0.00    +0.000 C 
ATOM     30  C   UNL     1       0.955   3.045  18.576  0.00  0.00    +0.000 C 
ATOM     31  C   UNL     1       1.987   3.975  17.936  0.00  0.00    +0.000 C 
ATOM     32  C   UNL     1       1.877   5.421  18.430  0.00  0.00    +0.000 C 
ENDBRANCH  24  26
ENDBRANCH   1  23
TORSDOF 4
ENDMDL
MODEL 3
REMARK VINA RESULT:      -8.3      1.594      4.137
REMARK  Name = 
REMARK  4 active torsions:
REMARK  status: ('A' for Active; 'I' for Inactive)
REMARK    1  A    between atoms: C_2  and  C_11
REMARK    2  A    between atoms: N_3  and  C_4
REMARK    3  A    between atoms: C_14  and  C_15
REMARK    4  A    between atoms: C_22  and  C_23
REMARK                            x       y       z     vdW  Elec       q    Type
REMARK                         _______ _______ _______ _____ _____    ______ ____
ROOT
ATOM      1  C   UNL     1       1.929   9.780  18.403  0.00  0.00    +0.000 A 
ATOM      2  C   UNL     1       2.582  10.782  17.711  0.00  0.00    +0.000 A 
ATOM      3  C   UNL     1       2.321  12.101  18.049  0.00  0.00    +0.000 A 
ATOM      4  C   UNL     1       1.381  12.440  19.039  0.00  0.00    +0.000 A 
ATOM      5  C   UNL     1       0.677  11.348  19.635  0.00  0.00    +0.000 A 
ATOM      6  N   UNL     1       0.985  10.024  19.350  0.00  0.00    +0.000 NA
ENDROOT
BRANCH   5   7
ATOM      7  C   UNL     1      -0.419  11.490  20.648  0.00  0.00    +0.000 A 
ATOM      8  C   UNL     1      -0.146  11.154  21.997  0.00  0.00    +0.000 A 
ATOM      9  C   UNL     1      -1.095  11.318  23.016  0.00  0.00    +0.000 A 
ATOM     10  C   UNL     1      -2.328  11.882  22.723  0.00  0.00    +0.000 A 
ATOM     11 CL   UNL     1      -3.489  12.114  23.972  0.00  0.00    +0.000 Cl
ATOM     12  C   UNL     1      -2.646  12.216  21.415  0.00  0.00    +0.000 A 
ATOM     13  C   UNL     1      -1.733  11.946  20.381  0.00  0.00    +0.000 A 
ATOM     14 CL   UNL     1      -2.374  12.108  18.777  0.00  0.00    +0.000 Cl
ENDBRANCH   5   7
BRANCH   4  15
ATOM     15  C   UNL     1       1.190  13.893  19.341  0.00  0.00    +0.000 A 
ATOM     16  C   UNL     1       2.124  14.583  20.151  0.00  0.00    +0.000 A 
ATOM     17  C   UNL     1       2.075  15.969  20.323  0.00  0.00    +0.000 A 
ATOM     18  C   UNL     1       1.099  16.706  19.667  0.00  0.00    +0.000 A 
ATOM     19 CL   UNL     1       1.113  18.422  19.764  0.00  0.00    +0.000 Cl
ATOM     20  C   UNL     1       0.125  16.056  18.916  0.00  0.00    +0.000 A 
ATOM     21  C   UNL     1       0.143  14.659  18.796  0.00  0.00    +0.000 A 
ENDBRANCH   4  15
BRANCH   1  23
ATOM     22  O   UNL     1       2.940   8.130  17.036  0.00  0.00    +0.000 OA
ATOM     23  C   UNL     1       2.372   8.368  18.097  0.00  0.00    +0.000 C 
ATOM     24  N   UNL     1       2.152   7.384  19.043  0.00  0.00    +0.000 N 
ATOM     25  H   UNL     1       1.586   7.619  19.850  0.00  0.00    +0.000 HD
BRANCH  24  26
ATOM     26  C   UNL     1       2.590   5.999  18.791  0.00  0.00    +0.000 C 
ATOM     27  C   UNL     1       3.068   5.329  20.081  0.00  0.00    +0.000 C 
ATOM     28  C   UNL     1       1.941   4.926  21.026  0.00  0.00    +0.000 C 
ATOM     29  C   UNL     1       1.433   3.509  20.778  0.00  0.00    +0.000 C 
ATOM     30  C   UNL     1       0.709   3.298  19.452  0.00  0.00    +0.000 C 
ATOM     31  C   UNL     1       1.490   3.703  18.202  0.00  0.00    +0.000 C 
ATOM     32  C   UNL     1       1.530   5.220  17.988  0.00  0.00    +0.000 C 
ENDBRANCH  24  26
ENDBRANCH   1  23
TORSDOF 4
ENDMDL
MODEL 4
REMARK VINA RESULT:      -8.2      0.967      1.173
REMARK  Name = 
REMARK  4 active torsions:
REMARK  status: ('A' for Active; 'I' for Inactive)
REMARK    1  A    between atoms: C_2  and  C_11
REMARK    2  A    between atoms: N_3  and  C_4
REMARK    3  A    between atoms: C_14  and  C_15
REMARK    4  A    between atoms: C_22  and  C_23
REMARK                            x       y       z     vdW  Elec       q    Type
REMARK                         _______ _______ _______ _____ _____    ______ ____
ROOT
ATOM      1  C   UNL     1       1.177   9.094  20.274  0.00  0.00    +0.000 A 
ATOM      2  C   UNL     1       0.161   8.777  21.155  0.00  0.00    +0.000 A 
ATOM      3  C   UNL     1      -0.642   9.799  21.638  0.00  0.00    +0.000 A 
ATOM      4  C   UNL     1      -0.419  11.144  21.289  0.00  0.00    +0.000 A 
ATOM      5  C   UNL     1       0.712  11.395  20.454  0.00  0.00    +0.000 A 
ATOM      6  N   UNL     1       1.476  10.369  19.912  0.00  0.00    +0.000 NA
ENDROOT
BRANCH   5   7
ATOM      7  C   UNL     1       1.176  12.757  20.031  0.00  0.00    +0.000 A 
ATOM      8  C   UNL     1       2.193  13.393  20.783  0.00  0.00    +0.000 A 
ATOM      9  C   UNL     1       2.728  14.637  20.419  0.00  0.00    +0.000 A 
ATOM     10  C   UNL     1       2.300  15.254  19.253  0.00  0.00    +0.000 A 
ATOM     11 CL   UNL     1       2.970  16.767  18.783  0.00  0.00    +0.000 Cl
ATOM     12  C   UNL     1       1.297  14.676  18.489  0.00  0.00    +0.000 A 
ATOM     13  C   UNL     1       0.688  13.485  18.918  0.00  0.00    +0.000 A 
ATOM     14 CL   UNL     1      -0.754  13.048  18.057  0.00  0.00    +0.000 Cl
ENDBRANCH   5   7
BRANCH   4  15
ATOM     15  C   UNL     1      -1.358  12.167  21.849  0.00  0.00    +0.000 A 
ATOM     16  C   UNL     1      -2.553  12.490  21.163  0.00  0.00    +0.000 A 
ATOM     17  C   UNL     1      -3.532  13.314  21.727  0.00  0.00    +0.000 A 
ATOM     18  C   UNL     1      -3.348  13.817  23.007  0.00  0.00    +0.000 A 
ATOM     19 CL   UNL     1      -4.603  14.718  23.761  0.00  0.00    +0.000 Cl
ATOM     20  C   UNL     1      -2.158  13.575  23.686  0.00  0.00    +0.000 A 
ATOM     21  C   UNL     1      -1.153  12.797  23.090  0.00  0.00    +0.000 A 
ENDBRANCH   4  15
BRANCH   1  23
ATOM     22  O   UNL     1       2.536   8.078  18.620  0.00  0.00    +0.000 OA
ATOM     23  C   UNL     1       1.912   7.923  19.665  0.00  0.00    +0.000 C 
ATOM     24  N   UNL     1       1.887   6.707  20.325  0.00  0.00    +0.000 N 
ATOM     25  H   UNL     1       1.269   6.613  21.123  0.00  0.00    +0.000 HD
BRANCH  24  26
ATOM     26  C   UNL     1       2.610   5.547  19.775  0.00  0.00    +0.000 C 
ATOM     27  C   UNL     1       2.689   4.411  20.797  0.00  0.00    +0.000 C 
ATOM     28  C   UNL     1       1.378   3.655  20.986  0.00  0.00    +0.000 C 
ATOM     29  C   UNL     1       1.240   2.460  20.048  0.00  0.00    +0.000 C 
ATOM     30  C   UNL     1       1.095   2.804  18.569  0.00  0.00    +0.000 C 
ATOM     31  C   UNL     1       2.199   3.687  17.987  0.00  0.00    +0.000 C 
ATOM     32  C   UNL     1       2.062   5.159  18.387  0.00  0.00    +0.000 C 
ENDBRANCH  24  26
ENDBRANCH   1  23
TORSDOF 4
ENDMDL
MODEL 5
REMARK VINA RESULT:      -8.1      1.673      2.077
REMARK  Name = 
REMARK  4 active torsions:
REMARK  status: ('A' for Active; 'I' for Inactive)
REMARK    1  A    between atoms: C_2  and  C_11
REMARK    2  A    between atoms: N_3  and  C_4
REMARK    3  A    between atoms: C_14  and  C_15
REMARK    4  A    between atoms: C_22  and  C_23
REMARK                            x       y       z     vdW  Elec       q    Type
REMARK                         _______ _______ _______ _____ _____    ______ ____
ROOT
ATOM      1  C   UNL     1       1.293   9.637  19.444  0.00  0.00    +0.000 A 
ATOM      2  C   UNL     1       0.740   9.079  20.581  0.00  0.00    +0.000 A 
ATOM      3  C   UNL     1       0.056   9.904  21.460  0.00  0.00    +0.000 A 
ATOM      4  C   UNL     1      -0.047  11.291  21.247  0.00  0.00    +0.000 A 
ATOM      5  C   UNL     1       0.638  11.801  20.102  0.00  0.00    +0.000 A 
ATOM      6  N   UNL     1       1.265  10.970  19.182  0.00  0.00    +0.000 NA
ENDROOT
BRANCH   5   7
ATOM      7  C   UNL     1       0.726  13.253  19.735  0.00  0.00    +0.000 A 
ATOM      8  C   UNL     1      -0.267  13.801  18.888  0.00  0.00    +0.000 A 
ATOM      9  C   UNL     1      -0.295  15.161  18.548  0.00  0.00    +0.000 A 
ATOM     10  C   UNL     1       0.639  16.026  19.099  0.00  0.00    +0.000 A 
ATOM     11 CL   UNL     1       0.597  17.701  18.712  0.00  0.00    +0.000 Cl
ATOM     12  C   UNL     1       1.639  15.533  19.925  0.00  0.00    +0.000 A 
ATOM     13  C   UNL     1       1.727  14.153  20.172  0.00  0.00    +0.000 A 
ATOM     14 CL   UNL     1       3.194  13.640  20.944  0.00  0.00    +0.000 Cl
ENDBRANCH   5   7
BRANCH   4  15
ATOM     15  C   UNL     1      -0.826  12.087  22.247  0.00  0.00    +0.000 A 
ATOM     16  C   UNL     1      -0.403  13.388  22.608  0.00  0.00    +0.000 A 
ATOM     17  C   UNL     1      -1.185  14.226  23.409  0.00  0.00    +0.000 A 
ATOM     18  C   UNL     1      -2.425  13.788  23.852  0.00  0.00    +0.000 A 
ATOM     19 CL   UNL     1      -3.450  14.858  24.723  0.00  0.00    +0.000 Cl
ATOM     20  C   UNL     1      -2.845  12.491  23.572  0.00  0.00    +0.000 A 
ATOM     21  C   UNL     1      -2.029  11.634  22.818  0.00  0.00    +0.000 A 
ENDBRANCH   4  15
BRANCH   1  23
ATOM     22  O   UNL     1       2.135   9.040  17.311  0.00  0.00    +0.000 OA
ATOM     23  C   UNL     1       1.886   8.664  18.452  0.00  0.00    +0.000 C 
ATOM     24  N   UNL     1       2.165   7.375  18.872  0.00  0.00    +0.000 N 
ATOM     25  H   UNL     1       1.840   7.094  19.789  0.00  0.00    +0.000 HD
BRANCH  24  26
ATOM     26  C   UNL     1       2.764   6.404  17.940  0.00  0.00    +0.000 C 
ATOM     27  C   UNL     1       4.265   6.250  18.193  0.00  0.00    +0.000 C 
ATOM     28  C   UNL     1       4.605   5.442  19.441  0.00  0.00    +0.000 C 
ATOM     29  C   UNL     1       4.758   3.950  19.161  0.00  0.00    +0.000 C 
ATOM     30  C   UNL     1       3.476   3.226  18.760  0.00  0.00    +0.000 C 
ATOM     31  C   UNL     1       2.733   3.818  17.562  0.00  0.00    +0.000 C 
ATOM     32  C   UNL     1       1.955   5.091  17.910  0.00  0.00    +0.000 C 
ENDBRANCH  24  26
ENDBRANCH   1  23
TORSDOF 4
ENDMDL
MODEL 6
REMARK VINA RESULT:      -8.1      1.333      1.602
REMARK  Name = 
REMARK  4 active torsions:
REMARK  status: ('A' for Active; 'I' for Inactive)
REMARK    1  A    between atoms: C_2  and  C_11
REMARK    2  A    between atoms: N_3  and  C_4
REMARK    3  A    between atoms: C_14  and  C_15
REMARK    4  A    between atoms: C_22  and  C_23
REMARK                            x       y       z     vdW  Elec       q    Type
REMARK                         _______ _______ _______ _____ _____    ______ ____
ROOT
ATOM      1  C   UNL     1       1.377   9.460  19.427  0.00  0.00    +0.000 A 
ATOM      2  C   UNL     1       0.864   8.906  20.585  0.00  0.00    +0.000 A 
ATOM      3  C   UNL     1       0.178   9.728  21.466  0.00  0.00    +0.000 A 
ATOM      4  C   UNL     1       0.033  11.108  21.234  0.00  0.00    +0.000 A 
ATOM      5  C   UNL     1       0.679  11.617  20.065  0.00  0.00    +0.000 A 
ATOM      6  N   UNL     1       1.307  10.788  19.144  0.00  0.00    +0.000 NA
ENDROOT
BRANCH   5   7
ATOM      7  C   UNL     1       0.720  13.064  19.673  0.00  0.00    +0.000 A 
ATOM      8  C   UNL     1       1.945  13.764  19.784  0.00  0.00    +0.000 A 
ATOM      9  C   UNL     1       2.084  15.100  19.380  0.00  0.00    +0.000 A 
ATOM     10  C   UNL     1       1.011  15.755  18.794  0.00  0.00    +0.000 A 
ATOM     11 CL   UNL     1       1.180  17.385  18.269  0.00  0.00    +0.000 Cl
ATOM     12  C   UNL     1      -0.213  15.114  18.675  0.00  0.00    +0.000 A 
ATOM     13  C   UNL     1      -0.376  13.815  19.183  0.00  0.00    +0.000 A 
ATOM     14 CL   UNL     1      -2.018  13.261  19.262  0.00  0.00    +0.000 Cl
ENDBRANCH   5   7
BRANCH   4  15
ATOM     15  C   UNL     1      -0.744  11.900  22.238  0.00  0.00    +0.000 A 
ATOM     16  C   UNL     1      -0.371  13.231  22.540  0.00  0.00    +0.000 A 
ATOM     17  C   UNL     1      -1.161  14.058  23.345  0.00  0.00    +0.000 A 
ATOM     18  C   UNL     1      -2.360  13.576  23.851  0.00  0.00    +0.000 A 
ATOM     19 CL   UNL     1      -3.401  14.626  24.728  0.00  0.00    +0.000 Cl
ATOM     20  C   UNL     1      -2.726  12.252  23.630  0.00  0.00    +0.000 A 
ATOM     21  C   UNL     1      -1.900  11.410  22.872  0.00  0.00    +0.000 A 
ENDBRANCH   4  15
BRANCH   1  23
ATOM     22  O   UNL     1       2.239   8.867  17.302  0.00  0.00    +0.000 OA
ATOM     23  C   UNL     1       1.973   8.487  18.438  0.00  0.00    +0.000 C 
ATOM     24  N   UNL     1       2.236   7.194  18.854  0.00  0.00    +0.000 N 
ATOM     25  H   UNL     1       1.897   6.911  19.766  0.00  0.00    +0.000 HD
BRANCH  24  26
ATOM     26  C   UNL     1       2.837   6.221  17.925  0.00  0.00    +0.000 C 
ATOM     27  C   UNL     1       4.345   6.097  18.157  0.00  0.00    +0.000 C 
ATOM     28  C   UNL     1       4.717   5.310  19.409  0.00  0.00    +0.000 C 
ATOM     29  C   UNL     1       4.892   3.817  19.144  0.00  0.00    +0.000 C 
ATOM     30  C   UNL     1       3.617   3.067  18.771  0.00  0.00    +0.000 C 
ATOM     31  C   UNL     1       2.846   3.631  17.578  0.00  0.00    +0.000 C 
ATOM     32  C   UNL     1       2.051   4.895  17.923  0.00  0.00    +0.000 C 
ENDBRANCH  24  26
ENDBRANCH   1  23
TORSDOF 4
ENDMDL
MODEL 7
REMARK VINA RESULT:      -7.8      3.669      8.955
REMARK  Name = 
REMARK  4 active torsions:
REMARK  status: ('A' for Active; 'I' for Inactive)
REMARK    1  A    between atoms: C_2  and  C_11
REMARK    2  A    between atoms: N_3  and  C_4
REMARK    3  A    between atoms: C_14  and  C_15
REMARK    4  A    between atoms: C_22  and  C_23
REMARK                            x       y       z     vdW  Elec       q    Type
REMARK                         _______ _______ _______ _____ _____    ______ ____
ROOT
ATOM      1  C   UNL     1      -1.977  11.902  22.267  0.00  0.00    +0.000 A 
ATOM      2  C   UNL     1      -0.942  11.252  22.911  0.00  0.00    +0.000 A 
ATOM      3  C   UNL     1      -0.058  10.499  22.153  0.00  0.00    +0.000 A 
ATOM      4  C   UNL     1      -0.216  10.346  20.764  0.00  0.00    +0.000 A 
ATOM      5  C   UNL     1      -1.369  10.968  20.193  0.00  0.00    +0.000 A 
ATOM      6  N   UNL     1      -2.217  11.780  20.934  0.00  0.00    +0.000 NA
ENDROOT
BRANCH   5   7
ATOM      7  C   UNL     1      -1.770  10.863  18.751  0.00  0.00    +0.000 A 
ATOM      8  C   UNL     1      -2.391   9.672  18.304  0.00  0.00    +0.000 A 
ATOM      9  C   UNL     1      -2.854   9.516  16.990  0.00  0.00    +0.000 A 
ATOM     10  C   UNL     1      -2.763  10.576  16.099  0.00  0.00    +0.000 A 
ATOM     11 CL   UNL     1      -3.354  10.405  14.492  0.00  0.00    +0.000 Cl
ATOM     12  C   UNL     1      -2.152  11.759  16.488  0.00  0.00    +0.000 A 
ATOM     13  C   UNL     1      -1.591  11.869  17.772  0.00  0.00    +0.000 A 
ATOM     14 CL   UNL     1      -0.584  13.261  18.014  0.00  0.00    +0.000 Cl
ENDBRANCH   5   7
BRANCH   4  15
ATOM     15  C   UNL     1       0.806   9.528  20.038  0.00  0.00    +0.000 A 
ATOM     16  C   UNL     1       1.285   8.321  20.601  0.00  0.00    +0.000 A 
ATOM     17  C   UNL     1       2.113   7.448  19.889  0.00  0.00    +0.000 A 
ATOM     18  C   UNL     1       2.465   7.753  18.582  0.00  0.00    +0.000 A 
ATOM     19 CL   UNL     1       3.369   6.624  17.654  0.00  0.00    +0.000 Cl
ATOM     20  C   UNL     1       2.068   8.962  18.018  0.00  0.00    +0.000 A 
ATOM     21  C   UNL     1       1.287   9.862  18.759  0.00  0.00    +0.000 A 
ENDBRANCH   4  15
BRANCH   1  23
ATOM     22  O   UNL     1      -3.906  12.458  23.527  0.00  0.00    +0.000 OA
ATOM     23  C   UNL     1      -2.809  12.829  23.122  0.00  0.00    +0.000 C 
ATOM     24  N   UNL     1      -2.291  14.068  23.454  0.00  0.00    +0.000 N 
ATOM     25  H   UNL     1      -1.431  14.359  23.004  0.00  0.00    +0.000 HD
BRANCH  24  26
ATOM     26  C   UNL     1      -3.061  14.993  24.304  0.00  0.00    +0.000 C 
ATOM     27  C   UNL     1      -2.517  15.010  25.735  0.00  0.00    +0.000 C 
ATOM     28  C   UNL     1      -1.205  15.773  25.890  0.00  0.00    +0.000 C 
ATOM     29  C   UNL     1      -1.410  17.248  26.221  0.00  0.00    +0.000 C 
ATOM     30  C   UNL     1      -2.033  18.086  25.109  0.00  0.00    +0.000 C 
ATOM     31  C   UNL     1      -3.368  17.574  24.567  0.00  0.00    +0.000 C 
ATOM     32  C   UNL     1      -3.212  16.371  23.632  0.00  0.00    +0.000 C 
ENDBRANCH  24  26
ENDBRANCH   1  23
TORSDOF 4
ENDMDL
MODEL 8
REMARK VINA RESULT:      -7.8      1.632      2.502
REMARK  Name = 
REMARK  4 active torsions:
REMARK  status: ('A' for Active; 'I' for Inactive)
REMARK    1  A    between atoms: C_2  and  C_11
REMARK    2  A    between atoms: N_3  and  C_4
REMARK    3  A    between atoms: C_14  and  C_15
REMARK    4  A    between atoms: C_22  and  C_23
REMARK                            x       y       z     vdW  Elec       q    Type
REMARK                         _______ _______ _______ _____ _____    ______ ____
ROOT
ATOM      1  C   UNL     1       0.882   8.698  21.109  0.00  0.00    +0.000 A 
ATOM      2  C   UNL     1       0.074   8.585  22.224  0.00  0.00    +0.000 A 
ATOM      3  C   UNL     1      -0.580   9.716  22.688  0.00  0.00    +0.000 A 
ATOM      4  C   UNL     1      -0.405  10.974  22.082  0.00  0.00    +0.000 A 
ATOM      5  C   UNL     1       0.524  11.022  20.997  0.00  0.00    +0.000 A 
ATOM      6  N   UNL     1       1.127   9.881  20.486  0.00  0.00    +0.000 NA
ENDROOT
BRANCH   5   7
ATOM      7  C   UNL     1       0.918  12.271  20.266  0.00  0.00    +0.000 A 
ATOM      8  C   UNL     1       2.141  12.900  20.605  0.00  0.00    +0.000 A 
ATOM      9  C   UNL     1       2.613  14.033  19.928  0.00  0.00    +0.000 A 
ATOM     10  C   UNL     1       1.902  14.534  18.847  0.00  0.00    +0.000 A 
ATOM     11 CL   UNL     1       2.488  15.907  17.992  0.00  0.00    +0.000 Cl
ATOM     12  C   UNL     1       0.693  13.959  18.485  0.00  0.00    +0.000 A 
ATOM     13  C   UNL     1       0.170  12.894  19.238  0.00  0.00    +0.000 A 
ATOM     14 CL   UNL     1      -1.478  12.487  18.883  0.00  0.00    +0.000 Cl
ENDBRANCH   5   7
BRANCH   4  15
ATOM     15  C   UNL     1      -1.174  12.126  22.649  0.00  0.00    +0.000 A 
ATOM     16  C   UNL     1      -2.510  11.948  23.081  0.00  0.00    +0.000 A 
ATOM     17  C   UNL     1      -3.208  12.949  23.764  0.00  0.00    +0.000 A 
ATOM     18  C   UNL     1      -2.575  14.150  24.051  0.00  0.00    +0.000 A 
ATOM     19 CL   UNL     1      -3.377  15.333  25.006  0.00  0.00    +0.000 Cl
ATOM     20  C   UNL     1      -1.285  14.385  23.585  0.00  0.00    +0.000 A 
ATOM     21  C   UNL     1      -0.611  13.399  22.848  0.00  0.00    +0.000 A 
ENDBRANCH   4  15
BRANCH   1  23
ATOM     22  O   UNL     1       1.123   6.341  21.087  0.00  0.00    +0.000 OA
ATOM     23  C   UNL     1       1.438   7.404  20.562  0.00  0.00    +0.000 C 
ATOM     24  N   UNL     1       2.268   7.453  19.457  0.00  0.00    +0.000 N 
ATOM     25  H   UNL     1       2.576   8.363  19.135  0.00  0.00    +0.000 HD
BRANCH  24  26
ATOM     26  C   UNL     1       2.813   6.211  18.881  0.00  0.00    +0.000 C 
ATOM     27  C   UNL     1       3.241   6.419  17.426  0.00  0.00    +0.000 C 
ATOM     28  C   UNL     1       4.539   7.204  17.267  0.00  0.00    +0.000 C 
ATOM     29  C   UNL     1       5.775   6.309  17.236  0.00  0.00    +0.000 C 
ATOM     30  C   UNL     1       6.097   5.594  18.545  0.00  0.00    +0.000 C 
ATOM     31  C   UNL     1       4.965   4.749  19.129  0.00  0.00    +0.000 C 
ATOM     32  C   UNL     1       3.878   5.591  19.806  0.00  0.00    +0.000 C 
ENDBRANCH  24  26
ENDBRANCH   1  23
TORSDOF 4
ENDMDL
MODEL 9
REMARK VINA RESULT:      -7.7      1.419      1.848
REMARK  Name = 
REMARK  4 active torsions:
REMARK  status: ('A' for Active; 'I' for Inactive)
REMARK    1  A    between atoms: C_2  and  C_11
REMARK    2  A    between atoms: N_3  and  C_4
REMARK    3  A    between atoms: C_14  and  C_15
REMARK    4  A    between atoms: C_22  and  C_23
REMARK                            x       y       z     vdW  Elec       q    Type
REMARK                         _______ _______ _______ _____ _____    ______ ____
ROOT
ATOM      1  C   UNL     1       1.128   9.637  19.679  0.00  0.00    +0.000 A 
ATOM      2  C   UNL     1       0.274   9.186  20.666  0.00  0.00    +0.000 A 
ATOM      3  C   UNL     1      -0.569  10.098  21.282  0.00  0.00    +0.000 A 
ATOM      4  C   UNL     1      -0.542  11.467  20.960  0.00  0.00    +0.000 A 
ATOM      5  C   UNL     1       0.440  11.866  20.002  0.00  0.00    +0.000 A 
ATOM      6  N   UNL     1       1.238  10.947  19.332  0.00  0.00    +0.000 NA
ENDROOT
BRANCH   5   7
ATOM      7  C   UNL     1       0.694  13.281  19.577  0.00  0.00    +0.000 A 
ATOM      8  C   UNL     1      -0.175  13.872  18.628  0.00  0.00    +0.000 A 
ATOM      9  C   UNL     1      -0.046  15.209  18.225  0.00  0.00    +0.000 A 
ATOM     10  C   UNL     1       0.922  16.013  18.809  0.00  0.00    +0.000 A 
ATOM     11 CL   UNL     1       1.070  17.662  18.343  0.00  0.00    +0.000 Cl
ATOM     12  C   UNL     1       1.804  15.476  19.735  0.00  0.00    +0.000 A 
ATOM     13  C   UNL     1       1.741  14.108  20.052  0.00  0.00    +0.000 A 
ATOM     14 CL   UNL     1       3.088  13.504  20.963  0.00  0.00    +0.000 Cl
ENDBRANCH   5   7
BRANCH   4  15
ATOM     15  C   UNL     1      -1.509  12.363  21.670  0.00  0.00    +0.000 A 
ATOM     16  C   UNL     1      -2.754  12.680  21.078  0.00  0.00    +0.000 A 
ATOM     17  C   UNL     1      -3.750  13.375  21.771  0.00  0.00    +0.000 A 
ATOM     18  C   UNL     1      -3.530  13.751  23.089  0.00  0.00    +0.000 A 
ATOM     19 CL   UNL     1      -4.795  14.484  23.992  0.00  0.00    +0.000 Cl
ATOM     20  C   UNL     1      -2.294  13.514  23.683  0.00  0.00    +0.000 A 
ATOM     21  C   UNL     1      -1.278  12.870  22.962  0.00  0.00    +0.000 A 
ENDBRANCH   4  15
BRANCH   1  23
ATOM     22  O   UNL     1       2.435   8.845  17.868  0.00  0.00    +0.000 OA
ATOM     23  C   UNL     1       1.905   8.572  18.940  0.00  0.00    +0.000 C 
ATOM     24  N   UNL     1       2.024   7.319  19.514  0.00  0.00    +0.000 N 
ATOM     25  H   UNL     1       1.478   7.124  20.344  0.00  0.00    +0.000 HD
BRANCH  24  26
ATOM     26  C   UNL     1       2.792   6.261  18.835  0.00  0.00    +0.000 C 
ATOM     27  C   UNL     1       3.526   5.376  19.846  0.00  0.00    +0.000 C 
ATOM     28  C   UNL     1       2.618   4.404  20.593  0.00  0.00    +0.000 C 
ATOM     29  C   UNL     1       2.486   3.055  19.892  0.00  0.00    +0.000 C 
ATOM     30  C   UNL     1       1.747   3.082  18.557  0.00  0.00    +0.000 C 
ATOM     31  C   UNL     1       2.298   4.058  17.518  0.00  0.00    +0.000 C 
ATOM     32  C   UNL     1       1.920   5.515  17.806  0.00  0.00    +0.000 C 
ENDBRANCH  24  26
ENDBRANCH   1  23
TORSDOF 4
ENDMDL
