MODEL 1
REMARK VINA RESULT:      -8.6      0.000      0.000
REMARK  Name = 
REMARK  6 active torsions:
REMARK  status: ('A' for Active; 'I' for Inactive)
REMARK    1  A    between atoms: C_1  and  C_2
REMARK    2  A    between atoms: C_6  and  C_7
REMARK    3  A    between atoms: C_8  and  O_9
REMARK    4  A    between atoms: O_9  and  C_10
REMARK    5  A    between atoms: C_10  and  C_11
REMARK    6  A    between atoms: C_24  and  C_25
REMARK                            x       y       z     vdW  Elec       q    Type
REMARK                         _______ _______ _______ _____ _____    ______ ____
ROOT
ATOM      1  C   UNL     1       1.744  15.260  19.194  0.00  0.00    +0.000 C 
ATOM      2  C   UNL     1       1.790  13.744  19.404  0.00  0.00    +0.000 C 
ATOM      3  C   UNL     1       2.348  13.093  18.133  0.00  0.00    +0.000 C 
ATOM      4  C   UNL     1       2.420  11.584  18.264  0.00  0.00    +0.000 C 
ATOM      5  C   UNL     1       1.027  11.002  18.549  0.00  0.00    +0.000 C 
ATOM      6  C   UNL     1       1.045   9.448  18.632  0.00  0.00    +0.000 C 
ATOM      7  C   UNL     1       1.605   8.922  17.301  0.00  0.00    +0.000 C 
ATOM      8  C   UNL     1       1.727   8.987  19.945  0.00  0.00    +0.000 C 
ATOM      9  O   UNL     1       1.071   9.571  21.076  0.00  0.00    +0.000 OA
ATOM     10  C   UNL     1       1.038  10.999  21.085  0.00  0.00    +0.000 C 
ATOM     11  O   UNL     1       0.375  11.426  22.280  0.00  0.00    +0.000 OA
ATOM     12  C   UNL     1      -1.022  11.584  22.042  0.00  0.00    +0.000 C 
ATOM     13  C   UNL     1      -1.783  11.153  23.306  0.00  0.00    +0.000 C 
ATOM     14  C   UNL     1      -1.327  13.065  21.734  0.00  0.00    +0.000 C 
ATOM     15  C   UNL     1      -0.150  13.799  21.062  0.00  0.00    +0.000 C 
ATOM     16  C   UNL     1       0.401  13.156  19.768  0.00  0.00    +0.000 C 
ATOM     17  C   UNL     1       0.386  11.600  19.810  0.00  0.00    +0.000 C 
ATOM     18  O   UNL     1      -1.023  11.266  19.716  0.00  0.00    +0.000 OA
ATOM     19  O   UNL     1      -1.477  10.725  20.996  0.00  0.00    +0.000 OA
ENDROOT
BRANCH   8  20
ATOM     20  O   UNL     1       1.648   7.572  20.134  0.00  0.00    +0.000 OA
BRANCH  20  21
ATOM     21  C   UNL     1       2.636   6.844  19.447  0.00  0.00    +0.000 C 
BRANCH  21  22
ATOM     22  C   UNL     1       2.446   5.348  19.542  0.00  0.00    +0.000 C 
ATOM     23  C   UNL     1       3.786   4.630  19.858  0.00  0.00    +0.000 C 
ATOM     24  C   UNL     1       3.547   3.114  19.927  0.00  0.00    +0.000 C 
ATOM     25  C   UNL     1       2.542   2.814  21.050  0.00  0.00    +0.000 C 
ATOM     26  C   UNL     1       1.211   3.535  20.780  0.00  0.00    +0.000 C 
ATOM     27  C   UNL     1       0.638   3.068  19.429  0.00  0.00    +0.000 C 
ATOM     28  C   UNL     1       1.634   3.351  18.292  0.00  0.00    +0.000 C 
ATOM     29  C   UNL     1       2.973   2.652  18.580  0.00  0.00    +0.000 C 
ATOM     30  C   UNL     1       1.883   4.855  18.210  0.00  0.00    +0.000 C 
ATOM     31  C   UNL     1       1.466   5.044  20.703  0.00  0.00    +0.000 C 
ENDBRANCH  21  22
ENDBRANCH  20  21
ENDBRANCH   8  20
TORSDOF 3
ENDMDL
MODEL 2
REMARK VINA RESULT:      -8.6      0.137      1.370
REMARK  Name = 
REMARK  6 active torsions:
REMARK  status: ('A' for Active; 'I' for Inactive)
REMARK    1  A    between atoms: C_1  and  C_2
REMARK    2  A    between atoms: C_6  and  C_7
REMARK    3  A    between atoms: C_8  and  O_9
REMARK    4  A    between atoms: O_9  and  C_10
REMARK    5  A    between atoms: C_10  and  C_11
REMARK    6  A    between atoms: C_24  and  C_25
REMARK                            x       y       z     vdW  Elec       q    Type
REMARK                         _______ _______ _______ _____ _____    ______ ____
ROOT
ATOM      1  C   UNL     1       1.608  15.187  19.058  0.00  0.00    +0.000 C 
ATOM      2  C   UNL     1       1.705  13.679  19.307  0.00  0.00    +0.000 C 
ATOM      3  C   UNL     1       2.266  13.013  18.045  0.00  0.00    +0.000 C 
ATOM      4  C   UNL     1       2.387  11.511  18.214  0.00  0.00    +0.000 C 
ATOM      5  C   UNL     1       1.016  10.894  18.533  0.00  0.00    +0.000 C 
ATOM      6  C   UNL     1       1.084   9.344  18.656  0.00  0.00    +0.000 C 
ATOM      7  C   UNL     1       1.643   8.801  17.331  0.00  0.00    +0.000 C 
ATOM      8  C   UNL     1       1.797   8.938  19.971  0.00  0.00    +0.000 C 
ATOM      9  O   UNL     1       1.138   9.531  21.096  0.00  0.00    +0.000 OA
ATOM     10  C   UNL     1       1.061  10.957  21.068  0.00  0.00    +0.000 C 
ATOM     11  O   UNL     1       0.400  11.395  22.261  0.00  0.00    +0.000 OA
ATOM     12  C   UNL     1      -1.004  11.502  22.038  0.00  0.00    +0.000 C 
ATOM     13  C   UNL     1      -1.735  11.082  23.324  0.00  0.00    +0.000 C 
ATOM     14  C   UNL     1      -1.359  12.965  21.696  0.00  0.00    +0.000 C 
ATOM     15  C   UNL     1      -0.215  13.718  20.990  0.00  0.00    +0.000 C 
ATOM     16  C   UNL     1       0.339  13.058  19.705  0.00  0.00    +0.000 C 
ATOM     17  C   UNL     1       0.373  11.504  19.787  0.00  0.00    +0.000 C 
ATOM     18  O   UNL     1      -1.026  11.124  19.721  0.00  0.00    +0.000 OA
ATOM     19  O   UNL     1      -1.446  10.603  21.021  0.00  0.00    +0.000 OA
ENDROOT
BRANCH   8  20
ATOM     20  O   UNL     1       1.765   7.527  20.197  0.00  0.00    +0.000 OA
BRANCH  20  21
ATOM     21  C   UNL     1       2.528   6.780  19.282  0.00  0.00    +0.000 C 
BRANCH  21  22
ATOM     22  C   UNL     1       2.350   5.288  19.438  0.00  0.00    +0.000 C 
ATOM     23  C   UNL     1       1.776   4.651  18.143  0.00  0.00    +0.000 C 
ATOM     24  C   UNL     1       1.596   3.141  18.355  0.00  0.00    +0.000 C 
ATOM     25  C   UNL     1       2.962   2.509  18.660  0.00  0.00    +0.000 C 
ATOM     26  C   UNL     1       3.572   3.139  19.924  0.00  0.00    +0.000 C 
ATOM     27  C   UNL     1       2.619   2.923  21.116  0.00  0.00    +0.000 C 
ATOM     28  C   UNL     1       1.241   3.541  20.826  0.00  0.00    +0.000 C 
ATOM     29  C   UNL     1       0.649   2.928  19.546  0.00  0.00    +0.000 C 
ATOM     30  C   UNL     1       1.403   5.043  20.612  0.00  0.00    +0.000 C 
ATOM     31  C   UNL     1       3.735   4.646  19.702  0.00  0.00    +0.000 C 
ENDBRANCH  21  22
ENDBRANCH  20  21
ENDBRANCH   8  20
TORSDOF 3
ENDMDL
MODEL 3
REMARK VINA RESULT:      -8.1      0.615      1.390
REMARK  Name = 
REMARK  6 active torsions:
REMARK  status: ('A' for Active; 'I' for Inactive)
REMARK    1  A    between atoms: C_1  and  C_2
REMARK    2  A    between atoms: C_6  and  C_7
REMARK    3  A    between atoms: C_8  and  O_9
REMARK    4  A    between atoms: O_9  and  C_10
REMARK    5  A    between atoms: C_10  and  C_11
REMARK    6  A    between atoms: C_24  and  C_25
REMARK                            x       y       z     vdW  Elec       q    Type
REMARK                         _______ _______ _______ _____ _____    ______ ____
ROOT
ATOM      1  C   UNL     1       2.225  15.187  19.165  0.00  0.00    +0.000 C 
ATOM      2  C   UNL     1       2.076  13.681  19.401  0.00  0.00    +0.000 C 
ATOM      3  C   UNL     1       2.613  12.941  18.171  0.00  0.00    +0.000 C 
ATOM      4  C   UNL     1       2.495  11.437  18.329  0.00  0.00    +0.000 C 
ATOM      5  C   UNL     1       1.029  11.034  18.550  0.00  0.00    +0.000 C 
ATOM      6  C   UNL     1       0.853   9.491  18.658  0.00  0.00    +0.000 C 
ATOM      7  C   UNL     1       1.411   8.873  17.367  0.00  0.00    +0.000 C 
ATOM      8  C   UNL     1       1.407   8.980  20.012  0.00  0.00    +0.000 C 
ATOM      9  O   UNL     1       0.772   9.663  21.099  0.00  0.00    +0.000 OA
ATOM     10  C   UNL     1       0.912  11.084  21.083  0.00  0.00    +0.000 C 
ATOM     11  O   UNL     1       0.247  11.615  22.235  0.00  0.00    +0.000 OA
ATOM     12  C   UNL     1      -1.106  11.934  21.922  0.00  0.00    +0.000 C 
ATOM     13  C   UNL     1      -1.977  11.626  23.152  0.00  0.00    +0.000 C 
ATOM     14  C   UNL     1      -1.213  13.435  21.575  0.00  0.00    +0.000 C 
ATOM     15  C   UNL     1       0.076  14.007  20.954  0.00  0.00    +0.000 C 
ATOM     16  C   UNL     1       0.609  13.273  19.701  0.00  0.00    +0.000 C 
ATOM     17  C   UNL     1       0.403  11.732  19.766  0.00  0.00    +0.000 C 
ATOM     18  O   UNL     1      -1.030  11.568  19.604  0.00  0.00    +0.000 OA
ATOM     19  O   UNL     1      -1.610  11.114  20.867  0.00  0.00    +0.000 OA
ENDROOT
BRANCH   8  20
ATOM     20  O   UNL     1       1.148   7.589  20.219  0.00  0.00    +0.000 OA
BRANCH  20  21
ATOM     21  C   UNL     1       2.282   6.840  20.582  0.00  0.00    +0.000 C 
BRANCH  21  22
ATOM     22  C   UNL     1       2.352   5.497  19.893  0.00  0.00    +0.000 C 
ATOM     23  C   UNL     1       1.633   4.400  20.725  0.00  0.00    +0.000 C 
ATOM     24  C   UNL     1       1.746   3.053  19.996  0.00  0.00    +0.000 C 
ATOM     25  C   UNL     1       1.067   3.166  18.623  0.00  0.00    +0.000 C 
ATOM     26  C   UNL     1       1.740   4.265  17.783  0.00  0.00    +0.000 C 
ATOM     27  C   UNL     1       3.233   3.932  17.601  0.00  0.00    +0.000 C 
ATOM     28  C   UNL     1       3.929   3.805  18.966  0.00  0.00    +0.000 C 
ATOM     29  C   UNL     1       3.235   2.725  19.812  0.00  0.00    +0.000 C 
ATOM     30  C   UNL     1       3.825   5.137  19.705  0.00  0.00    +0.000 C 
ATOM     31  C   UNL     1       1.629   5.600  18.527  0.00  0.00    +0.000 C 
ENDBRANCH  21  22
ENDBRANCH  20  21
ENDBRANCH   8  20
TORSDOF 3
ENDMDL
MODEL 4
REMARK VINA RESULT:      -7.8      2.528      4.182
REMARK  Name = 
REMARK  6 active torsions:
REMARK  status: ('A' for Active; 'I' for Inactive)
REMARK    1  A    between atoms: C_1  and  C_2
REMARK    2  A    between atoms: C_6  and  C_7
REMARK    3  A    between atoms: C_8  and  O_9
REMARK    4  A    between atoms: O_9  and  C_10
REMARK    5  A    between atoms: C_10  and  C_11
REMARK    6  A    between atoms: C_24  and  C_25
REMARK                            x       y       z     vdW  Elec       q    Type
REMARK                         _______ _______ _______ _____ _____    ______ ____
ROOT
ATOM      1  C   UNL     1      -4.718  12.813  21.272  0.00  0.00    +0.000 C 
ATOM      2  C   UNL     1      -3.428  12.111  20.837  0.00  0.00    +0.000 C 
ATOM      3  C   UNL     1      -2.266  12.678  21.659  0.00  0.00    +0.000 C 
ATOM      4  C   UNL     1      -0.947  12.031  21.280  0.00  0.00    +0.000 C 
ATOM      5  C   UNL     1      -0.652  12.248  19.788  0.00  0.00    +0.000 C 
ATOM      6  C   UNL     1       0.723  11.651  19.368  0.00  0.00    +0.000 C 
ATOM      7  C   UNL     1       1.798  12.308  20.248  0.00  0.00    +0.000 C 
ATOM      8  C   UNL     1       0.651  10.104  19.335  0.00  0.00    +0.000 C 
ATOM      9  O   UNL     1      -0.402   9.675  18.463  0.00  0.00    +0.000 OA
ATOM     10  C   UNL     1      -1.702  10.161  18.801  0.00  0.00    +0.000 C 
ATOM     11  O   UNL     1      -2.640   9.631  17.858  0.00  0.00    +0.000 OA
ATOM     12  C   UNL     1      -2.797  10.526  16.760  0.00  0.00    +0.000 C 
ATOM     13  C   UNL     1      -2.995   9.697  15.480  0.00  0.00    +0.000 C 
ATOM     14  C   UNL     1      -4.036  11.416  16.996  0.00  0.00    +0.000 C 
ATOM     15  C   UNL     1      -4.326  11.668  18.488  0.00  0.00    +0.000 C 
ATOM     16  C   UNL     1      -3.160  12.259  19.315  0.00  0.00    +0.000 C 
ATOM     17  C   UNL     1      -1.769  11.711  18.882  0.00  0.00    +0.000 C 
ATOM     18  O   UNL     1      -1.543  12.329  17.589  0.00  0.00    +0.000 OA
ATOM     19  O   UNL     1      -1.622  11.308  16.546  0.00  0.00    +0.000 OA
ENDROOT
BRANCH   8  20
ATOM     20  O   UNL     1       1.847   9.511  18.824  0.00  0.00    +0.000 OA
BRANCH  20  21
ATOM     21  C   UNL     1       1.626   8.508  17.862  0.00  0.00    +0.000 C 
BRANCH  21  22
ATOM     22  C   UNL     1       2.317   7.205  18.194  0.00  0.00    +0.000 C 
ATOM     23  C   UNL     1       2.400   6.987  19.729  0.00  0.00    +0.000 C 
ATOM     24  C   UNL     1       3.124   5.663  20.016  0.00  0.00    +0.000 C 
ATOM     25  C   UNL     1       2.327   4.509  19.390  0.00  0.00    +0.000 C 
ATOM     26  C   UNL     1       2.202   4.710  17.870  0.00  0.00    +0.000 C 
ATOM     27  C   UNL     1       3.608   4.775  17.243  0.00  0.00    +0.000 C 
ATOM     28  C   UNL     1       4.425   5.920  17.865  0.00  0.00    +0.000 C 
ATOM     29  C   UNL     1       4.523   5.729  19.387  0.00  0.00    +0.000 C 
ATOM     30  C   UNL     1       3.719   7.244  17.588  0.00  0.00    +0.000 C 
ATOM     31  C   UNL     1       1.489   6.038  17.599  0.00  0.00    +0.000 C 
ENDBRANCH  21  22
ENDBRANCH  20  21
ENDBRANCH   8  20
TORSDOF 3
ENDMDL
MODEL 5
REMARK VINA RESULT:      -7.7      1.651      3.845
REMARK  Name = 
REMARK  6 active torsions:
REMARK  status: ('A' for Active; 'I' for Inactive)
REMARK    1  A    between atoms: C_1  and  C_2
REMARK    2  A    between atoms: C_6  and  C_7
REMARK    3  A    between atoms: C_8  and  O_9
REMARK    4  A    between atoms: O_9  and  C_10
REMARK    5  A    between atoms: C_10  and  C_11
REMARK    6  A    between atoms: C_24  and  C_25
REMARK                            x       y       z     vdW  Elec       q    Type
REMARK                         _______ _______ _______ _____ _____    ______ ____
ROOT
ATOM      1  C   UNL     1      -2.796  14.981  20.728  0.00  0.00    +0.000 C 
ATOM      2  C   UNL     1      -1.975  13.700  20.554  0.00  0.00    +0.000 C 
ATOM      3  C   UNL     1      -2.454  12.672  21.584  0.00  0.00    +0.000 C 
ATOM      4  C   UNL     1      -1.681  11.372  21.475  0.00  0.00    +0.000 C 
ATOM      5  C   UNL     1      -0.179  11.620  21.683  0.00  0.00    +0.000 C 
ATOM      6  C   UNL     1       0.646  10.302  21.638  0.00  0.00    +0.000 C 
ATOM      7  C   UNL     1       0.083   9.368  22.721  0.00  0.00    +0.000 C 
ATOM      8  C   UNL     1       0.731   9.768  20.186  0.00  0.00    +0.000 C 
ATOM      9  O   UNL     1       1.282  10.768  19.321  0.00  0.00    +0.000 OA
ATOM     10  C   UNL     1       0.562  12.001  19.287  0.00  0.00    +0.000 C 
ATOM     11  O   UNL     1       1.219  12.881  18.369  0.00  0.00    +0.000 OA
ATOM     12  C   UNL     1       2.181  13.680  19.052  0.00  0.00    +0.000 C 
ATOM     13  C   UNL     1       3.388  13.891  18.123  0.00  0.00    +0.000 C 
ATOM     14  C   UNL     1       1.557  15.047  19.406  0.00  0.00    +0.000 C 
ATOM     15  C   UNL     1       0.034  14.977  19.631  0.00  0.00    +0.000 C 
ATOM     16  C   UNL     1      -0.450  13.954  20.685  0.00  0.00    +0.000 C 
ATOM     17  C   UNL     1       0.391  12.644  20.691  0.00  0.00    +0.000 C 
ATOM     18  O   UNL     1       1.664  13.054  21.255  0.00  0.00    +0.000 OA
ATOM     19  O   UNL     1       2.687  13.018  20.212  0.00  0.00    +0.000 OA
ENDROOT
BRANCH   8  20
ATOM     20  O   UNL     1       1.593   8.633  20.069  0.00  0.00    +0.000 OA
BRANCH  20  21
ATOM     21  C   UNL     1       1.876   8.260  18.743  0.00  0.00    +0.000 C 
BRANCH  21  22
ATOM     22  C   UNL     1       2.532   6.904  18.634  0.00  0.00    +0.000 C 
ATOM     23  C   UNL     1       1.677   5.932  17.776  0.00  0.00    +0.000 C 
ATOM     24  C   UNL     1       2.374   4.564  17.710  0.00  0.00    +0.000 C 
ATOM     25  C   UNL     1       3.751   4.733  17.051  0.00  0.00    +0.000 C 
ATOM     26  C   UNL     1       4.615   5.714  17.864  0.00  0.00    +0.000 C 
ATOM     27  C   UNL     1       4.784   5.181  19.300  0.00  0.00    +0.000 C 
ATOM     28  C   UNL     1       3.414   4.996  19.973  0.00  0.00    +0.000 C 
ATOM     29  C   UNL     1       2.545   4.037  19.142  0.00  0.00    +0.000 C 
ATOM     30  C   UNL     1       2.707   6.346  20.047  0.00  0.00    +0.000 C 
ATOM     31  C   UNL     1       3.903   7.069  17.931  0.00  0.00    +0.000 C 
ENDBRANCH  21  22
ENDBRANCH  20  21
ENDBRANCH   8  20
TORSDOF 3
ENDMDL
MODEL 6
REMARK VINA RESULT:      -7.7      1.802      3.533
REMARK  Name = 
REMARK  6 active torsions:
REMARK  status: ('A' for Active; 'I' for Inactive)
REMARK    1  A    between atoms: C_1  and  C_2
REMARK    2  A    between atoms: C_6  and  C_7
REMARK    3  A    between atoms: C_8  and  O_9
REMARK    4  A    between atoms: O_9  and  C_10
REMARK    5  A    between atoms: C_10  and  C_11
REMARK    6  A    between atoms: C_24  and  C_25
REMARK                            x       y       z     vdW  Elec       q    Type
REMARK                         _______ _______ _______ _____ _____    ______ ____
ROOT
ATOM      1  C   UNL     1      -2.720  14.680  20.774  0.00  0.00    +0.000 C 
ATOM      2  C   UNL     1      -1.777  13.554  20.336  0.00  0.00    +0.000 C 
ATOM      3  C   UNL     1      -2.176  12.272  21.075  0.00  0.00    +0.000 C 
ATOM      4  C   UNL     1      -1.282  11.108  20.694  0.00  0.00    +0.000 C 
ATOM      5  C   UNL     1       0.186  11.430  21.017  0.00  0.00    +0.000 C 
ATOM      6  C   UNL     1       1.133  10.238  20.697  0.00  0.00    +0.000 C 
ATOM      7  C   UNL     1       0.641   9.028  21.505  0.00  0.00    +0.000 C 
ATOM      8  C   UNL     1       1.297  10.076  19.165  0.00  0.00    +0.000 C 
ATOM      9  O   UNL     1       1.767  11.298  18.583  0.00  0.00    +0.000 OA
ATOM     10  C   UNL     1       0.933  12.435  18.811  0.00  0.00    +0.000 C 
ATOM     11  O   UNL     1       1.522  13.563  18.154  0.00  0.00    +0.000 OA
ATOM     12  C   UNL     1       2.391  14.257  19.046  0.00  0.00    +0.000 C 
ATOM     13  C   UNL     1       3.590  14.788  18.243  0.00  0.00    +0.000 C 
ATOM     14  C   UNL     1       1.632  15.440  19.686  0.00  0.00    +0.000 C 
ATOM     15  C   UNL     1       0.119  15.186  19.825  0.00  0.00    +0.000 C 
ATOM     16  C   UNL     1      -0.286  13.902  20.587  0.00  0.00    +0.000 C 
ATOM     17  C   UNL     1       0.675  12.708  20.319  0.00  0.00    +0.000 C 
ATOM     18  O   UNL     1       1.892  13.081  21.016  0.00  0.00    +0.000 OA
ATOM     19  O   UNL     1       2.935  13.385  20.037  0.00  0.00    +0.000 OA
ENDROOT
BRANCH   8  20
ATOM     20  O   UNL     1       2.264   9.081  18.820  0.00  0.00    +0.000 OA
BRANCH  20  21
ATOM     21  C   UNL     1       1.768   8.060  17.990  0.00  0.00    +0.000 C 
BRANCH  21  22
ATOM     22  C   UNL     1       2.434   6.725  18.227  0.00  0.00    +0.000 C 
ATOM     23  C   UNL     1       3.839   6.672  17.567  0.00  0.00    +0.000 C 
ATOM     24  C   UNL     1       4.468   5.294  17.819  0.00  0.00    +0.000 C 
ATOM     25  C   UNL     1       4.618   5.079  19.332  0.00  0.00    +0.000 C 
ATOM     26  C   UNL     1       3.244   5.152  20.020  0.00  0.00    +0.000 C 
ATOM     27  C   UNL     1       2.315   4.075  19.428  0.00  0.00    +0.000 C 
ATOM     28  C   UNL     1       2.160   4.269  17.911  0.00  0.00    +0.000 C 
ATOM     29  C   UNL     1       3.538   4.222  17.231  0.00  0.00    +0.000 C 
ATOM     30  C   UNL     1       1.535   5.635  17.643  0.00  0.00    +0.000 C 
ATOM     31  C   UNL     1       2.624   6.528  19.752  0.00  0.00    +0.000 C 
ENDBRANCH  21  22
ENDBRANCH  20  21
ENDBRANCH   8  20
TORSDOF 3
ENDMDL
MODEL 7
REMARK VINA RESULT:      -7.6      8.414     11.099
REMARK  Name = 
REMARK  6 active torsions:
REMARK  status: ('A' for Active; 'I' for Inactive)
REMARK    1  A    between atoms: C_1  and  C_2
REMARK    2  A    between atoms: C_6  and  C_7
REMARK    3  A    between atoms: C_8  and  O_9
REMARK    4  A    between atoms: O_9  and  C_10
REMARK    5  A    between atoms: C_10  and  C_11
REMARK    6  A    between atoms: C_24  and  C_25
REMARK                            x       y       z     vdW  Elec       q    Type
REMARK                         _______ _______ _______ _____ _____    ______ ____
ROOT
ATOM      1  C   UNL     1      12.332  15.716  16.932  0.00  0.00    +0.000 C 
ATOM      2  C   UNL     1      11.303  15.442  18.033  0.00  0.00    +0.000 C 
ATOM      3  C   UNL     1      11.468  16.502  19.127  0.00  0.00    +0.000 C 
ATOM      4  C   UNL     1      10.481  16.293  20.259  0.00  0.00    +0.000 C 
ATOM      5  C   UNL     1      10.668  14.902  20.885  0.00  0.00    +0.000 C 
ATOM      6  C   UNL     1       9.713  14.667  22.091  0.00  0.00    +0.000 C 
ATOM      7  C   UNL     1       9.987  15.778  23.118  0.00  0.00    +0.000 C 
ATOM      8  C   UNL     1       8.258  14.471  21.598  0.00  0.00    +0.000 C 
ATOM      9  O   UNL     1       8.195  13.394  20.654  0.00  0.00    +0.000 OA
ATOM     10  C   UNL     1       9.025  13.551  19.503  0.00  0.00    +0.000 C 
ATOM     11  O   UNL     1       8.835  12.414  18.653  0.00  0.00    +0.000 OA
ATOM     12  C   UNL     1       9.784  11.398  18.966  0.00  0.00    +0.000 C 
ATOM     13  C   UNL     1       9.106  10.028  18.795  0.00  0.00    +0.000 C 
ATOM     14  C   UNL     1      10.987  11.504  18.005  0.00  0.00    +0.000 C 
ATOM     15  C   UNL     1      11.246  12.942  17.515  0.00  0.00    +0.000 C 
ATOM     16  C   UNL     1      11.433  14.010  18.619  0.00  0.00    +0.000 C 
ATOM     17  C   UNL     1      10.521  13.770  19.857  0.00  0.00    +0.000 C 
ATOM     18  O   UNL     1      11.102  12.601  20.491  0.00  0.00    +0.000 OA
ATOM     19  O   UNL     1      10.196  11.465  20.332  0.00  0.00    +0.000 OA
ENDROOT
BRANCH   8  20
ATOM     20  O   UNL     1       7.364  14.117  22.655  0.00  0.00    +0.000 OA
BRANCH  20  21
ATOM     21  C   UNL     1       7.726  12.945  23.345  0.00  0.00    +0.000 C 
BRANCH  21  22
ATOM     22  C   UNL     1       7.227  12.918  24.771  0.00  0.00    +0.000 C 
ATOM     23  C   UNL     1       8.313  13.428  25.757  0.00  0.00    +0.000 C 
ATOM     24  C   UNL     1       7.768  13.365  27.192  0.00  0.00    +0.000 C 
ATOM     25  C   UNL     1       6.531  14.268  27.300  0.00  0.00    +0.000 C 
ATOM     26  C   UNL     1       5.444  13.805  26.314  0.00  0.00    +0.000 C 
ATOM     27  C   UNL     1       5.055  12.347  26.626  0.00  0.00    +0.000 C 
ATOM     28  C   UNL     1       6.284  11.428  26.532  0.00  0.00    +0.000 C 
ATOM     29  C   UNL     1       7.378  11.911  27.499  0.00  0.00    +0.000 C 
ATOM     30  C   UNL     1       6.838  11.479  25.111  0.00  0.00    +0.000 C 
ATOM     31  C   UNL     1       6.005  13.863  24.890  0.00  0.00    +0.000 C 
ENDBRANCH  21  22
ENDBRANCH  20  21
ENDBRANCH   8  20
TORSDOF 3
ENDMDL
MODEL 8
REMARK VINA RESULT:      -7.6      1.635      3.632
REMARK  Name = 
REMARK  6 active torsions:
REMARK  status: ('A' for Active; 'I' for Inactive)
REMARK    1  A    between atoms: C_1  and  C_2
REMARK    2  A    between atoms: C_6  and  C_7
REMARK    3  A    between atoms: C_8  and  O_9
REMARK    4  A    between atoms: O_9  and  C_10
REMARK    5  A    between atoms: C_10  and  C_11
REMARK    6  A    between atoms: C_24  and  C_25
REMARK                            x       y       z     vdW  Elec       q    Type
REMARK                         _______ _______ _______ _____ _____    ______ ____
ROOT
ATOM      1  C   UNL     1      -2.858  14.781  20.776  0.00  0.00    +0.000 C 
ATOM      2  C   UNL     1      -1.982  13.542  20.568  0.00  0.00    +0.000 C 
ATOM      3  C   UNL     1      -2.423  12.461  21.562  0.00  0.00    +0.000 C 
ATOM      4  C   UNL     1      -1.595  11.199  21.418  0.00  0.00    +0.000 C 
ATOM      5  C   UNL     1      -0.106  11.505  21.645  0.00  0.00    +0.000 C 
ATOM      6  C   UNL     1       0.776  10.225  21.565  0.00  0.00    +0.000 C 
ATOM      7  C   UNL     1       0.246   9.235  22.614  0.00  0.00    +0.000 C 
ATOM      8  C   UNL     1       0.893   9.741  20.098  0.00  0.00    +0.000 C 
ATOM      9  O   UNL     1       1.406  10.791  19.269  0.00  0.00    +0.000 OA
ATOM     10  C   UNL     1       0.633  11.992  19.268  0.00  0.00    +0.000 C 
ATOM     11  O   UNL     1       1.258  12.929  18.383  0.00  0.00    +0.000 OA
ATOM     12  C   UNL     1       2.181  13.746  19.098  0.00  0.00    +0.000 C 
ATOM     13  C   UNL     1       3.384  14.037  18.186  0.00  0.00    +0.000 C 
ATOM     14  C   UNL     1       1.497  15.073  19.490  0.00  0.00    +0.000 C 
ATOM     15  C   UNL     1      -0.024  14.931  19.701  0.00  0.00    +0.000 C 
ATOM     16  C   UNL     1      -0.470  13.856  20.719  0.00  0.00    +0.000 C 
ATOM     17  C   UNL     1       0.426  12.583  20.690  0.00  0.00    +0.000 C 
ATOM     18  O   UNL     1       1.677  13.029  21.276  0.00  0.00    +0.000 OA
ATOM     19  O   UNL     1       2.708  13.069  20.241  0.00  0.00    +0.000 OA
ENDROOT
BRANCH   8  20
ATOM     20  O   UNL     1       1.802   8.648  19.952  0.00  0.00    +0.000 OA
BRANCH  20  21
ATOM     21  C   UNL     1       1.823   8.085  18.663  0.00  0.00    +0.000 C 
BRANCH  21  22
ATOM     22  C   UNL     1       2.468   6.720  18.622  0.00  0.00    +0.000 C 
ATOM     23  C   UNL     1       2.638   6.134  20.050  0.00  0.00    +0.000 C 
ATOM     24  C   UNL     1       3.312   4.757  19.959  0.00  0.00    +0.000 C 
ATOM     25  C   UNL     1       2.421   3.815  19.134  0.00  0.00    +0.000 C 
ATOM     26  C   UNL     1       2.211   4.382  17.720  0.00  0.00    +0.000 C 
ATOM     27  C   UNL     1       3.576   4.550  17.026  0.00  0.00    +0.000 C 
ATOM     28  C   UNL     1       4.486   5.484  17.842  0.00  0.00    +0.000 C 
ATOM     29  C   UNL     1       4.670   4.927  19.263  0.00  0.00    +0.000 C 
ATOM     30  C   UNL     1       3.830   6.858  17.942  0.00  0.00    +0.000 C 
ATOM     31  C   UNL     1       1.548   5.759  17.827  0.00  0.00    +0.000 C 
ENDBRANCH  21  22
ENDBRANCH  20  21
ENDBRANCH   8  20
TORSDOF 3
ENDMDL
MODEL 9
REMARK VINA RESULT:      -7.4      2.677      4.198
REMARK  Name = 
REMARK  6 active torsions:
REMARK  status: ('A' for Active; 'I' for Inactive)
REMARK    1  A    between atoms: C_1  and  C_2
REMARK    2  A    between atoms: C_6  and  C_7
REMARK    3  A    between atoms: C_8  and  O_9
REMARK    4  A    between atoms: O_9  and  C_10
REMARK    5  A    between atoms: C_10  and  C_11
REMARK    6  A    between atoms: C_24  and  C_25
REMARK                            x       y       z     vdW  Elec       q    Type
REMARK                         _______ _______ _______ _____ _____    ______ ____
ROOT
ATOM      1  C   UNL     1      -3.847  12.993  21.350  0.00  0.00    +0.000 C 
ATOM      2  C   UNL     1      -2.796  12.147  20.625  0.00  0.00    +0.000 C 
ATOM      3  C   UNL     1      -1.409  12.557  21.130  0.00  0.00    +0.000 C 
ATOM      4  C   UNL     1      -0.311  11.762  20.451  0.00  0.00    +0.000 C 
ATOM      5  C   UNL     1      -0.364  11.962  18.929  0.00  0.00    +0.000 C 
ATOM      6  C   UNL     1       0.784  11.209  18.196  0.00  0.00    +0.000 C 
ATOM      7  C   UNL     1       2.113  11.719  18.777  0.00  0.00    +0.000 C 
ATOM      8  C   UNL     1       0.520   9.683  18.206  0.00  0.00    +0.000 C 
ATOM      9  O   UNL     1      -0.757   9.397  17.624  0.00  0.00    +0.000 OA
ATOM     10  C   UNL     1      -1.867  10.031  18.261  0.00  0.00    +0.000 C 
ATOM     11  O   UNL     1      -3.064   9.632  17.584  0.00  0.00    +0.000 OA
ATOM     12  C   UNL     1      -3.375  10.555  16.543  0.00  0.00    +0.000 C 
ATOM     13  C   UNL     1      -3.977   9.774  15.363  0.00  0.00    +0.000 C 
ATOM     14  C   UNL     1      -4.402  11.585  17.059  0.00  0.00    +0.000 C 
ATOM     15  C   UNL     1      -4.287  11.849  18.573  0.00  0.00    +0.000 C 
ATOM     16  C   UNL     1      -2.892  12.283  19.082  0.00  0.00    +0.000 C 
ATOM     17  C   UNL     1      -1.725  11.577  18.331  0.00  0.00    +0.000 C 
ATOM     18  O   UNL     1      -1.748  12.181  17.012  0.00  0.00    +0.000 OA
ATOM     19  O   UNL     1      -2.201  11.192  16.036  0.00  0.00    +0.000 OA
ENDROOT
BRANCH   8  20
ATOM     20  O   UNL     1       1.475   8.957  17.428  0.00  0.00    +0.000 OA
BRANCH  20  21
ATOM     21  C   UNL     1       2.633   8.588  18.138  0.00  0.00    +0.000 C 
BRANCH  21  22
ATOM     22  C   UNL     1       2.752   7.097  18.346  0.00  0.00    +0.000 C 
ATOM     23  C   UNL     1       1.640   6.330  17.579  0.00  0.00    +0.000 C 
ATOM     24  C   UNL     1       1.790   4.824  17.835  0.00  0.00    +0.000 C 
ATOM     25  C   UNL     1       3.162   4.361  17.322  0.00  0.00    +0.000 C 
ATOM     26  C   UNL     1       4.287   5.122  18.045  0.00  0.00    +0.000 C 
ATOM     27  C   UNL     1       4.185   4.872  19.561  0.00  0.00    +0.000 C 
ATOM     28  C   UNL     1       2.813   5.320  20.093  0.00  0.00    +0.000 C 
ATOM     29  C   UNL     1       1.692   4.577  19.348  0.00  0.00    +0.000 C 
ATOM     30  C   UNL     1       2.647   6.817  19.845  0.00  0.00    +0.000 C 
ATOM     31  C   UNL     1       4.118   6.623  17.789  0.00  0.00    +0.000 C 
ENDBRANCH  21  22
ENDBRANCH  20  21
ENDBRANCH   8  20
TORSDOF 3
ENDMDL
