MODEL 1
REMARK VINA RESULT:      -7.7      0.000      0.000
REMARK  Name = 
REMARK  9 active torsions:
REMARK  status: ('A' for Active; 'I' for Inactive)
REMARK    1  A    between atoms: C_1  and  C_2
REMARK    2  A    between atoms: C_2  and  O_3
REMARK    3  A    between atoms: O_3  and  C_4
REMARK    4  A    between atoms: C_7  and  C_8
REMARK    5  A    between atoms: N_10  and  C_11
REMARK    6  A    between atoms: C_15  and  N_16
REMARK    7  A    between atoms: C_23  and  O_24
REMARK    8  A    between atoms: O_24  and  C_25
REMARK    9  A    between atoms: C_25  and  C_26
REMARK                            x       y       z     vdW  Elec       q    Type
REMARK                         _______ _______ _______ _____ _____    ______ ____
ROOT
ATOM      1  C   UNL     1       1.991   7.488  19.777  0.00  0.00    +0.000 C 
ATOM      2  O   UNL     1       2.135   7.621  18.565  0.00  0.00    +0.000 OA
ATOM      3  N   UNL     1       2.300   6.353  20.515  0.00  0.00    +0.000 N 
ATOM      4  H   UNL     1       1.931   6.282  21.452  0.00  0.00    +0.000 HD
ENDROOT
BRANCH   1   8
ATOM      5  C   UNL     1       0.096  10.649  21.981  0.00  0.00    +0.000 A 
ATOM      6  C   UNL     1       0.430   9.428  22.579  0.00  0.00    +0.000 A 
ATOM      7  C   UNL     1       1.062   8.431  21.845  0.00  0.00    +0.000 A 
ATOM      8  C   UNL     1       1.357   8.624  20.493  0.00  0.00    +0.000 A 
ATOM      9  C   UNL     1       0.955   9.804  19.864  0.00  0.00    +0.000 A 
ATOM     10  C   UNL     1       0.291  10.808  20.594  0.00  0.00    +0.000 A 
BRANCH   5  11
ATOM     11  O   UNL     1      -0.400  11.697  22.712  0.00  0.00    +0.000 OA
BRANCH  11  13
ATOM     12  C   UNL     1      -2.656  12.447  22.399  0.00  0.00    +0.000 C 
ATOM     13  C   UNL     1      -1.738  11.541  23.197  0.00  0.00    +0.000 C 
ENDBRANCH  11  13
ENDBRANCH   5  11
BRANCH  10  14
ATOM     14  O   UNL     1      -0.079  11.882  19.821  0.00  0.00    +0.000 OA
BRANCH  14  15
ATOM     15  C   UNL     1      -0.711  11.597  18.571  0.00  0.00    +0.000 C 
ATOM     16  C   UNL     1      -2.212  11.494  18.796  0.00  0.00    +0.000 C 
ENDBRANCH  14  15
ENDBRANCH  10  14
ENDBRANCH   1   8
BRANCH   3  17
ATOM     17  C   UNL     1       2.944   5.204  19.981  0.00  0.00    +0.000 A 
ATOM     18  C   UNL     1       2.477   3.908  20.222  0.00  0.00    +0.000 A 
ATOM     19  C   UNL     1       3.128   2.792  19.700  0.00  0.00    +0.000 A 
ATOM     20  C   UNL     1       4.268   2.953  18.924  0.00  0.00    +0.000 A 
ATOM     21  C   UNL     1       4.759   4.241  18.666  0.00  0.00    +0.000 A 
ATOM     22  C   UNL     1       4.084   5.369  19.180  0.00  0.00    +0.000 A 
BRANCH  21  23
ATOM     23  N   UNL     1       5.948   4.399  17.913  0.00  0.00    +0.000 N 
ATOM     24  C   UNL     1       6.102   4.523  16.551  0.00  0.00    +0.000 A 
ATOM     25  N   UNL     1       7.380   4.610  16.263  0.00  0.00    +0.000 NA
ATOM     26  N   UNL     1       8.038   4.542  17.465  0.00  0.00    +0.000 NA
ATOM     27  N   UNL     1       7.184   4.423  18.471  0.00  0.00    +0.000 NA
ENDBRANCH  21  23
ENDBRANCH   3  17
TORSDOF 7
ENDMDL
MODEL 2
REMARK VINA RESULT:      -7.7      3.939      9.008
REMARK  Name = 
REMARK  9 active torsions:
REMARK  status: ('A' for Active; 'I' for Inactive)
REMARK    1  A    between atoms: C_1  and  C_2
REMARK    2  A    between atoms: C_2  and  O_3
REMARK    3  A    between atoms: O_3  and  C_4
REMARK    4  A    between atoms: C_7  and  C_8
REMARK    5  A    between atoms: N_10  and  C_11
REMARK    6  A    between atoms: C_15  and  N_16
REMARK    7  A    between atoms: C_23  and  O_24
REMARK    8  A    between atoms: O_24  and  C_25
REMARK    9  A    between atoms: C_25  and  C_26
REMARK                            x       y       z     vdW  Elec       q    Type
REMARK                         _______ _______ _______ _____ _____    ______ ____
ROOT
ATOM      1  C   UNL     1       2.189   8.414  18.200  0.00  0.00    +0.000 C 
ATOM      2  O   UNL     1       2.391   8.945  17.112  0.00  0.00    +0.000 OA
ATOM      3  N   UNL     1       1.386   8.917  19.216  0.00  0.00    +0.000 N 
ATOM      4  H   UNL     1       1.477   8.511  20.137  0.00  0.00    +0.000 HD
ENDROOT
BRANCH   1   8
ATOM      5  C   UNL     1       4.291   4.795  19.162  0.00  0.00    +0.000 A 
ATOM      6  C   UNL     1       3.227   5.262  19.944  0.00  0.00    +0.000 A 
ATOM      7  C   UNL     1       2.552   6.426  19.595  0.00  0.00    +0.000 A 
ATOM      8  C   UNL     1       2.936   7.159  18.469  0.00  0.00    +0.000 A 
ATOM      9  C   UNL     1       4.047   6.750  17.729  0.00  0.00    +0.000 A 
ATOM     10  C   UNL     1       4.752   5.587  18.092  0.00  0.00    +0.000 A 
BRANCH   5  11
ATOM     11  O   UNL     1       4.882   3.582  19.403  0.00  0.00    +0.000 OA
BRANCH  11  13
ATOM     12  C   UNL     1       3.545   2.027  18.160  0.00  0.00    +0.000 C 
ATOM     13  C   UNL     1       3.990   2.470  19.539  0.00  0.00    +0.000 C 
ENDBRANCH  11  13
ENDBRANCH   5  11
BRANCH  10  14
ATOM     14  O   UNL     1       5.845   5.348  17.293  0.00  0.00    +0.000 OA
BRANCH  14  15
ATOM     15  C   UNL     1       6.794   6.409  17.155  0.00  0.00    +0.000 C 
ATOM     16  C   UNL     1       7.668   6.447  18.399  0.00  0.00    +0.000 C 
ENDBRANCH  14  15
ENDBRANCH  10  14
ENDBRANCH   1   8
BRANCH   3  17
ATOM     17  C   UNL     1       0.581  10.081  19.096  0.00  0.00    +0.000 A 
ATOM     18  C   UNL     1       0.858  11.256  19.802  0.00  0.00    +0.000 A 
ATOM     19  C   UNL     1       0.051  12.385  19.680  0.00  0.00    +0.000 A 
ATOM     20  C   UNL     1      -1.059  12.358  18.845  0.00  0.00    +0.000 A 
ATOM     21  C   UNL     1      -1.362  11.194  18.125  0.00  0.00    +0.000 A 
ATOM     22  C   UNL     1      -0.528  10.060  18.236  0.00  0.00    +0.000 A 
BRANCH  21  23
ATOM     23  N   UNL     1      -2.520  11.155  17.311  0.00  0.00    +0.000 N 
ATOM     24  C   UNL     1      -2.641  10.783  15.992  0.00  0.00    +0.000 A 
ATOM     25  N   UNL     1      -3.888  10.931  15.610  0.00  0.00    +0.000 NA
ATOM     26  N   UNL     1      -4.561  11.401  16.709  0.00  0.00    +0.000 NA
ATOM     27  N   UNL     1      -3.748  11.534  17.746  0.00  0.00    +0.000 NA
ENDBRANCH  21  23
ENDBRANCH   3  17
TORSDOF 7
ENDMDL
MODEL 3
REMARK VINA RESULT:      -7.7      1.293      1.463
REMARK  Name = 
REMARK  9 active torsions:
REMARK  status: ('A' for Active; 'I' for Inactive)
REMARK    1  A    between atoms: C_1  and  C_2
REMARK    2  A    between atoms: C_2  and  O_3
REMARK    3  A    between atoms: O_3  and  C_4
REMARK    4  A    between atoms: C_7  and  C_8
REMARK    5  A    between atoms: N_10  and  C_11
REMARK    6  A    between atoms: C_15  and  N_16
REMARK    7  A    between atoms: C_23  and  O_24
REMARK    8  A    between atoms: O_24  and  C_25
REMARK    9  A    between atoms: C_25  and  C_26
REMARK                            x       y       z     vdW  Elec       q    Type
REMARK                         _______ _______ _______ _____ _____    ______ ____
ROOT
ATOM      1  C   UNL     1       1.828   7.901  18.973  0.00  0.00    +0.000 C 
ATOM      2  O   UNL     1       2.023   8.301  17.829  0.00  0.00    +0.000 OA
ATOM      3  N   UNL     1       2.020   6.602  19.426  0.00  0.00    +0.000 N 
ATOM      4  H   UNL     1       1.615   6.346  20.316  0.00  0.00    +0.000 HD
ENDROOT
BRANCH   1   8
ATOM      5  C   UNL     1       0.112  10.611  21.827  0.00  0.00    +0.000 A 
ATOM      6  C   UNL     1       0.249   9.244  22.096  0.00  0.00    +0.000 A 
ATOM      7  C   UNL     1       0.828   8.395  21.160  0.00  0.00    +0.000 A 
ATOM      8  C   UNL     1       1.266   8.888  19.928  0.00  0.00    +0.000 A 
ATOM      9  C   UNL     1       1.060  10.233  19.615  0.00  0.00    +0.000 A 
ATOM     10  C   UNL     1       0.450  11.094  20.547  0.00  0.00    +0.000 A 
BRANCH   5  11
ATOM     11  O   UNL     1      -0.326  11.492  22.782  0.00  0.00    +0.000 OA
BRANCH  11  13
ATOM     12  C   UNL     1      -2.550  12.385  22.693  0.00  0.00    +0.000 C 
ATOM     13  C   UNL     1      -1.663  11.289  23.251  0.00  0.00    +0.000 C 
ENDBRANCH  11  13
ENDBRANCH   5  11
BRANCH  10  14
ATOM     14  O   UNL     1       0.277  12.371  20.069  0.00  0.00    +0.000 OA
BRANCH  14  15
ATOM     15  C   UNL     1       1.422  13.227  20.070  0.00  0.00    +0.000 C 
ATOM     16  C   UNL     1       1.679  13.699  18.646  0.00  0.00    +0.000 C 
ENDBRANCH  14  15
ENDBRANCH  10  14
ENDBRANCH   1   8
BRANCH   3  17
ATOM     17  C   UNL     1       2.586   5.558  18.646  0.00  0.00    +0.000 A 
ATOM     18  C   UNL     1       1.815   4.513  18.126  0.00  0.00    +0.000 A 
ATOM     19  C   UNL     1       2.389   3.493  17.372  0.00  0.00    +0.000 A 
ATOM     20  C   UNL     1       3.756   3.496  17.124  0.00  0.00    +0.000 A 
ATOM     21  C   UNL     1       4.554   4.530  17.633  0.00  0.00    +0.000 A 
ATOM     22  C   UNL     1       3.963   5.574  18.378  0.00  0.00    +0.000 A 
BRANCH  21  23
ATOM     23  N   UNL     1       5.953   4.506  17.417  0.00  0.00    +0.000 N 
ATOM     24  C   UNL     1       6.649   4.556  16.231  0.00  0.00    +0.000 A 
ATOM     25  N   UNL     1       7.935   4.468  16.477  0.00  0.00    +0.000 NA
ATOM     26  N   UNL     1       8.048   4.365  17.840  0.00  0.00    +0.000 NA
ATOM     27  N   UNL     1       6.858   4.396  18.421  0.00  0.00    +0.000 NA
ENDBRANCH  21  23
ENDBRANCH   3  17
TORSDOF 7
ENDMDL
MODEL 4
REMARK VINA RESULT:      -7.6      3.835      9.030
REMARK  Name = 
REMARK  9 active torsions:
REMARK  status: ('A' for Active; 'I' for Inactive)
REMARK    1  A    between atoms: C_1  and  C_2
REMARK    2  A    between atoms: C_2  and  O_3
REMARK    3  A    between atoms: O_3  and  C_4
REMARK    4  A    between atoms: C_7  and  C_8
REMARK    5  A    between atoms: N_10  and  C_11
REMARK    6  A    between atoms: C_15  and  N_16
REMARK    7  A    between atoms: C_23  and  O_24
REMARK    8  A    between atoms: O_24  and  C_25
REMARK    9  A    between atoms: C_25  and  C_26
REMARK                            x       y       z     vdW  Elec       q    Type
REMARK                         _______ _______ _______ _____ _____    ______ ____
ROOT
ATOM      1  C   UNL     1       2.214   8.375  18.191  0.00  0.00    +0.000 C 
ATOM      2  O   UNL     1       2.445   8.920  17.116  0.00  0.00    +0.000 OA
ATOM      3  N   UNL     1       1.396   8.872  19.198  0.00  0.00    +0.000 N 
ATOM      4  H   UNL     1       1.464   8.451  20.114  0.00  0.00    +0.000 HD
ENDROOT
BRANCH   1   8
ATOM      5  C   UNL     1       4.265   4.725  19.144  0.00  0.00    +0.000 A 
ATOM      6  C   UNL     1       3.253   5.239  19.963  0.00  0.00    +0.000 A 
ATOM      7  C   UNL     1       2.592   6.412  19.617  0.00  0.00    +0.000 A 
ATOM      8  C   UNL     1       2.940   7.107  18.456  0.00  0.00    +0.000 A 
ATOM      9  C   UNL     1       4.003   6.650  17.675  0.00  0.00    +0.000 A 
ATOM     10  C   UNL     1       4.695   5.477  18.032  0.00  0.00    +0.000 A 
BRANCH   5  11
ATOM     11  O   UNL     1       4.836   3.502  19.386  0.00  0.00    +0.000 OA
BRANCH  11  13
ATOM     12  C   UNL     1       3.511   1.840  18.276  0.00  0.00    +0.000 C 
ATOM     13  C   UNL     1       3.923   2.422  19.614  0.00  0.00    +0.000 C 
ENDBRANCH  11  13
ENDBRANCH   5  11
BRANCH  10  14
ATOM     14  O   UNL     1       5.741   5.190  17.189  0.00  0.00    +0.000 OA
BRANCH  14  15
ATOM     15  C   UNL     1       5.502   4.228  16.159  0.00  0.00    +0.000 C 
ATOM     16  C   UNL     1       5.667   4.908  14.809  0.00  0.00    +0.000 C 
ENDBRANCH  14  15
ENDBRANCH  10  14
ENDBRANCH   1   8
BRANCH   3  17
ATOM     17  C   UNL     1       0.607  10.048  19.080  0.00  0.00    +0.000 A 
ATOM     18  C   UNL     1       0.905  11.220  19.783  0.00  0.00    +0.000 A 
ATOM     19  C   UNL     1       0.113  12.360  19.662  0.00  0.00    +0.000 A 
ATOM     20  C   UNL     1      -1.000  12.348  18.833  0.00  0.00    +0.000 A 
ATOM     21  C   UNL     1      -1.323  11.187  18.116  0.00  0.00    +0.000 A 
ATOM     22  C   UNL     1      -0.506  10.041  18.225  0.00  0.00    +0.000 A 
BRANCH  21  23
ATOM     23  N   UNL     1      -2.486  11.164  17.307  0.00  0.00    +0.000 N 
ATOM     24  C   UNL     1      -3.783  11.475  17.644  0.00  0.00    +0.000 A 
ATOM     25  N   UNL     1      -4.561  11.282  16.604  0.00  0.00    +0.000 NA
ATOM     26  N   UNL     1      -3.737  10.846  15.598  0.00  0.00    +0.000 NA
ATOM     27  N   UNL     1      -2.479  10.778  16.007  0.00  0.00    +0.000 NA
ENDBRANCH  21  23
ENDBRANCH   3  17
TORSDOF 7
ENDMDL
MODEL 5
REMARK VINA RESULT:      -7.5      4.038      9.306
REMARK  Name = 
REMARK  9 active torsions:
REMARK  status: ('A' for Active; 'I' for Inactive)
REMARK    1  A    between atoms: C_1  and  C_2
REMARK    2  A    between atoms: C_2  and  O_3
REMARK    3  A    between atoms: O_3  and  C_4
REMARK    4  A    between atoms: C_7  and  C_8
REMARK    5  A    between atoms: N_10  and  C_11
REMARK    6  A    between atoms: C_15  and  N_16
REMARK    7  A    between atoms: C_23  and  O_24
REMARK    8  A    between atoms: O_24  and  C_25
REMARK    9  A    between atoms: C_25  and  C_26
REMARK                            x       y       z     vdW  Elec       q    Type
REMARK                         _______ _______ _______ _____ _____    ______ ____
ROOT
ATOM      1  C   UNL     1       2.482   7.273  18.549  0.00  0.00    +0.000 C 
ATOM      2  O   UNL     1       2.039   6.805  19.593  0.00  0.00    +0.000 OA
ATOM      3  N   UNL     1       2.030   8.422  17.913  0.00  0.00    +0.000 N 
ATOM      4  H   UNL     1       2.315   8.578  16.957  0.00  0.00    +0.000 HD
ENDROOT
BRANCH   1   8
ATOM      5  C   UNL     1       5.485   4.839  16.679  0.00  0.00    +0.000 A 
ATOM      6  C   UNL     1       4.263   4.307  17.104  0.00  0.00    +0.000 A 
ATOM      7  C   UNL     1       3.301   5.124  17.687  0.00  0.00    +0.000 A 
ATOM      8  C   UNL     1       3.547   6.487  17.876  0.00  0.00    +0.000 A 
ATOM      9  C   UNL     1       4.793   7.014  17.531  0.00  0.00    +0.000 A 
ATOM     10  C   UNL     1       5.782   6.187  16.965  0.00  0.00    +0.000 A 
BRANCH   5  11
ATOM     11  O   UNL     1       6.392   4.088  15.977  0.00  0.00    +0.000 OA
BRANCH  11  13
ATOM     12  C   UNL     1       7.005   4.777  13.764  0.00  0.00    +0.000 C 
ATOM     13  C   UNL     1       6.097   3.888  14.591  0.00  0.00    +0.000 C 
ENDBRANCH  11  13
ENDBRANCH   5  11
BRANCH  10  14
ATOM     14  O   UNL     1       6.964   6.846  16.728  0.00  0.00    +0.000 OA
BRANCH  14  15
ATOM     15  C   UNL     1       7.749   7.205  17.868  0.00  0.00    +0.000 C 
ATOM     16  C   UNL     1       8.039   8.697  17.809  0.00  0.00    +0.000 C 
ENDBRANCH  14  15
ENDBRANCH  10  14
ENDBRANCH   1   8
BRANCH   3  17
ATOM     17  C   UNL     1       1.048   9.298  18.450  0.00  0.00    +0.000 A 
ATOM     18  C   UNL     1       1.153   9.838  19.736  0.00  0.00    +0.000 A 
ATOM     19  C   UNL     1       0.175  10.686  20.249  0.00  0.00    +0.000 A 
ATOM     20  C   UNL     1      -0.935  11.012  19.482  0.00  0.00    +0.000 A 
ATOM     21  C   UNL     1      -1.067  10.486  18.189  0.00  0.00    +0.000 A 
ATOM     22  C   UNL     1      -0.063   9.643  17.665  0.00  0.00    +0.000 A 
BRANCH  21  23
ATOM     23  N   UNL     1      -2.223  10.783  17.427  0.00  0.00    +0.000 N 
ATOM     24  C   UNL     1      -3.368  11.444  17.809  0.00  0.00    +0.000 A 
ATOM     25  N   UNL     1      -4.212  11.470  16.804  0.00  0.00    +0.000 NA
ATOM     26  N   UNL     1      -3.584  10.817  15.774  0.00  0.00    +0.000 NA
ATOM     27  N   UNL     1      -2.379  10.404  16.134  0.00  0.00    +0.000 NA
ENDBRANCH  21  23
ENDBRANCH   3  17
TORSDOF 7
ENDMDL
MODEL 6
REMARK VINA RESULT:      -7.5      1.255      1.263
REMARK  Name = 
REMARK  9 active torsions:
REMARK  status: ('A' for Active; 'I' for Inactive)
REMARK    1  A    between atoms: C_1  and  C_2
REMARK    2  A    between atoms: C_2  and  O_3
REMARK    3  A    between atoms: O_3  and  C_4
REMARK    4  A    between atoms: C_7  and  C_8
REMARK    5  A    between atoms: N_10  and  C_11
REMARK    6  A    between atoms: C_15  and  N_16
REMARK    7  A    between atoms: C_23  and  O_24
REMARK    8  A    between atoms: O_24  and  C_25
REMARK    9  A    between atoms: C_25  and  C_26
REMARK                            x       y       z     vdW  Elec       q    Type
REMARK                         _______ _______ _______ _____ _____    ______ ____
ROOT
ATOM      1  C   UNL     1       1.618   7.183  20.340  0.00  0.00    +0.000 C 
ATOM      2  O   UNL     1       1.649   6.259  21.147  0.00  0.00    +0.000 OA
ATOM      3  N   UNL     1       2.111   7.149  19.042  0.00  0.00    +0.000 N 
ATOM      4  H   UNL     1       2.233   8.027  18.558  0.00  0.00    +0.000 HD
ENDROOT
BRANCH   1   8
ATOM      5  C   UNL     1      -0.033  10.815  21.927  0.00  0.00    +0.000 A 
ATOM      6  C   UNL     1       0.230   9.706  22.740  0.00  0.00    +0.000 A 
ATOM      7  C   UNL     1       0.785   8.551  22.201  0.00  0.00    +0.000 A 
ATOM      8  C   UNL     1       1.071   8.472  20.836  0.00  0.00    +0.000 A 
ATOM      9  C   UNL     1       0.738   9.540  20.000  0.00  0.00    +0.000 A 
ATOM     10  C   UNL     1       0.151  10.702  20.535  0.00  0.00    +0.000 A 
BRANCH   5  11
ATOM     11  O   UNL     1      -0.448  12.011  22.454  0.00  0.00    +0.000 OA
BRANCH  11  13
ATOM     12  C   UNL     1      -2.354  13.388  22.927  0.00  0.00    +0.000 C 
ATOM     13  C   UNL     1      -1.743  12.007  23.065  0.00  0.00    +0.000 C 
ENDBRANCH  11  13
ENDBRANCH   5  11
BRANCH  10  14
ATOM     14  O   UNL     1      -0.159  11.638  19.577  0.00  0.00    +0.000 OA
BRANCH  14  15
ATOM     15  C   UNL     1      -1.536  11.764  19.212  0.00  0.00    +0.000 C 
ATOM     16  C   UNL     1      -1.758  11.043  17.891  0.00  0.00    +0.000 C 
ENDBRANCH  14  15
ENDBRANCH  10  14
ENDBRANCH   1   8
BRANCH   3  17
ATOM     17  C   UNL     1       2.627   5.984  18.413  0.00  0.00    +0.000 A 
ATOM     18  C   UNL     1       1.805   4.921  18.023  0.00  0.00    +0.000 A 
ATOM     19  C   UNL     1       2.330   3.782  17.418  0.00  0.00    +0.000 A 
ATOM     20  C   UNL     1       3.697   3.681  17.193  0.00  0.00    +0.000 A 
ATOM     21  C   UNL     1       4.545   4.730  17.574  0.00  0.00    +0.000 A 
ATOM     22  C   UNL     1       4.005   5.892  18.167  0.00  0.00    +0.000 A 
BRANCH  21  23
ATOM     23  N   UNL     1       5.943   4.605  17.386  0.00  0.00    +0.000 N 
ATOM     24  C   UNL     1       6.657   4.538  16.211  0.00  0.00    +0.000 A 
ATOM     25  N   UNL     1       7.932   4.385  16.485  0.00  0.00    +0.000 NA
ATOM     26  N   UNL     1       8.018   4.359  17.854  0.00  0.00    +0.000 NA
ATOM     27  N   UNL     1       6.825   4.499  18.411  0.00  0.00    +0.000 NA
ENDBRANCH  21  23
ENDBRANCH   3  17
TORSDOF 7
ENDMDL
MODEL 7
REMARK VINA RESULT:      -7.5      4.002      9.219
REMARK  Name = 
REMARK  9 active torsions:
REMARK  status: ('A' for Active; 'I' for Inactive)
REMARK    1  A    between atoms: C_1  and  C_2
REMARK    2  A    between atoms: C_2  and  O_3
REMARK    3  A    between atoms: O_3  and  C_4
REMARK    4  A    between atoms: C_7  and  C_8
REMARK    5  A    between atoms: N_10  and  C_11
REMARK    6  A    between atoms: C_15  and  N_16
REMARK    7  A    between atoms: C_23  and  O_24
REMARK    8  A    between atoms: O_24  and  C_25
REMARK    9  A    between atoms: C_25  and  C_26
REMARK                            x       y       z     vdW  Elec       q    Type
REMARK                         _______ _______ _______ _____ _____    ______ ____
ROOT
ATOM      1  C   UNL     1       1.762   8.965  18.523  0.00  0.00    +0.000 C 
ATOM      2  O   UNL     1       2.027   9.661  17.547  0.00  0.00    +0.000 OA
ATOM      3  N   UNL     1       0.900   9.305  19.557  0.00  0.00    +0.000 N 
ATOM      4  H   UNL     1       0.937   8.756  20.405  0.00  0.00    +0.000 HD
ENDROOT
BRANCH   1   8
ATOM      5  C   UNL     1       3.909   5.248  18.646  0.00  0.00    +0.000 A 
ATOM      6  C   UNL     1       4.041   6.142  17.578  0.00  0.00    +0.000 A 
ATOM      7  C   UNL     1       3.349   7.348  17.575  0.00  0.00    +0.000 A 
ATOM      8  C   UNL     1       2.496   7.679  18.632  0.00  0.00    +0.000 A 
ATOM      9  C   UNL     1       2.292   6.760  19.663  0.00  0.00    +0.000 A 
ATOM     10  C   UNL     1       2.969   5.526  19.659  0.00  0.00    +0.000 A 
BRANCH   5  11
ATOM     11  O   UNL     1       4.683   4.120  18.741  0.00  0.00    +0.000 OA
BRANCH  11  13
ATOM     12  C   UNL     1       3.568   2.010  18.506  0.00  0.00    +0.000 C 
ATOM     13  C   UNL     1       4.384   3.079  17.805  0.00  0.00    +0.000 C 
ENDBRANCH  11  13
ENDBRANCH   5  11
BRANCH  10  14
ATOM     14  O   UNL     1       2.624   4.718  20.716  0.00  0.00    +0.000 OA
BRANCH  14  15
ATOM     15  C   UNL     1       1.342   4.086  20.661  0.00  0.00    +0.000 C 
ATOM     16  C   UNL     1       1.396   2.803  21.477  0.00  0.00    +0.000 C 
ENDBRANCH  14  15
ENDBRANCH  10  14
ENDBRANCH   1   8
BRANCH   3  17
ATOM     17  C   UNL     1       0.099  10.478  19.577  0.00  0.00    +0.000 A 
ATOM     18  C   UNL     1       0.484  11.632  20.268  0.00  0.00    +0.000 A 
ATOM     19  C   UNL     1      -0.319  12.770  20.285  0.00  0.00    +0.000 A 
ATOM     20  C   UNL     1      -1.532  12.774  19.610  0.00  0.00    +0.000 A 
ATOM     21  C   UNL     1      -1.945  11.632  18.910  0.00  0.00    +0.000 A 
ATOM     22  C   UNL     1      -1.117  10.489  18.877  0.00  0.00    +0.000 A 
BRANCH  21  23
ATOM     23  N   UNL     1      -3.203  11.625  18.261  0.00  0.00    +0.000 N 
ATOM     24  C   UNL     1      -3.506  11.299  16.959  0.00  0.00    +0.000 A 
ATOM     25  N   UNL     1      -4.793  11.463  16.757  0.00  0.00    +0.000 NA
ATOM     26  N   UNL     1      -5.305  11.896  17.953  0.00  0.00    +0.000 NA
ATOM     27  N   UNL     1      -4.358  11.990  18.873  0.00  0.00    +0.000 NA
ENDBRANCH  21  23
ENDBRANCH   3  17
TORSDOF 7
ENDMDL
MODEL 8
REMARK VINA RESULT:      -7.5      1.598      1.816
REMARK  Name = 
REMARK  9 active torsions:
REMARK  status: ('A' for Active; 'I' for Inactive)
REMARK    1  A    between atoms: C_1  and  C_2
REMARK    2  A    between atoms: C_2  and  O_3
REMARK    3  A    between atoms: O_3  and  C_4
REMARK    4  A    between atoms: C_7  and  C_8
REMARK    5  A    between atoms: N_10  and  C_11
REMARK    6  A    between atoms: C_15  and  N_16
REMARK    7  A    between atoms: C_23  and  O_24
REMARK    8  A    between atoms: O_24  and  C_25
REMARK    9  A    between atoms: C_25  and  C_26
REMARK                            x       y       z     vdW  Elec       q    Type
REMARK                         _______ _______ _______ _____ _____    ______ ____
ROOT
ATOM      1  C   UNL     1       1.750   8.139  18.884  0.00  0.00    +0.000 C 
ATOM      2  O   UNL     1       1.824   8.568  17.736  0.00  0.00    +0.000 OA
ATOM      3  N   UNL     1       2.071   6.851  19.294  0.00  0.00    +0.000 N 
ATOM      4  H   UNL     1       1.757   6.553  20.207  0.00  0.00    +0.000 HD
ENDROOT
BRANCH   1   8
ATOM      5  C   UNL     1       0.071  10.674  21.916  0.00  0.00    +0.000 A 
ATOM      6  C   UNL     1       0.316   9.314  22.141  0.00  0.00    +0.000 A 
ATOM      7  C   UNL     1       0.881   8.523  21.148  0.00  0.00    +0.000 A 
ATOM      8  C   UNL     1       1.195   9.068  19.900  0.00  0.00    +0.000 A 
ATOM      9  C   UNL     1       0.879  10.402  19.633  0.00  0.00    +0.000 A 
ATOM     10  C   UNL     1       0.283  11.202  20.626  0.00  0.00    +0.000 A 
BRANCH   5  11
ATOM     11  O   UNL     1      -0.354  11.505  22.920  0.00  0.00    +0.000 OA
BRANCH  11  13
ATOM     12  C   UNL     1      -2.237  12.980  23.078  0.00  0.00    +0.000 C 
ATOM     13  C   UNL     1      -1.767  11.540  23.144  0.00  0.00    +0.000 C 
ENDBRANCH  11  13
ENDBRANCH   5  11
BRANCH  10  14
ATOM     14  O   UNL     1      -0.007  12.473  20.192  0.00  0.00    +0.000 OA
BRANCH  14  15
ATOM     15  C   UNL     1       1.097  13.307  19.834  0.00  0.00    +0.000 C 
ATOM     16  C   UNL     1       1.590  14.026  21.080  0.00  0.00    +0.000 C 
ENDBRANCH  14  15
ENDBRANCH  10  14
ENDBRANCH   1   8
BRANCH   3  17
ATOM     17  C   UNL     1       2.648   5.864  18.451  0.00  0.00    +0.000 A 
ATOM     18  C   UNL     1       2.025   4.636  18.205  0.00  0.00    +0.000 A 
ATOM     19  C   UNL     1       2.610   3.675  17.385  0.00  0.00    +0.000 A 
ATOM     20  C   UNL     1       3.841   3.925  16.792  0.00  0.00    +0.000 A 
ATOM     21  C   UNL     1       4.490   5.147  17.020  0.00  0.00    +0.000 A 
ATOM     22  C   UNL     1       3.881   6.126  17.836  0.00  0.00    +0.000 A 
BRANCH  21  23
ATOM     23  N   UNL     1       5.765   5.379  16.451  0.00  0.00    +0.000 N 
ATOM     24  C   UNL     1       6.450   4.631  15.521  0.00  0.00    +0.000 A 
ATOM     25  N   UNL     1       7.620   5.182  15.295  0.00  0.00    +0.000 NA
ATOM     26  N   UNL     1       7.668   6.296  16.095  0.00  0.00    +0.000 NA
ATOM     27  N   UNL     1       6.551   6.432  16.792  0.00  0.00    +0.000 NA
ENDBRANCH  21  23
ENDBRANCH   3  17
TORSDOF 7
ENDMDL
MODEL 9
REMARK VINA RESULT:      -7.5      1.628      1.929
REMARK  Name = 
REMARK  9 active torsions:
REMARK  status: ('A' for Active; 'I' for Inactive)
REMARK    1  A    between atoms: C_1  and  C_2
REMARK    2  A    between atoms: C_2  and  O_3
REMARK    3  A    between atoms: O_3  and  C_4
REMARK    4  A    between atoms: C_7  and  C_8
REMARK    5  A    between atoms: N_10  and  C_11
REMARK    6  A    between atoms: C_15  and  N_16
REMARK    7  A    between atoms: C_23  and  O_24
REMARK    8  A    between atoms: O_24  and  C_25
REMARK    9  A    between atoms: C_25  and  C_26
REMARK                            x       y       z     vdW  Elec       q    Type
REMARK                         _______ _______ _______ _____ _____    ______ ____
ROOT
ATOM      1  C   UNL     1       1.705   7.362  20.110  0.00  0.00    +0.000 C 
ATOM      2  O   UNL     1       1.732   6.439  20.919  0.00  0.00    +0.000 OA
ATOM      3  N   UNL     1       2.172   7.314  18.803  0.00  0.00    +0.000 N 
ATOM      4  H   UNL     1       2.303   8.188  18.314  0.00  0.00    +0.000 HD
ENDROOT
BRANCH   1   8
ATOM      5  C   UNL     1       0.136  11.028  21.701  0.00  0.00    +0.000 A 
ATOM      6  C   UNL     1       0.206   9.860  22.469  0.00  0.00    +0.000 A 
ATOM      7  C   UNL     1       0.739   8.693  21.933  0.00  0.00    +0.000 A 
ATOM      8  C   UNL     1       1.196   8.663  20.613  0.00  0.00    +0.000 A 
ATOM      9  C   UNL     1       1.056   9.797  19.811  0.00  0.00    +0.000 A 
ATOM     10  C   UNL     1       0.492  10.974  20.339  0.00  0.00    +0.000 A 
BRANCH   5  11
ATOM     11  O   UNL     1      -0.255  12.225  22.245  0.00  0.00    +0.000 OA
BRANCH  11  13
ATOM     12  C   UNL     1      -2.641  12.453  22.211  0.00  0.00    +0.000 C 
ATOM     13  C   UNL     1      -1.423  12.182  23.071  0.00  0.00    +0.000 C 
ENDBRANCH  11  13
ENDBRANCH   5  11
BRANCH  10  14
ATOM     14  O   UNL     1       0.381  11.982  19.411  0.00  0.00    +0.000 OA
BRANCH  14  15
ATOM     15  C   UNL     1       1.582  12.400  18.757  0.00  0.00    +0.000 C 
ATOM     16  C   UNL     1       2.353  13.317  19.693  0.00  0.00    +0.000 C 
ENDBRANCH  14  15
ENDBRANCH  10  14
ENDBRANCH   1   8
BRANCH   3  17
ATOM     17  C   UNL     1       2.650   6.136  18.168  0.00  0.00    +0.000 A 
ATOM     18  C   UNL     1       1.901   4.956  18.122  0.00  0.00    +0.000 A 
ATOM     19  C   UNL     1       2.391   3.808  17.505  0.00  0.00    +0.000 A 
ATOM     20  C   UNL     1       3.650   3.817  16.920  0.00  0.00    +0.000 A 
ATOM     21  C   UNL     1       4.424   4.985  16.950  0.00  0.00    +0.000 A 
ATOM     22  C   UNL     1       3.914   6.153  17.558  0.00  0.00    +0.000 A 
BRANCH  21  23
ATOM     23  N   UNL     1       5.726   4.978  16.392  0.00  0.00    +0.000 N 
ATOM     24  C   UNL     1       6.868   4.372  16.864  0.00  0.00    +0.000 A 
ATOM     25  N   UNL     1       7.870   4.647  16.062  0.00  0.00    +0.000 NA
ATOM     26  N   UNL     1       7.347   5.437  15.070  0.00  0.00    +0.000 NA
ATOM     27  N   UNL     1       6.051   5.638  15.252  0.00  0.00    +0.000 NA
ENDBRANCH  21  23
ENDBRANCH   3  17
TORSDOF 7
ENDMDL
