MODEL 1
REMARK VINA RESULT:      -7.2      0.000      0.000
REMARK  Name = 
REMARK  4 active torsions:
REMARK  status: ('A' for Active; 'I' for Inactive)
REMARK    1  A    between atoms: C_2  and  C_3
REMARK    2  A    between atoms: N_16  and  C_17
REMARK    3  A    between atoms: C_17  and  C_18
REMARK    4  A    between atoms: C_18  and  N_19
REMARK                            x       y       z     vdW  Elec       q    Type
REMARK                         _______ _______ _______ _____ _____    ______ ____
ROOT
ATOM      1  O   UNL     1       2.163  10.002  17.536  0.00  0.00    +0.000 OA
ATOM      2  C   UNL     1       1.623   9.561  18.544  0.00  0.00    +0.000 C 
ATOM      3  N   UNL     1       1.958   8.288  19.013  0.00  0.00    +0.000 N 
ATOM      4  C   UNL     1       1.481   7.688  20.259  0.00  0.00    +0.000 C 
ATOM      5  C   UNL     1       2.102   6.281  20.360  0.00  0.00    +0.000 C 
ATOM      6  C   UNL     1       3.212   6.361  19.349  0.00  0.00    +0.000 C 
ATOM      7  C   UNL     1       2.584   7.215  18.245  0.00  0.00    +0.000 C 
ATOM      8  C   UNL     1       3.736   7.219  17.259  0.00  0.00    +0.000 C 
ATOM      9  C   UNL     1       4.251   5.777  17.415  0.00  0.00    +0.000 C 
ATOM     10  O   UNL     1       5.050   5.232  16.667  0.00  0.00    +0.000 OA
ATOM     11  N   UNL     1       3.778   5.246  18.653  0.00  0.00    +0.000 N 
ENDROOT
BRANCH   2  12
ATOM     12  C   UNL     1       0.643  10.391  19.286  0.00  0.00    +0.000 A 
ATOM     13  C   UNL     1      -0.735  10.542  19.226  0.00  0.00    +0.000 A 
ATOM     14  C   UNL     1      -1.151  11.531  20.149  0.00  0.00    +0.000 A 
ATOM     15  C   UNL     1      -0.021  11.999  20.763  0.00  0.00    +0.000 A 
ATOM     16  N   UNL     1       1.055  11.339  20.223  0.00  0.00    +0.000 N 
ATOM     17  H   UNL     1       2.025  11.523  20.452  0.00  0.00    +0.000 HD
ENDBRANCH   2  12
BRANCH  11  18
ATOM     18  C   UNL     1       4.653   4.283  19.319  0.00  0.00    +0.000 C 
BRANCH  18  19
ATOM     19  C   UNL     1       4.313   2.779  19.198  0.00  0.00    +0.000 C 
BRANCH  19  20
ATOM     20  N   UNL     1       3.046   2.361  19.812  0.00  0.00    +0.000 NA
ATOM     21  C   UNL     1       2.846   2.929  21.150  0.00  0.00    +0.000 C 
ATOM     22  C   UNL     1       1.375   2.652  21.392  0.00  0.00    +0.000 C 
ATOM     23  C   UNL     1       0.734   2.886  20.034  0.00  0.00    +0.000 C 
ATOM     24  C   UNL     1       1.881   2.800  19.031  0.00  0.00    +0.000 C 
ENDBRANCH  19  20
ENDBRANCH  18  19
ENDBRANCH  11  18
TORSDOF 4
ENDMDL
MODEL 2
REMARK VINA RESULT:      -7.0      2.316      4.005
REMARK  Name = 
REMARK  4 active torsions:
REMARK  status: ('A' for Active; 'I' for Inactive)
REMARK    1  A    between atoms: C_2  and  C_3
REMARK    2  A    between atoms: N_16  and  C_17
REMARK    3  A    between atoms: C_17  and  C_18
REMARK    4  A    between atoms: C_18  and  N_19
REMARK                            x       y       z     vdW  Elec       q    Type
REMARK                         _______ _______ _______ _____ _____    ______ ____
ROOT
ATOM      1  O   UNL     1      -0.220   9.027  21.258  0.00  0.00    +0.000 OA
ATOM      2  C   UNL     1       0.282   9.584  20.288  0.00  0.00    +0.000 C 
ATOM      3  N   UNL     1       1.207   8.902  19.495  0.00  0.00    +0.000 N 
ATOM      4  C   UNL     1       1.794   9.401  18.251  0.00  0.00    +0.000 C 
ATOM      5  C   UNL     1       2.760   8.319  17.730  0.00  0.00    +0.000 C 
ATOM      6  C   UNL     1       2.328   7.115  18.520  0.00  0.00    +0.000 C 
ATOM      7  C   UNL     1       1.984   7.726  19.880  0.00  0.00    +0.000 C 
ATOM      8  C   UNL     1       1.600   6.462  20.622  0.00  0.00    +0.000 C 
ATOM      9  C   UNL     1       2.636   5.473  20.059  0.00  0.00    +0.000 C 
ATOM     10  O   UNL     1       2.865   4.361  20.513  0.00  0.00    +0.000 OA
ATOM     11  N   UNL     1       3.160   5.995  18.838  0.00  0.00    +0.000 N 
ENDROOT
BRANCH   2  12
ATOM     12  C   UNL     1      -0.120  10.968  19.936  0.00  0.00    +0.000 A 
ATOM     13  C   UNL     1       0.352  12.227  20.279  0.00  0.00    +0.000 A 
ATOM     14  C   UNL     1      -0.458  13.223  19.683  0.00  0.00    +0.000 A 
ATOM     15  C   UNL     1      -1.440  12.571  18.989  0.00  0.00    +0.000 A 
ATOM     16  N   UNL     1      -1.256  11.221  19.167  0.00  0.00    +0.000 N 
ATOM     17  H   UNL     1      -1.870  10.499  18.809  0.00  0.00    +0.000 HD
ENDBRANCH   2  12
BRANCH  11  18
ATOM     18  C   UNL     1       3.548   5.009  17.829  0.00  0.00    +0.000 C 
BRANCH  18  19
ATOM     19  C   UNL     1       5.053   4.831  17.522  0.00  0.00    +0.000 C 
BRANCH  19  20
ATOM     20  N   UNL     1       5.944   5.853  18.087  0.00  0.00    +0.000 NA
ATOM     21  C   UNL     1       7.262   5.322  18.452  0.00  0.00    +0.000 C 
ATOM     22  C   UNL     1       8.066   6.592  18.654  0.00  0.00    +0.000 C 
ATOM     23  C   UNL     1       7.562   7.518  17.560  0.00  0.00    +0.000 C 
ATOM     24  C   UNL     1       6.217   6.937  17.132  0.00  0.00    +0.000 C 
ENDBRANCH  19  20
ENDBRANCH  18  19
ENDBRANCH  11  18
TORSDOF 4
ENDMDL
MODEL 3
REMARK VINA RESULT:      -6.8      3.920      7.222
REMARK  Name = 
REMARK  4 active torsions:
REMARK  status: ('A' for Active; 'I' for Inactive)
REMARK    1  A    between atoms: C_2  and  C_3
REMARK    2  A    between atoms: N_16  and  C_17
REMARK    3  A    between atoms: C_17  and  C_18
REMARK    4  A    between atoms: C_18  and  N_19
REMARK                            x       y       z     vdW  Elec       q    Type
REMARK                         _______ _______ _______ _____ _____    ______ ____
ROOT
ATOM      1  O   UNL     1       7.370   5.022  13.965  0.00  0.00    +0.000 OA
ATOM      2  C   UNL     1       6.394   4.286  14.058  0.00  0.00    +0.000 C 
ATOM      3  N   UNL     1       5.768   4.111  15.294  0.00  0.00    +0.000 N 
ATOM      4  C   UNL     1       4.535   3.357  15.524  0.00  0.00    +0.000 C 
ATOM      5  C   UNL     1       4.226   3.429  17.032  0.00  0.00    +0.000 C 
ATOM      6  C   UNL     1       5.102   4.570  17.471  0.00  0.00    +0.000 C 
ATOM      7  C   UNL     1       6.350   4.372  16.608  0.00  0.00    +0.000 C 
ATOM      8  C   UNL     1       7.188   5.522  17.129  0.00  0.00    +0.000 C 
ATOM      9  C   UNL     1       6.834   5.479  18.627  0.00  0.00    +0.000 C 
ATOM     10  O   UNL     1       7.426   6.087  19.507  0.00  0.00    +0.000 OA
ATOM     11  N   UNL     1       5.615   4.755  18.794  0.00  0.00    +0.000 N 
ENDROOT
BRANCH   2  12
ATOM     12  C   UNL     1       5.857   3.610  12.851  0.00  0.00    +0.000 A 
ATOM     13  C   UNL     1       4.694   3.742  12.107  0.00  0.00    +0.000 A 
ATOM     14  C   UNL     1       4.677   2.784  11.065  0.00  0.00    +0.000 A 
ATOM     15  C   UNL     1       5.827   2.052  11.183  0.00  0.00    +0.000 A 
ATOM     16  N   UNL     1       6.518   2.525  12.271  0.00  0.00    +0.000 N 
ATOM     17  H   UNL     1       7.382   2.133  12.627  0.00  0.00    +0.000 HD
ENDBRANCH   2  12
BRANCH  11  18
ATOM     18  C   UNL     1       4.761   5.178  19.903  0.00  0.00    +0.000 C 
BRANCH  18  19
ATOM     19  C   UNL     1       3.360   5.745  19.573  0.00  0.00    +0.000 C 
BRANCH  19  20
ATOM     20  N   UNL     1       2.225   5.024  20.164  0.00  0.00    +0.000 NA
ATOM     21  C   UNL     1       1.559   4.130  19.211  0.00  0.00    +0.000 C 
ATOM     22  C   UNL     1       0.702   3.277  20.127  0.00  0.00    +0.000 C 
ATOM     23  C   UNL     1       1.581   3.061  21.347  0.00  0.00    +0.000 C 
ATOM     24  C   UNL     1       2.639   4.159  21.277  0.00  0.00    +0.000 C 
ENDBRANCH  19  20
ENDBRANCH  18  19
ENDBRANCH  11  18
TORSDOF 4
ENDMDL
MODEL 4
REMARK VINA RESULT:      -6.8      2.232      3.882
REMARK  Name = 
REMARK  4 active torsions:
REMARK  status: ('A' for Active; 'I' for Inactive)
REMARK    1  A    between atoms: C_2  and  C_3
REMARK    2  A    between atoms: N_16  and  C_17
REMARK    3  A    between atoms: C_17  and  C_18
REMARK    4  A    between atoms: C_18  and  N_19
REMARK                            x       y       z     vdW  Elec       q    Type
REMARK                         _______ _______ _______ _____ _____    ______ ____
ROOT
ATOM      1  O   UNL     1       0.042   8.382  21.448  0.00  0.00    +0.000 OA
ATOM      2  C   UNL     1       0.415   9.079  20.510  0.00  0.00    +0.000 C 
ATOM      3  N   UNL     1       1.334   8.573  19.589  0.00  0.00    +0.000 N 
ATOM      4  C   UNL     1       1.774   9.248  18.368  0.00  0.00    +0.000 C 
ATOM      5  C   UNL     1       2.791   8.323  17.671  0.00  0.00    +0.000 C 
ATOM      6  C   UNL     1       2.533   7.011  18.357  0.00  0.00    +0.000 C 
ATOM      7  C   UNL     1       2.242   7.447  19.794  0.00  0.00    +0.000 C 
ATOM      8  C   UNL     1       2.032   6.083  20.422  0.00  0.00    +0.000 C 
ATOM      9  C   UNL     1       3.107   5.262  19.688  0.00  0.00    +0.000 C 
ATOM     10  O   UNL     1       3.470   4.138  20.005  0.00  0.00    +0.000 OA
ATOM     11  N   UNL     1       3.485   5.951  18.496  0.00  0.00    +0.000 N 
ENDROOT
BRANCH   2  12
ATOM     12  C   UNL     1      -0.137  10.445  20.336  0.00  0.00    +0.000 A 
ATOM     13  C   UNL     1      -1.061  11.009  19.469  0.00  0.00    +0.000 A 
ATOM     14  C   UNL     1      -1.172  12.398  19.721  0.00  0.00    +0.000 A 
ATOM     15  C   UNL     1      -0.299  12.686  20.734  0.00  0.00    +0.000 A 
ATOM     16  N   UNL     1       0.344  11.523  21.080  0.00  0.00    +0.000 N 
ATOM     17  H   UNL     1       1.084  11.450  21.768  0.00  0.00    +0.000 HD
ENDBRANCH   2  12
BRANCH  11  18
ATOM     18  C   UNL     1       3.882   5.113  17.365  0.00  0.00    +0.000 C 
BRANCH  18  19
ATOM     19  C   UNL     1       4.912   5.680  16.361  0.00  0.00    +0.000 C 
BRANCH  19  20
ATOM     20  N   UNL     1       6.280   5.837  16.873  0.00  0.00    +0.000 NA
ATOM     21  C   UNL     1       6.540   7.179  17.406  0.00  0.00    +0.000 C 
ATOM     22  C   UNL     1       7.836   6.970  18.165  0.00  0.00    +0.000 C 
ATOM     23  C   UNL     1       7.672   5.594  18.790  0.00  0.00    +0.000 C 
ATOM     24  C   UNL     1       6.563   4.920  17.986  0.00  0.00    +0.000 C 
ENDBRANCH  19  20
ENDBRANCH  18  19
ENDBRANCH  11  18
TORSDOF 4
ENDMDL
MODEL 5
REMARK VINA RESULT:      -6.7      2.189      3.825
REMARK  Name = 
REMARK  4 active torsions:
REMARK  status: ('A' for Active; 'I' for Inactive)
REMARK    1  A    between atoms: C_2  and  C_3
REMARK    2  A    between atoms: N_16  and  C_17
REMARK    3  A    between atoms: C_17  and  C_18
REMARK    4  A    between atoms: C_18  and  N_19
REMARK                            x       y       z     vdW  Elec       q    Type
REMARK                         _______ _______ _______ _____ _____    ______ ____
ROOT
ATOM      1  O   UNL     1      -0.207   9.230  20.901  0.00  0.00    +0.000 OA
ATOM      2  C   UNL     1       0.411   9.660  19.933  0.00  0.00    +0.000 C 
ATOM      3  N   UNL     1       1.361   8.855  19.301  0.00  0.00    +0.000 N 
ATOM      4  C   UNL     1       2.084   9.196  18.074  0.00  0.00    +0.000 C 
ATOM      5  C   UNL     1       3.028   8.020  17.755  0.00  0.00    +0.000 C 
ATOM      6  C   UNL     1       2.460   6.926  18.615  0.00  0.00    +0.000 C 
ATOM      7  C   UNL     1       2.032   7.690  19.870  0.00  0.00    +0.000 C 
ATOM      8  C   UNL     1       1.511   6.528  20.693  0.00  0.00    +0.000 C 
ATOM      9  C   UNL     1       2.535   5.438  20.329  0.00  0.00    +0.000 C 
ATOM     10  O   UNL     1       2.658   4.368  20.909  0.00  0.00    +0.000 OA
ATOM     11  N   UNL     1       3.194   5.805  19.117  0.00  0.00    +0.000 N 
ENDROOT
BRANCH   2  12
ATOM     12  C   UNL     1       0.122  11.018  19.411  0.00  0.00    +0.000 A 
ATOM     13  C   UNL     1      -0.796  11.530  18.506  0.00  0.00    +0.000 A 
ATOM     14  C   UNL     1      -0.586  12.921  18.342  0.00  0.00    +0.000 A 
ATOM     15  C   UNL     1       0.475  13.256  19.138  0.00  0.00    +0.000 A 
ATOM     16  N   UNL     1       0.920  12.112  19.753  0.00  0.00    +0.000 N 
ATOM     17  H   UNL     1       1.730  12.054  20.358  0.00  0.00    +0.000 HD
ENDBRANCH   2  12
BRANCH  11  18
ATOM     18  C   UNL     1       3.612   4.704  18.251  0.00  0.00    +0.000 C 
BRANCH  18  19
ATOM     19  C   UNL     1       5.078   4.220  18.340  0.00  0.00    +0.000 C 
BRANCH  19  20
ATOM     20  N   UNL     1       5.761   4.015  17.055  0.00  0.00    +0.000 NA
ATOM     21  C   UNL     1       4.887   4.249  15.901  0.00  0.00    +0.000 C 
ATOM     22  C   UNL     1       5.885   4.327  14.762  0.00  0.00    +0.000 C 
ATOM     23  C   UNL     1       7.067   5.067  15.365  0.00  0.00    +0.000 C 
ATOM     24  C   UNL     1       6.890   4.937  16.876  0.00  0.00    +0.000 C 
ENDBRANCH  19  20
ENDBRANCH  18  19
ENDBRANCH  11  18
TORSDOF 4
ENDMDL
MODEL 6
REMARK VINA RESULT:      -6.7      2.280      3.845
REMARK  Name = 
REMARK  4 active torsions:
REMARK  status: ('A' for Active; 'I' for Inactive)
REMARK    1  A    between atoms: C_2  and  C_3
REMARK    2  A    between atoms: N_16  and  C_17
REMARK    3  A    between atoms: C_17  and  C_18
REMARK    4  A    between atoms: C_18  and  N_19
REMARK                            x       y       z     vdW  Elec       q    Type
REMARK                         _______ _______ _______ _____ _____    ______ ____
ROOT
ATOM      1  O   UNL     1       0.179   9.366  21.000  0.00  0.00    +0.000 OA
ATOM      2  C   UNL     1       0.754   9.651  19.955  0.00  0.00    +0.000 C 
ATOM      3  N   UNL     1       1.535   8.693  19.306  0.00  0.00    +0.000 N 
ATOM      4  C   UNL     1       2.179   8.861  18.003  0.00  0.00    +0.000 C 
ATOM      5  C   UNL     1       2.935   7.555  17.691  0.00  0.00    +0.000 C 
ATOM      6  C   UNL     1       2.315   6.598  18.671  0.00  0.00    +0.000 C 
ATOM      7  C   UNL     1       2.103   7.485  19.900  0.00  0.00    +0.000 C 
ATOM      8  C   UNL     1       1.518   6.454  20.843  0.00  0.00    +0.000 C 
ATOM      9  C   UNL     1       2.359   5.218  20.475  0.00  0.00    +0.000 C 
ATOM     10  O   UNL     1       2.399   4.178  21.117  0.00  0.00    +0.000 OA
ATOM     11  N   UNL     1       2.945   5.423  19.190  0.00  0.00    +0.000 N 
ENDROOT
BRANCH   2  12
ATOM     12  C   UNL     1       0.592  11.002  19.364  0.00  0.00    +0.000 A 
ATOM     13  C   UNL     1       1.380  12.144  19.334  0.00  0.00    +0.000 A 
ATOM     14  C   UNL     1       0.695  13.183  18.660  0.00  0.00    +0.000 A 
ATOM     15  C   UNL     1      -0.523  12.680  18.292  0.00  0.00    +0.000 A 
ATOM     16  N   UNL     1      -0.597  11.385  18.742  0.00  0.00    +0.000 N 
ATOM     17  H   UNL     1      -1.410  10.785  18.657  0.00  0.00    +0.000 HD
ENDBRANCH   2  12
BRANCH  11  18
ATOM     18  C   UNL     1       3.141   4.226  18.372  0.00  0.00    +0.000 C 
BRANCH  18  19
ATOM     19  C   UNL     1       4.589   3.794  18.044  0.00  0.00    +0.000 C 
BRANCH  19  20
ATOM     20  N   UNL     1       5.289   4.616  17.048  0.00  0.00    +0.000 NA
ATOM     21  C   UNL     1       6.724   4.747  17.323  0.00  0.00    +0.000 C 
ATOM     22  C   UNL     1       7.245   5.304  16.012  0.00  0.00    +0.000 C 
ATOM     23  C   UNL     1       6.430   4.575  14.958  0.00  0.00    +0.000 C 
ATOM     24  C   UNL     1       5.207   4.038  15.699  0.00  0.00    +0.000 C 
ENDBRANCH  19  20
ENDBRANCH  18  19
ENDBRANCH  11  18
TORSDOF 4
ENDMDL
MODEL 7
REMARK VINA RESULT:      -6.7      2.636      7.405
REMARK  Name = 
REMARK  4 active torsions:
REMARK  status: ('A' for Active; 'I' for Inactive)
REMARK    1  A    between atoms: C_2  and  C_3
REMARK    2  A    between atoms: N_16  and  C_17
REMARK    3  A    between atoms: C_17  and  C_18
REMARK    4  A    between atoms: C_18  and  N_19
REMARK                            x       y       z     vdW  Elec       q    Type
REMARK                         _______ _______ _______ _____ _____    ______ ____
ROOT
ATOM      1  O   UNL     1       3.793   5.182  20.070  0.00  0.00    +0.000 OA
ATOM      2  C   UNL     1       3.822   5.713  18.965  0.00  0.00    +0.000 C 
ATOM      3  N   UNL     1       3.068   6.863  18.726  0.00  0.00    +0.000 N 
ATOM      4  C   UNL     1       3.097   7.659  17.498  0.00  0.00    +0.000 C 
ATOM      5  C   UNL     1       2.105   8.824  17.680  0.00  0.00    +0.000 C 
ATOM      6  C   UNL     1       1.894   8.818  19.169  0.00  0.00    +0.000 C 
ATOM      7  C   UNL     1       1.914   7.323  19.494  0.00  0.00    +0.000 C 
ATOM      8  C   UNL     1       1.661   7.398  20.986  0.00  0.00    +0.000 C 
ATOM      9  C   UNL     1       0.644   8.552  21.047  0.00  0.00    +0.000 C 
ATOM     10  O   UNL     1      -0.022   8.851  22.028  0.00  0.00    +0.000 OA
ATOM     11  N   UNL     1       0.729   9.309  19.840  0.00  0.00    +0.000 N 
ENDROOT
BRANCH   2  12
ATOM     12  C   UNL     1       4.685   5.153  17.896  0.00  0.00    +0.000 A 
ATOM     13  C   UNL     1       4.440   4.436  16.734  0.00  0.00    +0.000 A 
ATOM     14  C   UNL     1       5.664   4.108  16.103  0.00  0.00    +0.000 A 
ATOM     15  C   UNL     1       6.662   4.612  16.892  0.00  0.00    +0.000 A 
ATOM     16  N   UNL     1       6.077   5.209  17.982  0.00  0.00    +0.000 N 
ATOM     17  H   UNL     1       6.580   5.620  18.760  0.00  0.00    +0.000 HD
ENDBRANCH   2  12
BRANCH  11  18
ATOM     18  C   UNL     1       0.447  10.739  19.954  0.00  0.00    +0.000 C 
BRANCH  18  19
ATOM     19  C   UNL     1      -0.452  11.396  18.880  0.00  0.00    +0.000 C 
BRANCH  19  20
ATOM     20  N   UNL     1      -1.695  10.679  18.565  0.00  0.00    +0.000 NA
ATOM     21  C   UNL     1      -2.850  11.573  18.431  0.00  0.00    +0.000 C 
ATOM     22  C   UNL     1      -3.874  10.666  17.774  0.00  0.00    +0.000 C 
ATOM     23  C   UNL     1      -3.053   9.839  16.798  0.00  0.00    +0.000 C 
ATOM     24  C   UNL     1      -1.611   9.964  17.284  0.00  0.00    +0.000 C 
ENDBRANCH  19  20
ENDBRANCH  18  19
ENDBRANCH  11  18
TORSDOF 4
ENDMDL
MODEL 8
REMARK VINA RESULT:      -6.6      2.317      3.708
REMARK  Name = 
REMARK  4 active torsions:
REMARK  status: ('A' for Active; 'I' for Inactive)
REMARK    1  A    between atoms: C_2  and  C_3
REMARK    2  A    between atoms: N_16  and  C_17
REMARK    3  A    between atoms: C_17  and  C_18
REMARK    4  A    between atoms: C_18  and  N_19
REMARK                            x       y       z     vdW  Elec       q    Type
REMARK                         _______ _______ _______ _____ _____    ______ ____
ROOT
ATOM      1  O   UNL     1       0.197   9.942  21.060  0.00  0.00    +0.000 OA
ATOM      2  C   UNL     1       0.735  10.205  19.990  0.00  0.00    +0.000 C 
ATOM      3  N   UNL     1       1.425   9.211  19.294  0.00  0.00    +0.000 N 
ATOM      4  C   UNL     1       2.012   9.356  17.962  0.00  0.00    +0.000 C 
ATOM      5  C   UNL     1       2.674   8.012  17.601  0.00  0.00    +0.000 C 
ATOM      6  C   UNL     1       2.050   7.082  18.604  0.00  0.00    +0.000 C 
ATOM      7  C   UNL     1       1.952   7.966  19.849  0.00  0.00    +0.000 C 
ATOM      8  C   UNL     1       1.355   6.960  20.812  0.00  0.00    +0.000 C 
ATOM      9  C   UNL     1       2.104   5.682  20.391  0.00  0.00    +0.000 C 
ATOM     10  O   UNL     1       2.117   4.635  21.022  0.00  0.00    +0.000 OA
ATOM     11  N   UNL     1       2.636   5.867  19.080  0.00  0.00    +0.000 N 
ENDROOT
BRANCH   2  12
ATOM     12  C   UNL     1       0.621  11.570  19.419  0.00  0.00    +0.000 A 
ATOM     13  C   UNL     1       1.396  12.717  19.499  0.00  0.00    +0.000 A 
ATOM     14  C   UNL     1       0.775  13.769  18.784  0.00  0.00    +0.000 A 
ATOM     15  C   UNL     1      -0.393  13.267  18.279  0.00  0.00    +0.000 A 
ATOM     16  N   UNL     1      -0.501  11.960  18.687  0.00  0.00    +0.000 N 
ATOM     17  H   UNL     1      -1.295  11.357  18.504  0.00  0.00    +0.000 HD
ENDBRANCH   2  12
BRANCH  11  18
ATOM     18  C   UNL     1       2.722   4.670  18.244  0.00  0.00    +0.000 C 
BRANCH  18  19
ATOM     19  C   UNL     1       4.098   3.983  18.088  0.00  0.00    +0.000 C 
BRANCH  19  20
ATOM     20  N   UNL     1       5.252   4.886  17.981  0.00  0.00    +0.000 NA
ATOM     21  C   UNL     1       5.948   5.076  19.258  0.00  0.00    +0.000 C 
ATOM     22  C   UNL     1       7.247   5.721  18.815  0.00  0.00    +0.000 C 
ATOM     23  C   UNL     1       7.585   5.002  17.520  0.00  0.00    +0.000 C 
ATOM     24  C   UNL     1       6.274   4.370  17.060  0.00  0.00    +0.000 C 
ENDBRANCH  19  20
ENDBRANCH  18  19
ENDBRANCH  11  18
TORSDOF 4
ENDMDL
MODEL 9
REMARK VINA RESULT:      -6.5      2.810      7.223
REMARK  Name = 
REMARK  4 active torsions:
REMARK  status: ('A' for Active; 'I' for Inactive)
REMARK    1  A    between atoms: C_2  and  C_3
REMARK    2  A    between atoms: N_16  and  C_17
REMARK    3  A    between atoms: C_17  and  C_18
REMARK    4  A    between atoms: C_18  and  N_19
REMARK                            x       y       z     vdW  Elec       q    Type
REMARK                         _______ _______ _______ _____ _____    ______ ____
ROOT
ATOM      1  O   UNL     1       4.680   2.943  16.960  0.00  0.00    +0.000 OA
ATOM      2  C   UNL     1       4.849   4.088  16.555  0.00  0.00    +0.000 C 
ATOM      3  N   UNL     1       4.204   5.153  17.187  0.00  0.00    +0.000 N 
ATOM      4  C   UNL     1       4.404   6.570  16.882  0.00  0.00    +0.000 C 
ATOM      5  C   UNL     1       3.484   7.377  17.819  0.00  0.00    +0.000 C 
ATOM      6  C   UNL     1       3.136   6.354  18.864  0.00  0.00    +0.000 C 
ATOM      7  C   UNL     1       3.019   5.071  18.038  0.00  0.00    +0.000 C 
ATOM      8  C   UNL     1       2.635   4.107  19.142  0.00  0.00    +0.000 C 
ATOM      9  C   UNL     1       1.702   4.994  19.985  0.00  0.00    +0.000 C 
ATOM     10  O   UNL     1       0.970   4.594  20.879  0.00  0.00    +0.000 OA
ATOM     11  N   UNL     1       1.951   6.363  19.668  0.00  0.00    +0.000 N 
ENDROOT
BRANCH   2  12
ATOM     12  C   UNL     1       5.766   4.344  15.416  0.00  0.00    +0.000 A 
ATOM     13  C   UNL     1       5.681   4.147  14.046  0.00  0.00    +0.000 A 
ATOM     14  C   UNL     1       6.896   4.532  13.429  0.00  0.00    +0.000 A 
ATOM     15  C   UNL     1       7.732   4.949  14.428  0.00  0.00    +0.000 A 
ATOM     16  N   UNL     1       7.067   4.806  15.621  0.00  0.00    +0.000 N 
ATOM     17  H   UNL     1       7.465   4.989  16.534  0.00  0.00    +0.000 HD
ENDBRANCH   2  12
BRANCH  11  18
ATOM     18  C   UNL     1       1.762   7.322  20.755  0.00  0.00    +0.000 C 
BRANCH  18  19
ATOM     19  C   UNL     1       1.258   8.740  20.401  0.00  0.00    +0.000 C 
BRANCH  19  20
ATOM     20  N   UNL     1       0.143   9.242  21.215  0.00  0.00    +0.000 NA
ATOM     21  C   UNL     1       0.466   9.310  22.644  0.00  0.00    +0.000 C 
ATOM     22  C   UNL     1      -0.667  10.164  23.182  0.00  0.00    +0.000 C 
ATOM     23  C   UNL     1      -0.887  11.201  22.094  0.00  0.00    +0.000 C 
ATOM     24  C   UNL     1      -0.241  10.611  20.842  0.00  0.00    +0.000 C 
ENDBRANCH  19  20
ENDBRANCH  18  19
ENDBRANCH  11  18
TORSDOF 4
ENDMDL
