MODEL 1
REMARK VINA RESULT:      -8.7      0.000      0.000
REMARK  Name = 
REMARK  7 active torsions:
REMARK  status: ('A' for Active; 'I' for Inactive)
REMARK    1  A    between atoms: C_1  and  C_2
REMARK    2  A    between atoms: N_8  and  C_9
REMARK    3  A    between atoms: C_9  and  C_10
REMARK    4  A    between atoms: C_10  and  O_11
REMARK    5  A    between atoms: O_11  and  C_12
REMARK    6  A    between atoms: C_15  and  O_16
REMARK    7  A    between atoms: O_16  and  C_17
REMARK                            x       y       z     vdW  Elec       q    Type
REMARK                         _______ _______ _______ _____ _____    ______ ____
ROOT
ATOM      1  C   UNL     1       8.078   7.524  18.440  0.00  0.00    +0.000 A 
ATOM      2  C   UNL     1       7.256   7.894  17.370  0.00  0.00    +0.000 A 
ATOM      3  C   UNL     1       6.390   6.974  16.780  0.00  0.00    +0.000 A 
ATOM      4  C   UNL     1       6.348   5.667  17.249  0.00  0.00    +0.000 A 
ATOM      5  C   UNL     1       7.159   5.284  18.320  0.00  0.00    +0.000 A 
ATOM      6  C   UNL     1       8.027   6.210  18.910  0.00  0.00    +0.000 A 
ENDROOT
BRANCH   1   7
ATOM      7  O   UNL     1       8.949   8.363  19.094  0.00  0.00    +0.000 OA
BRANCH   7   8
ATOM      8  C   UNL     1       8.865   9.728  18.674  0.00  0.00    +0.000 C 
BRANCH   8   9
ATOM      9  C   UNL     1       9.257  10.692  19.798  0.00  0.00    +0.000 C 
BRANCH   9  17
ATOM     10  C   UNL     1      10.845  16.583  16.831  0.00  0.00    +0.000 C 
ATOM     11  C   UNL     1      11.436  16.064  18.116  0.00  0.00    +0.000 C 
ATOM     12  O   UNL     1      11.665  16.825  19.056  0.00  0.00    +0.000 OA
ATOM     13  N   UNL     1      11.672  14.709  18.185  0.00  0.00    +0.000 N 
ATOM     14  C   UNL     1      12.242  14.128  19.381  0.00  0.00    +0.000 C 
ATOM     15  C   UNL     1      12.333  12.622  19.139  0.00  0.00    +0.000 C 
ATOM     16  C   UNL     1      11.412  11.799  20.034  0.00  0.00    +0.000 C 
ATOM     17  N   UNL     1      10.139  11.771  19.312  0.00  0.00    +0.000 NA
ATOM     18  C   UNL     1      10.486  11.648  17.892  0.00  0.00    +0.000 C 
ATOM     19  C   UNL     1      11.810  12.390  17.714  0.00  0.00    +0.000 C 
ATOM     20  C   UNL     1      11.685  13.772  17.085  0.00  0.00    +0.000 C 
ENDBRANCH   9  17
ENDBRANCH   8   9
ENDBRANCH   7   8
ENDBRANCH   1   7
BRANCH   4  21
ATOM     21  O   UNL     1       5.424   4.845  16.650  0.00  0.00    +0.000 OA
BRANCH  21  22
ATOM     22  C   UNL     1       4.348   4.426  17.306  0.00  0.00    +0.000 A 
ATOM     23  N   UNL     1       4.059   3.157  17.486  0.00  0.00    +0.000 NA
ATOM     24  C   UNL     1       2.957   3.054  18.295  0.00  0.00    +0.000 A 
ATOM     25  N   UNL     1       2.495   1.846  18.705  0.00  0.00    +0.000 NA
ATOM     26  C   UNL     1       1.444   1.886  19.545  0.00  0.00    +0.000 A 
ATOM     27  C   UNL     1       0.818   3.040  19.992  0.00  0.00    +0.000 A 
ATOM     28  C   UNL     1       1.278   4.277  19.550  0.00  0.00    +0.000 A 
ATOM     29  C   UNL     1       2.375   4.263  18.687  0.00  0.00    +0.000 A 
ATOM     30  S   UNL     1       3.236   5.554  17.957  0.00  0.00    +0.000 S 
ENDBRANCH  21  22
ENDBRANCH   4  21
TORSDOF 6
ENDMDL
MODEL 2
REMARK VINA RESULT:      -8.4      1.142      1.307
REMARK  Name = 
REMARK  7 active torsions:
REMARK  status: ('A' for Active; 'I' for Inactive)
REMARK    1  A    between atoms: C_1  and  C_2
REMARK    2  A    between atoms: N_8  and  C_9
REMARK    3  A    between atoms: C_9  and  C_10
REMARK    4  A    between atoms: C_10  and  O_11
REMARK    5  A    between atoms: O_11  and  C_12
REMARK    6  A    between atoms: C_15  and  O_16
REMARK    7  A    between atoms: O_16  and  C_17
REMARK                            x       y       z     vdW  Elec       q    Type
REMARK                         _______ _______ _______ _____ _____    ______ ____
ROOT
ATOM      1  C   UNL     1       7.509   8.123  17.786  0.00  0.00    +0.000 A 
ATOM      2  C   UNL     1       6.447   7.799  16.935  0.00  0.00    +0.000 A 
ATOM      3  C   UNL     1       5.970   6.491  16.852  0.00  0.00    +0.000 A 
ATOM      4  C   UNL     1       6.562   5.491  17.612  0.00  0.00    +0.000 A 
ATOM      5  C   UNL     1       7.619   5.801  18.471  0.00  0.00    +0.000 A 
ATOM      6  C   UNL     1       8.096   7.113  18.552  0.00  0.00    +0.000 A 
ENDROOT
BRANCH   1   7
ATOM      7  O   UNL     1       8.035   9.384  17.948  0.00  0.00    +0.000 OA
BRANCH   7   8
ATOM      8  C   UNL     1       9.163   9.433  18.827  0.00  0.00    +0.000 C 
BRANCH   8   9
ATOM      9  C   UNL     1       9.107  10.653  19.752  0.00  0.00    +0.000 C 
BRANCH   9  17
ATOM     10  C   UNL     1      10.861  16.480  16.753  0.00  0.00    +0.000 C 
ATOM     11  C   UNL     1      11.367  15.996  18.088  0.00  0.00    +0.000 C 
ATOM     12  O   UNL     1      11.528  16.782  19.022  0.00  0.00    +0.000 OA
ATOM     13  N   UNL     1      11.604  14.645  18.206  0.00  0.00    +0.000 N 
ATOM     14  C   UNL     1      12.096  14.097  19.452  0.00  0.00    +0.000 C 
ATOM     15  C   UNL     1      12.211  12.587  19.254  0.00  0.00    +0.000 C 
ATOM     16  C   UNL     1      11.236  11.779  20.105  0.00  0.00    +0.000 C 
ATOM     17  N   UNL     1      10.015  11.725  19.300  0.00  0.00    +0.000 NA
ATOM     18  C   UNL     1      10.456  11.570  17.910  0.00  0.00    +0.000 C 
ATOM     19  C   UNL     1      11.786  12.317  17.803  0.00  0.00    +0.000 C 
ATOM     20  C   UNL     1      11.696  13.682  17.133  0.00  0.00    +0.000 C 
ENDBRANCH   9  17
ENDBRANCH   8   9
ENDBRANCH   7   8
ENDBRANCH   1   7
BRANCH   4  21
ATOM     21  O   UNL     1       5.990   4.245  17.513  0.00  0.00    +0.000 OA
BRANCH  21  22
ATOM     22  C   UNL     1       4.877   3.944  18.173  0.00  0.00    +0.000 A 
ATOM     23  N   UNL     1       4.470   4.595  19.239  0.00  0.00    +0.000 NA
ATOM     24  C   UNL     1       3.239   4.123  19.614  0.00  0.00    +0.000 A 
ATOM     25  N   UNL     1       2.554   4.683  20.644  0.00  0.00    +0.000 NA
ATOM     26  C   UNL     1       1.333   4.167  20.871  0.00  0.00    +0.000 A 
ATOM     27  C   UNL     1       0.754   3.129  20.156  0.00  0.00    +0.000 A 
ATOM     28  C   UNL     1       1.468   2.540  19.116  0.00  0.00    +0.000 A 
ATOM     29  C   UNL     1       2.735   3.066  18.853  0.00  0.00    +0.000 A 
ATOM     30  S   UNL     1       3.892   2.639  17.661  0.00  0.00    +0.000 S 
ENDBRANCH  21  22
ENDBRANCH   4  21
TORSDOF 6
ENDMDL
MODEL 3
REMARK VINA RESULT:      -8.4      2.604      3.490
REMARK  Name = 
REMARK  7 active torsions:
REMARK  status: ('A' for Active; 'I' for Inactive)
REMARK    1  A    between atoms: C_1  and  C_2
REMARK    2  A    between atoms: N_8  and  C_9
REMARK    3  A    between atoms: C_9  and  C_10
REMARK    4  A    between atoms: C_10  and  O_11
REMARK    5  A    between atoms: O_11  and  C_12
REMARK    6  A    between atoms: C_15  and  O_16
REMARK    7  A    between atoms: O_16  and  C_17
REMARK                            x       y       z     vdW  Elec       q    Type
REMARK                         _______ _______ _______ _____ _____    ______ ____
ROOT
ATOM      1  C   UNL     1       7.871   7.430  18.301  0.00  0.00    +0.000 A 
ATOM      2  C   UNL     1       6.858   7.493  17.338  0.00  0.00    +0.000 A 
ATOM      3  C   UNL     1       6.114   6.361  17.008  0.00  0.00    +0.000 A 
ATOM      4  C   UNL     1       6.385   5.150  17.632  0.00  0.00    +0.000 A 
ATOM      5  C   UNL     1       7.389   5.074  18.599  0.00  0.00    +0.000 A 
ATOM      6  C   UNL     1       8.135   6.211  18.928  0.00  0.00    +0.000 A 
ENDROOT
BRANCH   1   7
ATOM      7  O   UNL     1       8.645   8.494  18.703  0.00  0.00    +0.000 OA
BRANCH   7   8
ATOM      8  C   UNL     1       8.429   9.687  17.945  0.00  0.00    +0.000 C 
BRANCH   8   9
ATOM      9  C   UNL     1       9.456  10.771  18.289  0.00  0.00    +0.000 C 
BRANCH   9  17
ATOM     10  C   UNL     1       5.267  13.985  22.549  0.00  0.00    +0.000 C 
ATOM     11  C   UNL     1       6.361  13.031  22.952  0.00  0.00    +0.000 C 
ATOM     12  O   UNL     1       6.190  12.230  23.872  0.00  0.00    +0.000 OA
ATOM     13  N   UNL     1       7.529  13.086  22.225  0.00  0.00    +0.000 N 
ATOM     14  C   UNL     1       8.632  12.208  22.549  0.00  0.00    +0.000 C 
ATOM     15  C   UNL     1       9.740  12.500  21.538  0.00  0.00    +0.000 C 
ATOM     16  C   UNL     1      10.024  11.342  20.586  0.00  0.00    +0.000 C 
ATOM     17  N   UNL     1       9.068  11.530  19.494  0.00  0.00    +0.000 NA
ATOM     18  C   UNL     1       8.991  12.978  19.273  0.00  0.00    +0.000 C 
ATOM     19  C   UNL     1       9.206  13.626  20.640  0.00  0.00    +0.000 C 
ATOM     20  C   UNL     1       7.935  14.131  21.313  0.00  0.00    +0.000 C 
ENDBRANCH   9  17
ENDBRANCH   8   9
ENDBRANCH   7   8
ENDBRANCH   1   7
BRANCH   4  21
ATOM     21  O   UNL     1       5.564   4.102  17.290  0.00  0.00    +0.000 OA
BRANCH  21  22
ATOM     22  C   UNL     1       4.522   3.769  18.044  0.00  0.00    +0.000 A 
ATOM     23  N   UNL     1       4.636   3.192  19.219  0.00  0.00    +0.000 NA
ATOM     24  C   UNL     1       3.395   3.086  19.792  0.00  0.00    +0.000 A 
ATOM     25  N   UNL     1       3.240   2.597  21.049  0.00  0.00    +0.000 NA
ATOM     26  C   UNL     1       1.979   2.603  21.517  0.00  0.00    +0.000 A 
ATOM     27  C   UNL     1       0.866   3.047  20.819  0.00  0.00    +0.000 A 
ATOM     28  C   UNL     1       1.024   3.525  19.522  0.00  0.00    +0.000 A 
ATOM     29  C   UNL     1       2.326   3.541  19.017  0.00  0.00    +0.000 A 
ATOM     30  S   UNL     1       2.926   4.069  17.500  0.00  0.00    +0.000 S 
ENDBRANCH  21  22
ENDBRANCH   4  21
TORSDOF 6
ENDMDL
MODEL 4
REMARK VINA RESULT:      -8.2      2.777      2.926
REMARK  Name = 
REMARK  7 active torsions:
REMARK  status: ('A' for Active; 'I' for Inactive)
REMARK    1  A    between atoms: C_1  and  C_2
REMARK    2  A    between atoms: N_8  and  C_9
REMARK    3  A    between atoms: C_9  and  C_10
REMARK    4  A    between atoms: C_10  and  O_11
REMARK    5  A    between atoms: O_11  and  C_12
REMARK    6  A    between atoms: C_15  and  O_16
REMARK    7  A    between atoms: O_16  and  C_17
REMARK                            x       y       z     vdW  Elec       q    Type
REMARK                         _______ _______ _______ _____ _____    ______ ____
ROOT
ATOM      1  C   UNL     1       7.890   7.299  18.254  0.00  0.00    +0.000 A 
ATOM      2  C   UNL     1       6.902   7.429  17.273  0.00  0.00    +0.000 A 
ATOM      3  C   UNL     1       6.088   6.350  16.929  0.00  0.00    +0.000 A 
ATOM      4  C   UNL     1       6.264   5.124  17.558  0.00  0.00    +0.000 A 
ATOM      5  C   UNL     1       7.243   4.981  18.543  0.00  0.00    +0.000 A 
ATOM      6  C   UNL     1       8.059   6.065  18.886  0.00  0.00    +0.000 A 
ENDROOT
BRANCH   1   7
ATOM      7  O   UNL     1       8.727   8.307  18.671  0.00  0.00    +0.000 OA
BRANCH   7   8
ATOM      8  C   UNL     1       8.391   9.595  18.144  0.00  0.00    +0.000 C 
BRANCH   8   9
ATOM      9  C   UNL     1       9.440  10.649  18.512  0.00  0.00    +0.000 C 
BRANCH   9  17
ATOM     10  C   UNL     1       4.699  15.475  18.010  0.00  0.00    +0.000 C 
ATOM     11  C   UNL     1       5.485  15.147  19.253  0.00  0.00    +0.000 C 
ATOM     12  O   UNL     1       4.945  15.160  20.360  0.00  0.00    +0.000 OA
ATOM     13  N   UNL     1       6.808  14.811  19.077  0.00  0.00    +0.000 N 
ATOM     14  C   UNL     1       7.636  14.486  20.218  0.00  0.00    +0.000 C 
ATOM     15  C   UNL     1       9.017  14.127  19.672  0.00  0.00    +0.000 C 
ATOM     16  C   UNL     1       9.398  12.664  19.877  0.00  0.00    +0.000 C 
ATOM     17  N   UNL     1       8.833  11.979  18.713  0.00  0.00    +0.000 NA
ATOM     18  C   UNL     1       9.027  12.888  17.579  0.00  0.00    +0.000 C 
ATOM     19  C   UNL     1       8.929  14.302  18.150  0.00  0.00    +0.000 C 
ATOM     20  C   UNL     1       7.603  15.005  17.886  0.00  0.00    +0.000 C 
ENDBRANCH   9  17
ENDBRANCH   8   9
ENDBRANCH   7   8
ENDBRANCH   1   7
BRANCH   4  21
ATOM     21  O   UNL     1       5.380   4.135  17.201  0.00  0.00    +0.000 OA
BRANCH  21  22
ATOM     22  C   UNL     1       4.380   3.783  18.002  0.00  0.00    +0.000 A 
ATOM     23  N   UNL     1       4.557   3.189  19.161  0.00  0.00    +0.000 NA
ATOM     24  C   UNL     1       3.348   3.066  19.794  0.00  0.00    +0.000 A 
ATOM     25  N   UNL     1       3.260   2.557  21.050  0.00  0.00    +0.000 NA
ATOM     26  C   UNL     1       2.024   2.547  21.581  0.00  0.00    +0.000 A 
ATOM     27  C   UNL     1       0.874   2.994  20.948  0.00  0.00    +0.000 A 
ATOM     28  C   UNL     1       0.963   3.493  19.652  0.00  0.00    +0.000 A 
ATOM     29  C   UNL     1       2.238   3.525  19.082  0.00  0.00    +0.000 A 
ATOM     30  S   UNL     1       2.757   4.081  17.545  0.00  0.00    +0.000 S 
ENDBRANCH  21  22
ENDBRANCH   4  21
TORSDOF 6
ENDMDL
MODEL 5
REMARK VINA RESULT:      -8.1      2.690      3.346
REMARK  Name = 
REMARK  7 active torsions:
REMARK  status: ('A' for Active; 'I' for Inactive)
REMARK    1  A    between atoms: C_1  and  C_2
REMARK    2  A    between atoms: N_8  and  C_9
REMARK    3  A    between atoms: C_9  and  C_10
REMARK    4  A    between atoms: C_10  and  O_11
REMARK    5  A    between atoms: O_11  and  C_12
REMARK    6  A    between atoms: C_15  and  O_16
REMARK    7  A    between atoms: O_16  and  C_17
REMARK                            x       y       z     vdW  Elec       q    Type
REMARK                         _______ _______ _______ _____ _____    ______ ____
ROOT
ATOM      1  C   UNL     1       8.127   7.470  18.463  0.00  0.00    +0.000 A 
ATOM      2  C   UNL     1       8.174   6.262  19.167  0.00  0.00    +0.000 A 
ATOM      3  C   UNL     1       7.343   5.198  18.819  0.00  0.00    +0.000 A 
ATOM      4  C   UNL     1       6.444   5.338  17.769  0.00  0.00    +0.000 A 
ATOM      5  C   UNL     1       6.390   6.536  17.054  0.00  0.00    +0.000 A 
ATOM      6  C   UNL     1       7.225   7.602  17.405  0.00  0.00    +0.000 A 
ENDROOT
BRANCH   1   7
ATOM      7  O   UNL     1       8.917   8.566  18.721  0.00  0.00    +0.000 OA
BRANCH   7   8
ATOM      8  C   UNL     1       8.436   9.778  18.133  0.00  0.00    +0.000 C 
BRANCH   8   9
ATOM      9  C   UNL     1       9.439  10.924  18.297  0.00  0.00    +0.000 C 
BRANCH   9  17
ATOM     10  C   UNL     1       5.689  15.467  21.661  0.00  0.00    +0.000 C 
ATOM     11  C   UNL     1       6.323  14.240  22.263  0.00  0.00    +0.000 C 
ATOM     12  O   UNL     1       5.727  13.574  23.109  0.00  0.00    +0.000 OA
ATOM     13  N   UNL     1       7.572  13.898  21.796  0.00  0.00    +0.000 N 
ATOM     14  C   UNL     1       8.255  12.736  22.322  0.00  0.00    +0.000 C 
ATOM     15  C   UNL     1       9.580  12.625  21.570  0.00  0.00    +0.000 C 
ATOM     16  C   UNL     1       9.676  11.394  20.673  0.00  0.00    +0.000 C 
ATOM     17  N   UNL     1       9.071  11.820  19.411  0.00  0.00    +0.000 NA
ATOM     18  C   UNL     1       9.497  13.209  19.210  0.00  0.00    +0.000 C 
ATOM     19  C   UNL     1       9.621  13.819  20.606  0.00  0.00    +0.000 C 
ATOM     20  C   UNL     1       8.462  14.722  21.010  0.00  0.00    +0.000 C 
ENDBRANCH   9  17
ENDBRANCH   8   9
ENDBRANCH   7   8
ENDBRANCH   1   7
BRANCH   4  21
ATOM     21  O   UNL     1       5.707   4.220  17.458  0.00  0.00    +0.000 OA
BRANCH  21  22
ATOM     22  C   UNL     1       4.666   3.854  18.197  0.00  0.00    +0.000 A 
ATOM     23  N   UNL     1       4.782   3.264  19.365  0.00  0.00    +0.000 NA
ATOM     24  C   UNL     1       3.538   3.121  19.924  0.00  0.00    +0.000 A 
ATOM     25  N   UNL     1       3.381   2.613  21.172  0.00  0.00    +0.000 NA
ATOM     26  C   UNL     1       2.116   2.583  21.627  0.00  0.00    +0.000 A 
ATOM     27  C   UNL     1       1.000   3.012  20.925  0.00  0.00    +0.000 A 
ATOM     28  C   UNL     1       1.160   3.511  19.635  0.00  0.00    +0.000 A 
ATOM     29  C   UNL     1       2.466   3.563  19.144  0.00  0.00    +0.000 A 
ATOM     30  S   UNL     1       3.069   4.125  17.641  0.00  0.00    +0.000 S 
ENDBRANCH  21  22
ENDBRANCH   4  21
TORSDOF 6
ENDMDL
MODEL 6
REMARK VINA RESULT:      -8.1      7.547     11.015
REMARK  Name = 
REMARK  7 active torsions:
REMARK  status: ('A' for Active; 'I' for Inactive)
REMARK    1  A    between atoms: C_1  and  C_2
REMARK    2  A    between atoms: N_8  and  C_9
REMARK    3  A    between atoms: C_9  and  C_10
REMARK    4  A    between atoms: C_10  and  O_11
REMARK    5  A    between atoms: O_11  and  C_12
REMARK    6  A    between atoms: C_15  and  O_16
REMARK    7  A    between atoms: O_16  and  C_17
REMARK                            x       y       z     vdW  Elec       q    Type
REMARK                         _______ _______ _______ _____ _____    ______ ____
ROOT
ATOM      1  C   UNL     1       0.411   9.901  18.348  0.00  0.00    +0.000 A 
ATOM      2  C   UNL     1       0.955  10.699  19.360  0.00  0.00    +0.000 A 
ATOM      3  C   UNL     1       0.248  11.788  19.870  0.00  0.00    +0.000 A 
ATOM      4  C   UNL     1      -1.007  12.095  19.362  0.00  0.00    +0.000 A 
ATOM      5  C   UNL     1      -1.565  11.303  18.356  0.00  0.00    +0.000 A 
ATOM      6  C   UNL     1      -0.854  10.212  17.845  0.00  0.00    +0.000 A 
ENDROOT
BRANCH   1   7
ATOM      7  O   UNL     1       1.024   8.800  17.795  0.00  0.00    +0.000 OA
BRANCH   7   8
ATOM      8  C   UNL     1       2.300   8.499  18.367  0.00  0.00    +0.000 C 
BRANCH   8   9
ATOM      9  C   UNL     1       2.270   7.189  19.161  0.00  0.00    +0.000 C 
BRANCH   9  17
ATOM     10  C   UNL     1       6.126   4.214  14.439  0.00  0.00    +0.000 C 
ATOM     11  C   UNL     1       6.527   4.454  15.871  0.00  0.00    +0.000 C 
ATOM     12  O   UNL     1       7.675   4.801  16.153  0.00  0.00    +0.000 OA
ATOM     13  N   UNL     1       5.545   4.296  16.823  0.00  0.00    +0.000 N 
ATOM     14  C   UNL     1       5.846   4.502  18.223  0.00  0.00    +0.000 C 
ATOM     15  C   UNL     1       4.543   4.286  18.990  0.00  0.00    +0.000 C 
ATOM     16  C   UNL     1       4.001   5.550  19.651  0.00  0.00    +0.000 C 
ATOM     17  N   UNL     1       3.202   6.189  18.605  0.00  0.00    +0.000 NA
ATOM     18  C   UNL     1       2.531   5.099  17.889  0.00  0.00    +0.000 C 
ATOM     19  C   UNL     1       3.490   3.909  17.938  0.00  0.00    +0.000 C 
ATOM     20  C   UNL     1       4.260   3.659  16.647  0.00  0.00    +0.000 C 
ENDBRANCH   9  17
ENDBRANCH   8   9
ENDBRANCH   7   8
ENDBRANCH   1   7
BRANCH   4  21
ATOM     21  O   UNL     1      -1.657  13.146  19.964  0.00  0.00    +0.000 OA
BRANCH  21  22
ATOM     22  C   UNL     1      -2.631  12.941  20.843  0.00  0.00    +0.000 A 
ATOM     23  N   UNL     1      -2.418  12.559  22.082  0.00  0.00    +0.000 NA
ATOM     24  C   UNL     1      -3.608  12.548  22.762  0.00  0.00    +0.000 A 
ATOM     25  N   UNL     1      -3.658  12.268  24.090  0.00  0.00    +0.000 NA
ATOM     26  C   UNL     1      -4.878  12.350  24.650  0.00  0.00    +0.000 A 
ATOM     27  C   UNL     1      -6.048  12.680  23.981  0.00  0.00    +0.000 A 
ATOM     28  C   UNL     1      -5.999  12.944  22.616  0.00  0.00    +0.000 A 
ATOM     29  C   UNL     1      -4.741  12.876  22.013  0.00  0.00    +0.000 A 
ATOM     30  S   UNL     1      -4.268  13.153  20.388  0.00  0.00    +0.000 S 
ENDBRANCH  21  22
ENDBRANCH   4  21
TORSDOF 6
ENDMDL
MODEL 7
REMARK VINA RESULT:      -8.0      2.447      2.675
REMARK  Name = 
REMARK  7 active torsions:
REMARK  status: ('A' for Active; 'I' for Inactive)
REMARK    1  A    between atoms: C_1  and  C_2
REMARK    2  A    between atoms: N_8  and  C_9
REMARK    3  A    between atoms: C_9  and  C_10
REMARK    4  A    between atoms: C_10  and  O_11
REMARK    5  A    between atoms: O_11  and  C_12
REMARK    6  A    between atoms: C_15  and  O_16
REMARK    7  A    between atoms: O_16  and  C_17
REMARK                            x       y       z     vdW  Elec       q    Type
REMARK                         _______ _______ _______ _____ _____    ______ ____
ROOT
ATOM      1  C   UNL     1       7.979   8.072  18.025  0.00  0.00    +0.000 A 
ATOM      2  C   UNL     1       8.335   7.084  18.949  0.00  0.00    +0.000 A 
ATOM      3  C   UNL     1       7.731   5.827  18.920  0.00  0.00    +0.000 A 
ATOM      4  C   UNL     1       6.754   5.552  17.972  0.00  0.00    +0.000 A 
ATOM      5  C   UNL     1       6.393   6.527  17.040  0.00  0.00    +0.000 A 
ATOM      6  C   UNL     1       6.999   7.787  17.071  0.00  0.00    +0.000 A 
ENDROOT
BRANCH   1   7
ATOM      7  O   UNL     1       8.529   9.332  17.965  0.00  0.00    +0.000 OA
BRANCH   7   8
ATOM      8  C   UNL     1       8.958   9.838  19.232  0.00  0.00    +0.000 C 
BRANCH   8   9
ATOM      9  C   UNL     1      10.096  10.853  19.080  0.00  0.00    +0.000 C 
BRANCH   9  17
ATOM     10  C   UNL     1       5.472  15.810  19.339  0.00  0.00    +0.000 C 
ATOM     11  C   UNL     1       6.776  15.791  20.094  0.00  0.00    +0.000 C 
ATOM     12  O   UNL     1       6.839  16.205  21.251  0.00  0.00    +0.000 OA
ATOM     13  N   UNL     1       7.863  15.264  19.434  0.00  0.00    +0.000 N 
ATOM     14  C   UNL     1       9.155  15.212  20.083  0.00  0.00    +0.000 C 
ATOM     15  C   UNL     1      10.116  14.544  19.101  0.00  0.00    +0.000 C 
ATOM     16  C   UNL     1      10.619  13.180  19.564  0.00  0.00    +0.000 C 
ATOM     17  N   UNL     1       9.597  12.242  19.100  0.00  0.00    +0.000 NA
ATOM     18  C   UNL     1       9.172  12.729  17.783  0.00  0.00    +0.000 C 
ATOM     19  C   UNL     1       9.293  14.252  17.838  0.00  0.00    +0.000 C 
ATOM     20  C   UNL     1       7.972  14.989  18.019  0.00  0.00    +0.000 C 
ENDBRANCH   9  17
ENDBRANCH   8   9
ENDBRANCH   7   8
ENDBRANCH   1   7
BRANCH   4  21
ATOM     21  O   UNL     1       6.256   4.270  17.979  0.00  0.00    +0.000 OA
BRANCH  21  22
ATOM     22  C   UNL     1       5.098   3.985  18.563  0.00  0.00    +0.000 A 
ATOM     23  N   UNL     1       4.990   3.189  19.603  0.00  0.00    +0.000 NA
ATOM     24  C   UNL     1       3.690   3.189  20.039  0.00  0.00    +0.000 A 
ATOM     25  N   UNL     1       3.322   2.510  21.154  0.00  0.00    +0.000 NA
ATOM     26  C   UNL     1       2.031   2.641  21.509  0.00  0.00    +0.000 A 
ATOM     27  C   UNL     1       1.083   3.390  20.826  0.00  0.00    +0.000 A 
ATOM     28  C   UNL     1       1.458   4.067  19.669  0.00  0.00    +0.000 A 
ATOM     29  C   UNL     1       2.796   3.955  19.286  0.00  0.00    +0.000 A 
ATOM     30  S   UNL     1       3.637   4.646  17.961  0.00  0.00    +0.000 S 
ENDBRANCH  21  22
ENDBRANCH   4  21
TORSDOF 6
ENDMDL
MODEL 8
REMARK VINA RESULT:      -8.0      1.339      1.588
REMARK  Name = 
REMARK  7 active torsions:
REMARK  status: ('A' for Active; 'I' for Inactive)
REMARK    1  A    between atoms: C_1  and  C_2
REMARK    2  A    between atoms: N_8  and  C_9
REMARK    3  A    between atoms: C_9  and  C_10
REMARK    4  A    between atoms: C_10  and  O_11
REMARK    5  A    between atoms: O_11  and  C_12
REMARK    6  A    between atoms: C_15  and  O_16
REMARK    7  A    between atoms: O_16  and  C_17
REMARK                            x       y       z     vdW  Elec       q    Type
REMARK                         _______ _______ _______ _____ _____    ______ ____
ROOT
ATOM      1  C   UNL     1       8.209   7.847  18.446  0.00  0.00    +0.000 A 
ATOM      2  C   UNL     1       7.325   7.978  17.369  0.00  0.00    +0.000 A 
ATOM      3  C   UNL     1       6.558   6.896  16.938  0.00  0.00    +0.000 A 
ATOM      4  C   UNL     1       6.678   5.667  17.574  0.00  0.00    +0.000 A 
ATOM      5  C   UNL     1       7.551   5.524  18.654  0.00  0.00    +0.000 A 
ATOM      6  C   UNL     1       8.321   6.610  19.084  0.00  0.00    +0.000 A 
ENDROOT
BRANCH   1   7
ATOM      7  O   UNL     1       8.993   8.858  18.951  0.00  0.00    +0.000 OA
BRANCH   7   8
ATOM      8  C   UNL     1       8.691  10.149  18.413  0.00  0.00    +0.000 C 
BRANCH   8   9
ATOM      9  C   UNL     1       9.951  10.863  17.912  0.00  0.00    +0.000 C 
BRANCH   9  17
ATOM     10  C   UNL     1      10.866  17.566  17.416  0.00  0.00    +0.000 C 
ATOM     11  C   UNL     1       9.748  16.890  18.166  0.00  0.00    +0.000 C 
ATOM     12  O   UNL     1       8.606  17.351  18.145  0.00  0.00    +0.000 OA
ATOM     13  N   UNL     1      10.066  15.731  18.837  0.00  0.00    +0.000 N 
ATOM     14  C   UNL     1       9.054  15.020  19.587  0.00  0.00    +0.000 C 
ATOM     15  C   UNL     1       9.726  13.776  20.167  0.00  0.00    +0.000 C 
ATOM     16  C   UNL     1       9.204  12.467  19.583  0.00  0.00    +0.000 C 
ATOM     17  N   UNL     1      10.012  12.261  18.380  0.00  0.00    +0.000 NA
ATOM     18  C   UNL     1      11.366  12.704  18.725  0.00  0.00    +0.000 C 
ATOM     19  C   UNL     1      11.195  13.846  19.726  0.00  0.00    +0.000 C 
ATOM     20  C   UNL     1      11.391  15.239  19.141  0.00  0.00    +0.000 C 
ENDBRANCH   9  17
ENDBRANCH   8   9
ENDBRANCH   7   8
ENDBRANCH   1   7
BRANCH   4  21
ATOM     21  O   UNL     1       5.841   4.674  17.123  0.00  0.00    +0.000 OA
BRANCH  21  22
ATOM     22  C   UNL     1       4.675   4.436  17.714  0.00  0.00    +0.000 A 
ATOM     23  N   UNL     1       3.789   3.586  17.247  0.00  0.00    +0.000 NA
ATOM     24  C   UNL     1       2.751   3.481  18.137  0.00  0.00    +0.000 A 
ATOM     25  N   UNL     1       1.736   2.603  17.934  0.00  0.00    +0.000 NA
ATOM     26  C   UNL     1       0.813   2.554  18.911  0.00  0.00    +0.000 A 
ATOM     27  C   UNL     1       0.825   3.322  20.066  0.00  0.00    +0.000 A 
ATOM     28  C   UNL     1       1.854   4.239  20.261  0.00  0.00    +0.000 A 
ATOM     29  C   UNL     1       2.831   4.301  19.265  0.00  0.00    +0.000 A 
ATOM     30  S   UNL     1       4.246   5.264  19.150  0.00  0.00    +0.000 S 
ENDBRANCH  21  22
ENDBRANCH   4  21
TORSDOF 6
ENDMDL
MODEL 9
REMARK VINA RESULT:      -8.0      7.098     10.524
REMARK  Name = 
REMARK  7 active torsions:
REMARK  status: ('A' for Active; 'I' for Inactive)
REMARK    1  A    between atoms: C_1  and  C_2
REMARK    2  A    between atoms: N_8  and  C_9
REMARK    3  A    between atoms: C_9  and  C_10
REMARK    4  A    between atoms: C_10  and  O_11
REMARK    5  A    between atoms: O_11  and  C_12
REMARK    6  A    between atoms: C_15  and  O_16
REMARK    7  A    between atoms: O_16  and  C_17
REMARK                            x       y       z     vdW  Elec       q    Type
REMARK                         _______ _______ _______ _____ _____    ______ ____
ROOT
ATOM      1  C   UNL     1       1.003   9.119  20.177  0.00  0.00    +0.000 A 
ATOM      2  C   UNL     1       0.143   9.598  21.171  0.00  0.00    +0.000 A 
ATOM      3  C   UNL     1      -0.614  10.751  20.967  0.00  0.00    +0.000 A 
ATOM      4  C   UNL     1      -0.506  11.445  19.768  0.00  0.00    +0.000 A 
ATOM      5  C   UNL     1       0.344  10.975  18.765  0.00  0.00    +0.000 A 
ATOM      6  C   UNL     1       1.103   9.819  18.972  0.00  0.00    +0.000 A 
ENDROOT
BRANCH   1   7
ATOM      7  O   UNL     1       1.775   7.985  20.280  0.00  0.00    +0.000 OA
BRANCH   7   8
ATOM      8  C   UNL     1       2.389   7.588  19.050  0.00  0.00    +0.000 C 
BRANCH   8   9
ATOM      9  C   UNL     1       2.197   6.093  18.778  0.00  0.00    +0.000 C 
BRANCH   9  17
ATOM     10  C   UNL     1       6.399   4.219  13.793  0.00  0.00    +0.000 C 
ATOM     11  C   UNL     1       6.816   4.840  15.100  0.00  0.00    +0.000 C 
ATOM     12  O   UNL     1       7.725   5.669  15.142  0.00  0.00    +0.000 OA
ATOM     13  N   UNL     1       6.113   4.455  16.220  0.00  0.00    +0.000 N 
ATOM     14  C   UNL     1       6.451   4.998  17.517  0.00  0.00    +0.000 C 
ATOM     15  C   UNL     1       5.465   4.398  18.517  0.00  0.00    +0.000 C 
ATOM     16  C   UNL     1       4.509   5.419  19.127  0.00  0.00    +0.000 C 
ATOM     17  N   UNL     1       3.400   5.487  18.175  0.00  0.00    +0.000 NA
ATOM     18  C   UNL     1       3.190   4.114  17.704  0.00  0.00    +0.000 C 
ATOM     19  C   UNL     1       4.567   3.451  17.709  0.00  0.00    +0.000 C 
ATOM     20  C   UNL     1       5.218   3.326  16.337  0.00  0.00    +0.000 C 
ENDBRANCH   9  17
ENDBRANCH   8   9
ENDBRANCH   7   8
ENDBRANCH   1   7
BRANCH   4  21
ATOM     21  O   UNL     1      -1.333  12.535  19.630  0.00  0.00    +0.000 OA
BRANCH  21  22
ATOM     22  C   UNL     1      -2.650  12.393  19.537  0.00  0.00    +0.000 A 
ATOM     23  N   UNL     1      -3.240  11.755  18.552  0.00  0.00    +0.000 NA
ATOM     24  C   UNL     1      -4.586  11.682  18.803  0.00  0.00    +0.000 A 
ATOM     25  N   UNL     1      -5.420  11.000  17.978  0.00  0.00    +0.000 NA
ATOM     26  C   UNL     1      -6.707  10.954  18.370  0.00  0.00    +0.000 A 
ATOM     27  C   UNL     1      -7.219  11.546  19.514  0.00  0.00    +0.000 A 
ATOM     28  C   UNL     1      -6.367  12.266  20.346  0.00  0.00    +0.000 A 
ATOM     29  C   UNL     1      -5.023  12.319  19.967  0.00  0.00    +0.000 A 
ATOM     30  S   UNL     1      -3.681  13.069  20.726  0.00  0.00    +0.000 S 
ENDBRANCH  21  22
ENDBRANCH   4  21
TORSDOF 6
ENDMDL
