MODEL 1
REMARK VINA RESULT:      -7.0      0.000      0.000
REMARK  Name = 
REMARK  8 active torsions:
REMARK  status: ('A' for Active; 'I' for Inactive)
REMARK    1  A    between atoms: C_1  and  C_2
REMARK    2  A    between atoms: C_2  and  N_3
REMARK    3  A    between atoms: C_9  and  C_10
REMARK    4  A    between atoms: C_13  and  O_14
REMARK    5  A    between atoms: O_14  and  C_15
REMARK    6  A    between atoms: N_20  and  C_21
REMARK    7  A    between atoms: C_21  and  C_22
REMARK    8  A    between atoms: C_22  and  C_23
REMARK                            x       y       z     vdW  Elec       q    Type
REMARK                         _______ _______ _______ _____ _____    ______ ____
ROOT
ATOM      1  N   UNL     1       5.823   3.946  14.829  0.00  0.00    +0.000 N 
ATOM      2  C   UNL     1       5.217   4.884  15.652  0.00  0.00    +0.000 A 
ATOM      3  N   UNL     1       5.414   6.190  15.430  0.00  0.00    +0.000 NA
ATOM      4  C   UNL     1       4.751   7.056  16.220  0.00  0.00    +0.000 A 
ATOM      5  C   UNL     1       3.892   6.678  17.225  0.00  0.00    +0.000 A 
ATOM      6  N   UNL     1       3.237   7.644  18.007  0.00  0.00    +0.000 NA
ATOM      7  C   UNL     1       2.454   7.227  18.963  0.00  0.00    +0.000 A 
ATOM      8  C   UNL     1       2.201   5.727  19.206  0.00  0.00    +0.000 A 
ATOM      9  O   UNL     1       1.405   5.364  20.065  0.00  0.00    +0.000 OA
ATOM     10  N   UNL     1       2.913   4.832  18.417  0.00  0.00    +0.000 N 
ATOM     11  C   UNL     1       3.776   5.306  17.395  0.00  0.00    +0.000 A 
ATOM     12  N   UNL     1       4.438   4.404  16.634  0.00  0.00    +0.000 NA
ATOM     13  H   UNL     1       5.812   3.054  15.308  0.00  0.00    +0.000 HD
ENDROOT
BRANCH   7  14
ATOM     14  C   UNL     1       1.802   8.225  19.856  0.00  0.00    +0.000 A 
ATOM     15  C   UNL     1       1.163   9.347  19.316  0.00  0.00    +0.000 A 
ATOM     16  C   UNL     1       0.570  10.289  20.166  0.00  0.00    +0.000 A 
ATOM     17  C   UNL     1       0.601  10.117  21.553  0.00  0.00    +0.000 A 
ATOM     18  C   UNL     1       1.263   9.017  22.091  0.00  0.00    +0.000 A 
ATOM     19  C   UNL     1       1.869   8.082  21.248  0.00  0.00    +0.000 A 
BRANCH  17  20
ATOM     20  O   UNL     1       0.007  11.106  22.285  0.00  0.00    +0.000 OA
ATOM     21  C   UNL     1      -1.282  10.792  22.806  0.00  0.00    +0.000 C 
ENDBRANCH  17  20
ENDBRANCH   7  14
BRANCH   1  23
ATOM     22  C   UNL     1       7.028   4.294  12.739  0.00  0.00    +0.000 C 
ATOM     23  C   UNL     1       7.093   4.360  14.257  0.00  0.00    +0.000 C 
ENDBRANCH   1  23
BRANCH  10  24
ATOM     24  C   UNL     1       2.759   3.391  18.647  0.00  0.00    +0.000 C 
BRANCH  24  25
ATOM     25  C   UNL     1       3.712   2.867  19.723  0.00  0.00    +0.000 C 
BRANCH  25  26
ATOM     26  C   UNL     1       3.019   2.669  21.062  0.00  0.00    +0.000 C 
ATOM     27  N   UNL     1       2.443   2.506  22.172  0.00  0.00    +0.000 NA
ENDBRANCH  25  26
ENDBRANCH  24  25
ENDBRANCH  10  24
TORSDOF 6
ENDMDL
MODEL 2
REMARK VINA RESULT:      -6.9      0.992      1.104
REMARK  Name = 
REMARK  8 active torsions:
REMARK  status: ('A' for Active; 'I' for Inactive)
REMARK    1  A    between atoms: C_1  and  C_2
REMARK    2  A    between atoms: C_2  and  N_3
REMARK    3  A    between atoms: C_9  and  C_10
REMARK    4  A    between atoms: C_13  and  O_14
REMARK    5  A    between atoms: O_14  and  C_15
REMARK    6  A    between atoms: N_20  and  C_21
REMARK    7  A    between atoms: C_21  and  C_22
REMARK    8  A    between atoms: C_22  and  C_23
REMARK                            x       y       z     vdW  Elec       q    Type
REMARK                         _______ _______ _______ _____ _____    ______ ____
ROOT
ATOM      1  N   UNL     1       6.230   4.094  15.103  0.00  0.00    +0.000 N 
ATOM      2  C   UNL     1       5.487   5.012  15.831  0.00  0.00    +0.000 A 
ATOM      3  N   UNL     1       5.367   6.270  15.387  0.00  0.00    +0.000 NA
ATOM      4  C   UNL     1       4.582   7.102  16.100  0.00  0.00    +0.000 A 
ATOM      5  C   UNL     1       3.905   6.733  17.239  0.00  0.00    +0.000 A 
ATOM      6  N   UNL     1       3.106   7.662  17.926  0.00  0.00    +0.000 NA
ATOM      7  C   UNL     1       2.508   7.263  19.015  0.00  0.00    +0.000 A 
ATOM      8  C   UNL     1       2.619   5.811  19.515  0.00  0.00    +0.000 A 
ATOM      9  O   UNL     1       1.989   5.445  20.501  0.00  0.00    +0.000 OA
ATOM     10  N   UNL     1       3.458   4.962  18.803  0.00  0.00    +0.000 N 
ATOM     11  C   UNL     1       4.116   5.420  17.633  0.00  0.00    +0.000 A 
ATOM     12  N   UNL     1       4.909   4.559  16.954  0.00  0.00    +0.000 NA
ATOM     13  H   UNL     1       6.456   3.318  15.714  0.00  0.00    +0.000 HD
ENDROOT
BRANCH   7  14
ATOM     14  C   UNL     1       1.712   8.243  19.807  0.00  0.00    +0.000 A 
ATOM     15  C   UNL     1       1.161   9.371  19.189  0.00  0.00    +0.000 A 
ATOM     16  C   UNL     1       0.431  10.295  19.947  0.00  0.00    +0.000 A 
ATOM     17  C   UNL     1       0.237  10.099  21.317  0.00  0.00    +0.000 A 
ATOM     18  C   UNL     1       0.811   8.992  21.938  0.00  0.00    +0.000 A 
ATOM     19  C   UNL     1       1.553   8.076  21.188  0.00  0.00    +0.000 A 
BRANCH  17  20
ATOM     20  O   UNL     1      -0.476  11.071  21.959  0.00  0.00    +0.000 OA
ATOM     21  C   UNL     1      -1.103  10.671  23.175  0.00  0.00    +0.000 C 
ENDBRANCH  17  20
ENDBRANCH   7  14
BRANCH   1  23
ATOM     22  C   UNL     1       7.151   4.351  12.861  0.00  0.00    +0.000 C 
ATOM     23  C   UNL     1       7.329   4.659  14.340  0.00  0.00    +0.000 C 
ENDBRANCH   1  23
BRANCH  10  24
ATOM     24  C   UNL     1       3.650   3.585  19.270  0.00  0.00    +0.000 C 
BRANCH  24  25
ATOM     25  C   UNL     1       3.033   2.556  18.321  0.00  0.00    +0.000 C 
BRANCH  25  26
ATOM     26  C   UNL     1       1.551   2.341  18.588  0.00  0.00    +0.000 C 
ATOM     27  N   UNL     1       0.322   2.163  18.808  0.00  0.00    +0.000 NA
ENDBRANCH  25  26
ENDBRANCH  24  25
ENDBRANCH  10  24
TORSDOF 6
ENDMDL
MODEL 3
REMARK VINA RESULT:      -6.9      2.667      7.606
REMARK  Name = 
REMARK  8 active torsions:
REMARK  status: ('A' for Active; 'I' for Inactive)
REMARK    1  A    between atoms: C_1  and  C_2
REMARK    2  A    between atoms: C_2  and  N_3
REMARK    3  A    between atoms: C_9  and  C_10
REMARK    4  A    between atoms: C_13  and  O_14
REMARK    5  A    between atoms: O_14  and  C_15
REMARK    6  A    between atoms: N_20  and  C_21
REMARK    7  A    between atoms: C_21  and  C_22
REMARK    8  A    between atoms: C_22  and  C_23
REMARK                            x       y       z     vdW  Elec       q    Type
REMARK                         _______ _______ _______ _____ _____    ______ ____
ROOT
ATOM      1  N   UNL     1       0.335   8.568  21.859  0.00  0.00    +0.000 N 
ATOM      2  C   UNL     1       1.113   8.154  20.787  0.00  0.00    +0.000 A 
ATOM      3  N   UNL     1       1.384   9.010  19.793  0.00  0.00    +0.000 NA
ATOM      4  C   UNL     1       2.196   8.574  18.810  0.00  0.00    +0.000 A 
ATOM      5  C   UNL     1       2.757   7.319  18.775  0.00  0.00    +0.000 A 
ATOM      6  N   UNL     1       3.594   6.941  17.713  0.00  0.00    +0.000 NA
ATOM      7  C   UNL     1       4.078   5.729  17.719  0.00  0.00    +0.000 A 
ATOM      8  C   UNL     1       3.794   4.750  18.874  0.00  0.00    +0.000 A 
ATOM      9  O   UNL     1       4.318   3.642  18.890  0.00  0.00    +0.000 OA
ATOM     10  N   UNL     1       2.926   5.184  19.869  0.00  0.00    +0.000 N 
ATOM     11  C   UNL     1       2.395   6.499  19.833  0.00  0.00    +0.000 A 
ATOM     12  N   UNL     1       1.569   6.893  20.830  0.00  0.00    +0.000 NA
ATOM     13  H   UNL     1      -0.004   7.743  22.338  0.00  0.00    +0.000 HD
ENDROOT
BRANCH   7  14
ATOM     14  C   UNL     1       4.910   5.273  16.571  0.00  0.00    +0.000 A 
ATOM     15  C   UNL     1       6.182   5.817  16.359  0.00  0.00    +0.000 A 
ATOM     16  C   UNL     1       6.948   5.394  15.265  0.00  0.00    +0.000 A 
ATOM     17  C   UNL     1       6.459   4.425  14.385  0.00  0.00    +0.000 A 
ATOM     18  C   UNL     1       5.182   3.906  14.578  0.00  0.00    +0.000 A 
ATOM     19  C   UNL     1       4.408   4.336  15.659  0.00  0.00    +0.000 A 
BRANCH  17  20
ATOM     20  O   UNL     1       7.284   4.101  13.344  0.00  0.00    +0.000 OA
ATOM     21  C   UNL     1       6.638   3.561  12.195  0.00  0.00    +0.000 C 
ENDBRANCH  17  20
ENDBRANCH   7  14
BRANCH   1  23
ATOM     22  C   UNL     1      -0.788  10.558  22.708  0.00  0.00    +0.000 C 
ATOM     23  C   UNL     1      -0.651   9.587  21.545  0.00  0.00    +0.000 C 
ENDBRANCH   1  23
BRANCH  10  24
ATOM     24  C   UNL     1       2.571   4.270  20.961  0.00  0.00    +0.000 C 
BRANCH  24  25
ATOM     25  C   UNL     1       1.157   3.705  20.810  0.00  0.00    +0.000 C 
BRANCH  25  26
ATOM     26  C   UNL     1       0.983   2.921  19.519  0.00  0.00    +0.000 C 
ATOM     27  N   UNL     1       0.840   2.270  18.449  0.00  0.00    +0.000 NA
ENDBRANCH  25  26
ENDBRANCH  24  25
ENDBRANCH  10  24
TORSDOF 6
ENDMDL
MODEL 4
REMARK VINA RESULT:      -6.8      0.698      1.200
REMARK  Name = 
REMARK  8 active torsions:
REMARK  status: ('A' for Active; 'I' for Inactive)
REMARK    1  A    between atoms: C_1  and  C_2
REMARK    2  A    between atoms: C_2  and  N_3
REMARK    3  A    between atoms: C_9  and  C_10
REMARK    4  A    between atoms: C_13  and  O_14
REMARK    5  A    between atoms: O_14  and  C_15
REMARK    6  A    between atoms: N_20  and  C_21
REMARK    7  A    between atoms: C_21  and  C_22
REMARK    8  A    between atoms: C_22  and  C_23
REMARK                            x       y       z     vdW  Elec       q    Type
REMARK                         _______ _______ _______ _____ _____    ______ ____
ROOT
ATOM      1  N   UNL     1       5.959   4.070  15.412  0.00  0.00    +0.000 N 
ATOM      2  C   UNL     1       5.254   5.052  16.094  0.00  0.00    +0.000 A 
ATOM      3  N   UNL     1       5.198   6.294  15.599  0.00  0.00    +0.000 NA
ATOM      4  C   UNL     1       4.448   7.191  16.268  0.00  0.00    +0.000 A 
ATOM      5  C   UNL     1       3.743   6.902  17.413  0.00  0.00    +0.000 A 
ATOM      6  N   UNL     1       2.983   7.894  18.054  0.00  0.00    +0.000 NA
ATOM      7  C   UNL     1       2.355   7.569  19.151  0.00  0.00    +0.000 A 
ATOM      8  C   UNL     1       2.392   6.135  19.710  0.00  0.00    +0.000 A 
ATOM      9  O   UNL     1       1.736   5.840  20.703  0.00  0.00    +0.000 OA
ATOM     10  N   UNL     1       3.196   5.219  19.042  0.00  0.00    +0.000 N 
ATOM     11  C   UNL     1       3.887   5.597  17.862  0.00  0.00    +0.000 A 
ATOM     12  N   UNL     1       4.644   4.673  17.228  0.00  0.00    +0.000 NA
ATOM     13  H   UNL     1       6.141   3.310  16.056  0.00  0.00    +0.000 HD
ENDROOT
BRANCH   7  14
ATOM     14  C   UNL     1       1.600   8.617  19.894  0.00  0.00    +0.000 A 
ATOM     15  C   UNL     1       1.473   8.544  21.286  0.00  0.00    +0.000 A 
ATOM     16  C   UNL     1       0.744   9.524  21.971  0.00  0.00    +0.000 A 
ATOM     17  C   UNL     1       0.147  10.582  21.281  0.00  0.00    +0.000 A 
ATOM     18  C   UNL     1       0.247  10.638  19.893  0.00  0.00    +0.000 A 
ATOM     19  C   UNL     1       0.961   9.654  19.203  0.00  0.00    +0.000 A 
BRANCH  17  20
ATOM     20  O   UNL     1      -0.553  11.470  22.049  0.00  0.00    +0.000 OA
ATOM     21  C   UNL     1      -1.273  10.902  23.140  0.00  0.00    +0.000 C 
ENDBRANCH  17  20
ENDBRANCH   7  14
BRANCH   1  23
ATOM     22  C   UNL     1       6.886   4.240  13.164  0.00  0.00    +0.000 C 
ATOM     23  C   UNL     1       7.091   4.551  14.639  0.00  0.00    +0.000 C 
ENDBRANCH   1  23
BRANCH  10  24
ATOM     24  C   UNL     1       3.318   3.854  19.567  0.00  0.00    +0.000 C 
BRANCH  24  25
ATOM     25  C   UNL     1       1.968   3.139  19.649  0.00  0.00    +0.000 C 
BRANCH  25  26
ATOM     26  C   UNL     1       1.666   2.637  21.053  0.00  0.00    +0.000 C 
ATOM     27  N   UNL     1       1.414   2.219  22.216  0.00  0.00    +0.000 NA
ENDBRANCH  25  26
ENDBRANCH  24  25
ENDBRANCH  10  24
TORSDOF 6
ENDMDL
MODEL 5
REMARK VINA RESULT:      -6.7      1.045      1.488
REMARK  Name = 
REMARK  8 active torsions:
REMARK  status: ('A' for Active; 'I' for Inactive)
REMARK    1  A    between atoms: C_1  and  C_2
REMARK    2  A    between atoms: C_2  and  N_3
REMARK    3  A    between atoms: C_9  and  C_10
REMARK    4  A    between atoms: C_13  and  O_14
REMARK    5  A    between atoms: O_14  and  C_15
REMARK    6  A    between atoms: N_20  and  C_21
REMARK    7  A    between atoms: C_21  and  C_22
REMARK    8  A    between atoms: C_22  and  C_23
REMARK                            x       y       z     vdW  Elec       q    Type
REMARK                         _______ _______ _______ _____ _____    ______ ____
ROOT
ATOM      1  N   UNL     1       6.231   4.130  15.081  0.00  0.00    +0.000 N 
ATOM      2  C   UNL     1       5.493   5.038  15.828  0.00  0.00    +0.000 A 
ATOM      3  N   UNL     1       5.378   6.304  15.407  0.00  0.00    +0.000 NA
ATOM      4  C   UNL     1       4.598   7.127  16.137  0.00  0.00    +0.000 A 
ATOM      5  C   UNL     1       3.921   6.740  17.270  0.00  0.00    +0.000 A 
ATOM      6  N   UNL     1       3.127   7.659  17.976  0.00  0.00    +0.000 NA
ATOM      7  C   UNL     1       2.529   7.243  19.058  0.00  0.00    +0.000 A 
ATOM      8  C   UNL     1       2.634   5.781  19.531  0.00  0.00    +0.000 A 
ATOM      9  O   UNL     1       2.004   5.399  20.510  0.00  0.00    +0.000 OA
ATOM     10  N   UNL     1       3.468   4.941  18.801  0.00  0.00    +0.000 N 
ATOM     11  C   UNL     1       4.126   5.419  17.639  0.00  0.00    +0.000 A 
ATOM     12  N   UNL     1       4.914   4.567  16.943  0.00  0.00    +0.000 NA
ATOM     13  H   UNL     1       6.453   3.342  15.677  0.00  0.00    +0.000 HD
ENDROOT
BRANCH   7  14
ATOM     14  C   UNL     1       1.739   8.211  19.869  0.00  0.00    +0.000 A 
ATOM     15  C   UNL     1       1.553   7.998  21.240  0.00  0.00    +0.000 A 
ATOM     16  C   UNL     1       0.792   8.905  21.989  0.00  0.00    +0.000 A 
ATOM     17  C   UNL     1       0.221  10.028  21.384  0.00  0.00    +0.000 A 
ATOM     18  C   UNL     1       0.380  10.223  20.014  0.00  0.00    +0.000 A 
ATOM     19  C   UNL     1       1.126   9.313  19.260  0.00  0.00    +0.000 A 
BRANCH  17  20
ATOM     20  O   UNL     1      -0.514  10.834  22.206  0.00  0.00    +0.000 OA
ATOM     21  C   UNL     1      -0.751  12.153  21.721  0.00  0.00    +0.000 C 
ENDBRANCH  17  20
ENDBRANCH   7  14
BRANCH   1  23
ATOM     22  C   UNL     1       7.102   4.506  12.836  0.00  0.00    +0.000 C 
ATOM     23  C   UNL     1       7.331   4.704  14.327  0.00  0.00    +0.000 C 
ENDBRANCH   1  23
BRANCH  10  24
ATOM     24  C   UNL     1       3.655   3.555  19.242  0.00  0.00    +0.000 C 
BRANCH  24  25
ATOM     25  C   UNL     1       2.942   2.553  18.332  0.00  0.00    +0.000 C 
BRANCH  25  26
ATOM     26  C   UNL     1       1.460   2.433  18.654  0.00  0.00    +0.000 C 
ATOM     27  N   UNL     1       0.232   2.335  18.919  0.00  0.00    +0.000 NA
ENDBRANCH  25  26
ENDBRANCH  24  25
ENDBRANCH  10  24
TORSDOF 6
ENDMDL
MODEL 6
REMARK VINA RESULT:      -6.6      1.907      2.609
REMARK  Name = 
REMARK  8 active torsions:
REMARK  status: ('A' for Active; 'I' for Inactive)
REMARK    1  A    between atoms: C_1  and  C_2
REMARK    2  A    between atoms: C_2  and  N_3
REMARK    3  A    between atoms: C_9  and  C_10
REMARK    4  A    between atoms: C_13  and  O_14
REMARK    5  A    between atoms: O_14  and  C_15
REMARK    6  A    between atoms: N_20  and  C_21
REMARK    7  A    between atoms: C_21  and  C_22
REMARK    8  A    between atoms: C_22  and  C_23
REMARK                            x       y       z     vdW  Elec       q    Type
REMARK                         _______ _______ _______ _____ _____    ______ ____
ROOT
ATOM      1  N   UNL     1       5.381   4.100  17.274  0.00  0.00    +0.000 N 
ATOM      2  C   UNL     1       4.651   5.245  17.561  0.00  0.00    +0.000 A 
ATOM      3  N   UNL     1       4.738   6.308  16.751  0.00  0.00    +0.000 NA
ATOM      4  C   UNL     1       3.961   7.369  17.042  0.00  0.00    +0.000 A 
ATOM      5  C   UNL     1       3.092   7.417  18.107  0.00  0.00    +0.000 A 
ATOM      6  N   UNL     1       2.314   8.563  18.343  0.00  0.00    +0.000 NA
ATOM      7  C   UNL     1       1.527   8.562  19.383  0.00  0.00    +0.000 A 
ATOM      8  C   UNL     1       1.401   7.332  20.302  0.00  0.00    +0.000 A 
ATOM      9  O   UNL     1       0.600   7.332  21.231  0.00  0.00    +0.000 OA
ATOM     10  N   UNL     1       2.230   6.251  20.026  0.00  0.00    +0.000 N 
ATOM     11  C   UNL     1       3.094   6.280  18.901  0.00  0.00    +0.000 A 
ATOM     12  N   UNL     1       3.872   5.202  18.653  0.00  0.00    +0.000 NA
ATOM     13  H   UNL     1       5.428   3.540  18.117  0.00  0.00    +0.000 HD
ENDROOT
BRANCH   7  14
ATOM     14  C   UNL     1       0.743   9.788  19.703  0.00  0.00    +0.000 A 
ATOM     15  C   UNL     1       1.076  10.570  20.815  0.00  0.00    +0.000 A 
ATOM     16  C   UNL     1       0.320  11.710  21.117  0.00  0.00    +0.000 A 
ATOM     17  C   UNL     1      -0.761  12.083  20.313  0.00  0.00    +0.000 A 
ATOM     18  C   UNL     1      -1.110  11.288  19.225  0.00  0.00    +0.000 A 
ATOM     19  C   UNL     1      -0.369  10.141  18.928  0.00  0.00    +0.000 A 
BRANCH  17  20
ATOM     20  O   UNL     1      -1.436  13.201  20.711  0.00  0.00    +0.000 OA
ATOM     21  C   UNL     1      -2.844  13.045  20.867  0.00  0.00    +0.000 C 
ENDBRANCH  17  20
ENDBRANCH   7  14
BRANCH   1  23
ATOM     22  C   UNL     1       7.760   4.535  17.577  0.00  0.00    +0.000 C 
ATOM     23  C   UNL     1       6.633   4.328  16.576  0.00  0.00    +0.000 C 
ENDBRANCH   1  23
BRANCH  10  24
ATOM     24  C   UNL     1       2.197   5.078  20.906  0.00  0.00    +0.000 C 
BRANCH  24  25
ATOM     25  C   UNL     1       1.034   4.138  20.579  0.00  0.00    +0.000 C 
BRANCH  25  26
ATOM     26  C   UNL     1       1.487   2.903  19.817  0.00  0.00    +0.000 C 
ATOM     27  N   UNL     1       1.863   1.879  19.184  0.00  0.00    +0.000 NA
ENDBRANCH  25  26
ENDBRANCH  24  25
ENDBRANCH  10  24
TORSDOF 6
ENDMDL
MODEL 7
REMARK VINA RESULT:      -6.6      2.060      2.834
REMARK  Name = 
REMARK  8 active torsions:
REMARK  status: ('A' for Active; 'I' for Inactive)
REMARK    1  A    between atoms: C_1  and  C_2
REMARK    2  A    between atoms: C_2  and  N_3
REMARK    3  A    between atoms: C_9  and  C_10
REMARK    4  A    between atoms: C_13  and  O_14
REMARK    5  A    between atoms: O_14  and  C_15
REMARK    6  A    between atoms: N_20  and  C_21
REMARK    7  A    between atoms: C_21  and  C_22
REMARK    8  A    between atoms: C_22  and  C_23
REMARK                            x       y       z     vdW  Elec       q    Type
REMARK                         _______ _______ _______ _____ _____    ______ ____
ROOT
ATOM      1  N   UNL     1       5.395   4.154  17.489  0.00  0.00    +0.000 N 
ATOM      2  C   UNL     1       4.669   5.328  17.621  0.00  0.00    +0.000 A 
ATOM      3  N   UNL     1       4.757   6.274  16.677  0.00  0.00    +0.000 NA
ATOM      4  C   UNL     1       3.982   7.366  16.825  0.00  0.00    +0.000 A 
ATOM      5  C   UNL     1       3.114   7.557  17.875  0.00  0.00    +0.000 A 
ATOM      6  N   UNL     1       2.339   8.726  17.956  0.00  0.00    +0.000 NA
ATOM      7  C   UNL     1       1.553   8.864  18.988  0.00  0.00    +0.000 A 
ATOM      8  C   UNL     1       1.425   7.768  20.063  0.00  0.00    +0.000 A 
ATOM      9  O   UNL     1       0.626   7.894  20.984  0.00  0.00    +0.000 OA
ATOM     10  N   UNL     1       2.252   6.659  19.932  0.00  0.00    +0.000 N 
ATOM     11  C   UNL     1       3.115   6.536  18.813  0.00  0.00    +0.000 A 
ATOM     12  N   UNL     1       3.891   5.432  18.710  0.00  0.00    +0.000 NA
ATOM     13  H   UNL     1       5.442   3.710  18.399  0.00  0.00    +0.000 HD
ENDROOT
BRANCH   7  14
ATOM     14  C   UNL     1       0.772  10.124  19.142  0.00  0.00    +0.000 A 
ATOM     15  C   UNL     1       1.221  11.133  20.002  0.00  0.00    +0.000 A 
ATOM     16  C   UNL     1       0.468  12.305  20.153  0.00  0.00    +0.000 A 
ATOM     17  C   UNL     1      -0.725  12.483  19.448  0.00  0.00    +0.000 A 
ATOM     18  C   UNL     1      -1.187  11.466  18.617  0.00  0.00    +0.000 A 
ATOM     19  C   UNL     1      -0.448  10.289  18.474  0.00  0.00    +0.000 A 
BRANCH  17  20
ATOM     20  O   UNL     1      -1.384  13.656  19.686  0.00  0.00    +0.000 OA
ATOM     21  C   UNL     1      -0.650  14.635  20.417  0.00  0.00    +0.000 C 
ENDBRANCH  17  20
ENDBRANCH   7  14
BRANCH   1  23
ATOM     22  C   UNL     1       7.786   4.562  17.736  0.00  0.00    +0.000 C 
ATOM     23  C   UNL     1       6.648   4.284  16.765  0.00  0.00    +0.000 C 
ENDBRANCH   1  23
BRANCH  10  24
ATOM     24  C   UNL     1       2.217   5.613  20.961  0.00  0.00    +0.000 C 
BRANCH  24  25
ATOM     25  C   UNL     1       1.281   4.461  20.589  0.00  0.00    +0.000 C 
BRANCH  25  26
ATOM     26  C   UNL     1       1.562   3.205  21.398  0.00  0.00    +0.000 C 
ATOM     27  N   UNL     1       1.793   2.163  22.070  0.00  0.00    +0.000 NA
ENDBRANCH  25  26
ENDBRANCH  24  25
ENDBRANCH  10  24
TORSDOF 6
ENDMDL
MODEL 8
REMARK VINA RESULT:      -6.6      1.313      1.479
REMARK  Name = 
REMARK  8 active torsions:
REMARK  status: ('A' for Active; 'I' for Inactive)
REMARK    1  A    between atoms: C_1  and  C_2
REMARK    2  A    between atoms: C_2  and  N_3
REMARK    3  A    between atoms: C_9  and  C_10
REMARK    4  A    between atoms: C_13  and  O_14
REMARK    5  A    between atoms: O_14  and  C_15
REMARK    6  A    between atoms: N_20  and  C_21
REMARK    7  A    between atoms: C_21  and  C_22
REMARK    8  A    between atoms: C_22  and  C_23
REMARK                            x       y       z     vdW  Elec       q    Type
REMARK                         _______ _______ _______ _____ _____    ______ ____
ROOT
ATOM      1  N   UNL     1       5.947   3.973  16.269  0.00  0.00    +0.000 N 
ATOM      2  C   UNL     1       5.178   4.996  16.805  0.00  0.00    +0.000 A 
ATOM      3  N   UNL     1       5.120   6.180  16.182  0.00  0.00    +0.000 NA
ATOM      4  C   UNL     1       4.309   7.116  16.712  0.00  0.00    +0.000 A 
ATOM      5  C   UNL     1       3.545   6.922  17.839  0.00  0.00    +0.000 A 
ATOM      6  N   UNL     1       2.723   7.951  18.330  0.00  0.00    +0.000 NA
ATOM      7  C   UNL     1       2.041   7.719  19.418  0.00  0.00    +0.000 A 
ATOM      8  C   UNL     1       2.081   6.351  20.123  0.00  0.00    +0.000 A 
ATOM      9  O   UNL     1       1.375   6.137  21.103  0.00  0.00    +0.000 OA
ATOM     10  N   UNL     1       2.946   5.397  19.600  0.00  0.00    +0.000 N 
ATOM     11  C   UNL     1       3.695   5.675  18.427  0.00  0.00    +0.000 A 
ATOM     12  N   UNL     1       4.512   4.715  17.936  0.00  0.00    +0.000 NA
ATOM     13  H   UNL     1       6.110   3.289  16.998  0.00  0.00    +0.000 HD
ENDROOT
BRANCH   7  14
ATOM     14  C   UNL     1       1.216   8.812  20.004  0.00  0.00    +0.000 A 
ATOM     15  C   UNL     1       0.614   9.767  19.176  0.00  0.00    +0.000 A 
ATOM     16  C   UNL     1      -0.143  10.801  19.741  0.00  0.00    +0.000 A 
ATOM     17  C   UNL     1      -0.313  10.887  21.125  0.00  0.00    +0.000 A 
ATOM     18  C   UNL     1       0.310   9.955  21.951  0.00  0.00    +0.000 A 
ATOM     19  C   UNL     1       1.079   8.930  21.394  0.00  0.00    +0.000 A 
BRANCH  17  20
ATOM     20  O   UNL     1      -1.057  11.945  21.566  0.00  0.00    +0.000 OA
ATOM     21  C   UNL     1      -1.310  11.976  22.968  0.00  0.00    +0.000 C 
ENDBRANCH  17  20
ENDBRANCH   7  14
BRANCH   1  23
ATOM     22  C   UNL     1       6.843   4.284  14.023  0.00  0.00    +0.000 C 
ATOM     23  C   UNL     1       7.110   4.409  15.516  0.00  0.00    +0.000 C 
ENDBRANCH   1  23
BRANCH  10  24
ATOM     24  C   UNL     1       3.072   4.097  20.269  0.00  0.00    +0.000 C 
BRANCH  24  25
ATOM     25  C   UNL     1       2.190   3.024  19.626  0.00  0.00    +0.000 C 
BRANCH  25  26
ATOM     26  C   UNL     1       3.007   1.957  18.914  0.00  0.00    +0.000 C 
ATOM     27  N   UNL     1       3.685   1.071  18.325  0.00  0.00    +0.000 NA
ENDBRANCH  25  26
ENDBRANCH  24  25
ENDBRANCH  10  24
TORSDOF 6
ENDMDL
MODEL 9
REMARK VINA RESULT:      -6.6      1.755      2.174
REMARK  Name = 
REMARK  8 active torsions:
REMARK  status: ('A' for Active; 'I' for Inactive)
REMARK    1  A    between atoms: C_1  and  C_2
REMARK    2  A    between atoms: C_2  and  N_3
REMARK    3  A    between atoms: C_9  and  C_10
REMARK    4  A    between atoms: C_13  and  O_14
REMARK    5  A    between atoms: O_14  and  C_15
REMARK    6  A    between atoms: N_20  and  C_21
REMARK    7  A    between atoms: C_21  and  C_22
REMARK    8  A    between atoms: C_22  and  C_23
REMARK                            x       y       z     vdW  Elec       q    Type
REMARK                         _______ _______ _______ _____ _____    ______ ____
ROOT
ATOM      1  N   UNL     1       5.542   4.163  16.928  0.00  0.00    +0.000 N 
ATOM      2  C   UNL     1       4.786   5.270  17.286  0.00  0.00    +0.000 A 
ATOM      3  N   UNL     1       4.797   6.360  16.509  0.00  0.00    +0.000 NA
ATOM      4  C   UNL     1       3.996   7.382  16.871  0.00  0.00    +0.000 A 
ATOM      5  C   UNL     1       3.177   7.363  17.976  0.00  0.00    +0.000 A 
ATOM      6  N   UNL     1       2.371   8.470  18.286  0.00  0.00    +0.000 NA
ATOM      7  C   UNL     1       1.633   8.406  19.361  0.00  0.00    +0.000 A 
ATOM      8  C   UNL     1       1.596   7.143  20.243  0.00  0.00    +0.000 A 
ATOM      9  O   UNL     1       0.841   7.084  21.207  0.00  0.00    +0.000 OA
ATOM     10  N   UNL     1       2.450   6.104  19.893  0.00  0.00    +0.000 N 
ATOM     11  C   UNL     1       3.258   6.202  18.731  0.00  0.00    +0.000 A 
ATOM     12  N   UNL     1       4.062   5.162  18.411  0.00  0.00    +0.000 NA
ATOM     13  H   UNL     1       5.650   3.578  17.748  0.00  0.00    +0.000 HD
ENDROOT
BRANCH   7  14
ATOM     14  C   UNL     1       0.822   9.590  19.758  0.00  0.00    +0.000 A 
ATOM     15  C   UNL     1      -0.161  10.095  18.898  0.00  0.00    +0.000 A 
ATOM     16  C   UNL     1      -0.904  11.221  19.274  0.00  0.00    +0.000 A 
ATOM     17  C   UNL     1      -0.682  11.844  20.504  0.00  0.00    +0.000 A 
ATOM     18  C   UNL     1       0.316  11.361  21.346  0.00  0.00    +0.000 A 
ATOM     19  C   UNL     1       1.071  10.248  20.970  0.00  0.00    +0.000 A 
BRANCH  17  20
ATOM     20  O   UNL     1      -1.453  12.944  20.759  0.00  0.00    +0.000 OA
ATOM     21  C   UNL     1      -2.508  12.749  21.696  0.00  0.00    +0.000 C 
ENDBRANCH  17  20
ENDBRANCH   7  14
BRANCH   1  23
ATOM     22  C   UNL     1       6.566   4.088  14.717  0.00  0.00    +0.000 C 
ATOM     23  C   UNL     1       6.752   4.460  16.180  0.00  0.00    +0.000 C 
ENDBRANCH   1  23
BRANCH  10  24
ATOM     24  C   UNL     1       2.501   4.903  20.733  0.00  0.00    +0.000 C 
BRANCH  24  25
ATOM     25  C   UNL     1       1.207   4.088  20.663  0.00  0.00    +0.000 C 
BRANCH  25  26
ATOM     26  C   UNL     1       1.109   3.270  19.385  0.00  0.00    +0.000 C 
ATOM     27  N   UNL     1       1.026   2.592  18.325  0.00  0.00    +0.000 NA
ENDBRANCH  25  26
ENDBRANCH  24  25
ENDBRANCH  10  24
TORSDOF 6
ENDMDL
