MODEL 1
REMARK VINA RESULT:      -6.6      0.000      0.000
REMARK  Name = 
REMARK  4 active torsions:
REMARK  status: ('A' for Active; 'I' for Inactive)
REMARK    1  A    between atoms: C_2  and  C_3
REMARK    2  A    between atoms: C_3  and  C_4
REMARK    3  A    between atoms: N_12  and  S_13
REMARK    4  A    between atoms: S_13  and  C_16
REMARK                            x       y       z     vdW  Elec       q    Type
REMARK                         _______ _______ _______ _____ _____    ______ ____
ROOT
ATOM      1  O   UNL     1       2.062   7.628  18.590  0.00  0.00    +0.000 OA
ATOM      2  C   UNL     1       2.799   6.778  19.097  0.00  0.00    +0.000 C 
ATOM      3  N   UNL     1       3.766   6.114  18.357  0.00  0.00    +0.000 N 
ATOM      4  C   UNL     1       4.728   5.144  18.899  0.00  0.00    +0.000 C 
ATOM      5  C   UNL     1       4.974   3.969  17.942  0.00  0.00    +0.000 C 
ATOM      6  N   UNL     1       5.304   4.424  16.559  0.00  0.00    +0.000 NA
ATOM      7  C   UNL     1       4.211   5.318  16.047  0.00  0.00    +0.000 C 
ATOM      8  C   UNL     1       4.003   6.530  16.964  0.00  0.00    +0.000 C 
ENDROOT
BRANCH   6   9
ATOM      9  S   UNL     1       6.887   5.010  16.298  0.00  0.00    +0.000 S 
ATOM     10  O   UNL     1       6.893   6.430  16.576  0.00  0.00    +0.000 OA
ATOM     11  O   UNL     1       7.815   4.117  16.955  0.00  0.00    +0.000 OA
BRANCH   9  12
ATOM     12  C   UNL     1       7.093   4.822  14.549  0.00  0.00    +0.000 A 
ATOM     13  C   UNL     1       7.956   5.670  13.843  0.00  0.00    +0.000 A 
ATOM     14  C   UNL     1       8.102   5.506  12.462  0.00  0.00    +0.000 A 
ATOM     15  C   UNL     1       7.391   4.502  11.805  0.00  0.00    +0.000 A 
ATOM     16  C   UNL     1       6.537   3.671  12.526  0.00  0.00    +0.000 A 
ATOM     17  F   UNL     1       5.863   2.707  11.886  0.00  0.00    +0.000 F 
ATOM     18  C   UNL     1       6.375   3.821  13.895  0.00  0.00    +0.000 A 
ENDBRANCH   9  12
ENDBRANCH   6   9
BRANCH   2  19
ATOM     19  C   UNL     1       2.627   6.409  20.566  0.00  0.00    +0.000 C 
BRANCH  19  20
ATOM     20  C   UNL     1       2.091   5.014  20.725  0.00  0.00    +0.000 A 
ATOM     21  C   UNL     1       1.091   4.435  19.873  0.00  0.00    +0.000 A 
ATOM     22  C   UNL     1       0.768   3.145  20.230  0.00  0.00    +0.000 A 
ATOM     23  S   UNL     1       1.658   2.616  21.587  0.00  0.00    +0.000 S 
ATOM     24  C   UNL     1       2.469   4.117  21.708  0.00  0.00    +0.000 A 
ENDBRANCH  19  20
ENDBRANCH   2  19
TORSDOF 4
ENDMDL
MODEL 2
REMARK VINA RESULT:      -6.6      4.473      6.936
REMARK  Name = 
REMARK  4 active torsions:
REMARK  status: ('A' for Active; 'I' for Inactive)
REMARK    1  A    between atoms: C_2  and  C_3
REMARK    2  A    between atoms: C_3  and  C_4
REMARK    3  A    between atoms: N_12  and  S_13
REMARK    4  A    between atoms: S_13  and  C_16
REMARK                            x       y       z     vdW  Elec       q    Type
REMARK                         _______ _______ _______ _____ _____    ______ ____
ROOT
ATOM      1  O   UNL     1       0.637   9.588  20.857  0.00  0.00    +0.000 OA
ATOM      2  C   UNL     1       0.972   9.501  19.672  0.00  0.00    +0.000 C 
ATOM      3  N   UNL     1       1.626   8.382  19.178  0.00  0.00    +0.000 N 
ATOM      4  C   UNL     1       1.993   8.171  17.771  0.00  0.00    +0.000 C 
ATOM      5  C   UNL     1       3.363   7.495  17.621  0.00  0.00    +0.000 C 
ATOM      6  N   UNL     1       3.482   6.264  18.458  0.00  0.00    +0.000 NA
ATOM      7  C   UNL     1       3.201   6.602  19.894  0.00  0.00    +0.000 C 
ATOM      8  C   UNL     1       1.806   7.218  20.061  0.00  0.00    +0.000 C 
ENDROOT
BRANCH   6   9
ATOM      9  S   UNL     1       2.692   4.863  17.884  0.00  0.00    +0.000 S 
ATOM     10  O   UNL     1       1.336   5.223  17.533  0.00  0.00    +0.000 OA
ATOM     11  O   UNL     1       3.562   4.209  16.932  0.00  0.00    +0.000 OA
BRANCH   9  12
ATOM     12  C   UNL     1       2.601   3.842  19.330  0.00  0.00    +0.000 A 
ATOM     13  C   UNL     1       1.396   3.716  20.031  0.00  0.00    +0.000 A 
ATOM     14  C   UNL     1       1.346   2.908  21.171  0.00  0.00    +0.000 A 
ATOM     15  C   UNL     1       2.493   2.238  21.595  0.00  0.00    +0.000 A 
ATOM     16  C   UNL     1       3.683   2.379  20.883  0.00  0.00    +0.000 A 
ATOM     17  F   UNL     1       4.777   1.727  21.296  0.00  0.00    +0.000 F 
ATOM     18  C   UNL     1       3.753   3.180  19.753  0.00  0.00    +0.000 A 
ENDBRANCH   9  12
ENDBRANCH   6   9
BRANCH   2  19
ATOM     19  C   UNL     1       0.701  10.664  18.724  0.00  0.00    +0.000 C 
BRANCH  19  20
ATOM     20  C   UNL     1      -0.756  10.757  18.368  0.00  0.00    +0.000 A 
ATOM     21  C   UNL     1      -1.411   9.889  17.431  0.00  0.00    +0.000 A 
ATOM     22  C   UNL     1      -2.748  10.183  17.277  0.00  0.00    +0.000 A 
ATOM     23  S   UNL     1      -3.230  11.499  18.251  0.00  0.00    +0.000 S 
ATOM     24  C   UNL     1      -1.647  11.687  18.872  0.00  0.00    +0.000 A 
ENDBRANCH  19  20
ENDBRANCH   2  19
TORSDOF 4
ENDMDL
MODEL 3
REMARK VINA RESULT:      -6.6      3.522      4.545
REMARK  Name = 
REMARK  4 active torsions:
REMARK  status: ('A' for Active; 'I' for Inactive)
REMARK    1  A    between atoms: C_2  and  C_3
REMARK    2  A    between atoms: C_3  and  C_4
REMARK    3  A    between atoms: N_12  and  S_13
REMARK    4  A    between atoms: S_13  and  C_16
REMARK                            x       y       z     vdW  Elec       q    Type
REMARK                         _______ _______ _______ _____ _____    ______ ____
ROOT
ATOM      1  O   UNL     1       1.982   8.871  19.931  0.00  0.00    +0.000 OA
ATOM      2  C   UNL     1       1.609   7.799  20.418  0.00  0.00    +0.000 C 
ATOM      3  N   UNL     1       2.035   6.580  19.914  0.00  0.00    +0.000 N 
ATOM      4  C   UNL     1       1.695   5.267  20.480  0.00  0.00    +0.000 C 
ATOM      5  C   UNL     1       1.441   4.211  19.394  0.00  0.00    +0.000 C 
ATOM      6  N   UNL     1       2.543   4.159  18.386  0.00  0.00    +0.000 NA
ATOM      7  C   UNL     1       2.739   5.520  17.782  0.00  0.00    +0.000 C 
ATOM      8  C   UNL     1       3.059   6.568  18.856  0.00  0.00    +0.000 C 
ENDROOT
BRANCH   6   9
ATOM      9  S   UNL     1       3.982   3.371  18.860  0.00  0.00    +0.000 S 
ATOM     10  O   UNL     1       4.384   3.904  20.144  0.00  0.00    +0.000 OA
ATOM     11  O   UNL     1       3.809   1.950  18.662  0.00  0.00    +0.000 OA
BRANCH   9  12
ATOM     12  C   UNL     1       5.158   3.949  17.667  0.00  0.00    +0.000 A 
ATOM     13  C   UNL     1       6.283   4.674  18.077  0.00  0.00    +0.000 A 
ATOM     14  C   UNL     1       7.197   5.123  17.119  0.00  0.00    +0.000 A 
ATOM     15  C   UNL     1       6.980   4.844  15.770  0.00  0.00    +0.000 A 
ATOM     16  C   UNL     1       5.852   4.122  15.384  0.00  0.00    +0.000 A 
ATOM     17  F   UNL     1       5.655   3.855  14.087  0.00  0.00    +0.000 F 
ATOM     18  C   UNL     1       4.932   3.673  16.319  0.00  0.00    +0.000 A 
ENDBRANCH   9  12
ENDBRANCH   6   9
BRANCH   2  19
ATOM     19  C   UNL     1       0.623   7.803  21.580  0.00  0.00    +0.000 C 
BRANCH  19  20
ATOM     20  C   UNL     1       0.001   9.158  21.772  0.00  0.00    +0.000 A 
ATOM     21  C   UNL     1      -0.274   9.741  23.054  0.00  0.00    +0.000 A 
ATOM     22  C   UNL     1      -0.849  10.989  22.959  0.00  0.00    +0.000 A 
ATOM     23  S   UNL     1      -1.066  11.472  21.337  0.00  0.00    +0.000 S 
ATOM     24  C   UNL     1      -0.402  10.006  20.756  0.00  0.00    +0.000 A 
ENDBRANCH  19  20
ENDBRANCH   2  19
TORSDOF 4
ENDMDL
MODEL 4
REMARK VINA RESULT:      -6.6      6.639     10.523
REMARK  Name = 
REMARK  4 active torsions:
REMARK  status: ('A' for Active; 'I' for Inactive)
REMARK    1  A    between atoms: C_2  and  C_3
REMARK    2  A    between atoms: C_3  and  C_4
REMARK    3  A    between atoms: N_12  and  S_13
REMARK    4  A    between atoms: S_13  and  C_16
REMARK                            x       y       z     vdW  Elec       q    Type
REMARK                         _______ _______ _______ _____ _____    ______ ____
ROOT
ATOM      1  O   UNL     1       2.702   6.226  20.101  0.00  0.00    +0.000 OA
ATOM      2  C   UNL     1       2.432   7.224  19.427  0.00  0.00    +0.000 C 
ATOM      3  N   UNL     1       1.577   8.211  19.892  0.00  0.00    +0.000 N 
ATOM      4  C   UNL     1       1.262   9.459  19.184  0.00  0.00    +0.000 C 
ATOM      5  C   UNL     1      -0.213   9.859  19.334  0.00  0.00    +0.000 C 
ATOM      6  N   UNL     1      -0.658   9.855  20.760  0.00  0.00    +0.000 NA
ATOM      7  C   UNL     1      -0.399   8.506  21.366  0.00  0.00    +0.000 C 
ATOM      8  C   UNL     1       1.085   8.128  21.277  0.00  0.00    +0.000 C 
ENDROOT
BRANCH   6   9
ATOM      9  S   UNL     1      -0.167  11.178  21.723  0.00  0.00    +0.000 S 
ATOM     10  O   UNL     1       0.347  10.659  22.971  0.00  0.00    +0.000 OA
ATOM     11  O   UNL     1       0.623  12.069  20.903  0.00  0.00    +0.000 OA
BRANCH   9  12
ATOM     12  C   UNL     1      -1.700  11.988  22.089  0.00  0.00    +0.000 A 
ATOM     13  C   UNL     1      -2.313  12.805  21.132  0.00  0.00    +0.000 A 
ATOM     14  C   UNL     1      -3.521  13.438  21.442  0.00  0.00    +0.000 A 
ATOM     15  C   UNL     1      -4.100  13.247  22.696  0.00  0.00    +0.000 A 
ATOM     16  C   UNL     1      -3.472  12.431  23.634  0.00  0.00    +0.000 A 
ATOM     17  F   UNL     1      -4.039  12.251  24.833  0.00  0.00    +0.000 F 
ATOM     18  C   UNL     1      -2.271  11.800  23.347  0.00  0.00    +0.000 A 
ENDBRANCH   9  12
ENDBRANCH   6   9
BRANCH   2  19
ATOM     19  C   UNL     1       3.017   7.367  18.026  0.00  0.00    +0.000 C 
BRANCH  19  20
ATOM     20  C   UNL     1       3.897   6.201  17.674  0.00  0.00    +0.000 A 
ATOM     21  C   UNL     1       5.331   6.259  17.638  0.00  0.00    +0.000 A 
ATOM     22  C   UNL     1       5.904   5.059  17.283  0.00  0.00    +0.000 A 
ATOM     23  S   UNL     1       4.733   3.853  16.989  0.00  0.00    +0.000 S 
ATOM     24  C   UNL     1       3.454   4.938  17.324  0.00  0.00    +0.000 A 
ENDBRANCH  19  20
ENDBRANCH   2  19
TORSDOF 4
ENDMDL
MODEL 5
REMARK VINA RESULT:      -6.6      6.750     10.305
REMARK  Name = 
REMARK  4 active torsions:
REMARK  status: ('A' for Active; 'I' for Inactive)
REMARK    1  A    between atoms: C_2  and  C_3
REMARK    2  A    between atoms: C_3  and  C_4
REMARK    3  A    between atoms: N_12  and  S_13
REMARK    4  A    between atoms: S_13  and  C_16
REMARK                            x       y       z     vdW  Elec       q    Type
REMARK                         _______ _______ _______ _____ _____    ______ ____
ROOT
ATOM      1  O   UNL     1       2.355   6.547  20.394  0.00  0.00    +0.000 OA
ATOM      2  C   UNL     1       2.203   7.334  19.455  0.00  0.00    +0.000 C 
ATOM      3  N   UNL     1       1.502   8.521  19.602  0.00  0.00    +0.000 N 
ATOM      4  C   UNL     1       1.338   9.541  18.557  0.00  0.00    +0.000 C 
ATOM      5  C   UNL     1      -0.065  10.165  18.565  0.00  0.00    +0.000 C 
ATOM      6  N   UNL     1      -0.467  10.636  19.925  0.00  0.00    +0.000 NA
ATOM      7  C   UNL     1      -0.376   9.498  20.900  0.00  0.00    +0.000 C 
ATOM      8  C   UNL     1       1.041   8.911  20.945  0.00  0.00    +0.000 C 
ENDROOT
BRANCH   6   9
ATOM      9  S   UNL     1       0.223  12.101  20.468  0.00  0.00    +0.000 S 
ATOM     10  O   UNL     1       1.379  11.780  21.276  0.00  0.00    +0.000 OA
ATOM     11  O   UNL     1       0.327  12.999  19.340  0.00  0.00    +0.000 OA
BRANCH   9  12
ATOM     12  C   UNL     1      -1.016  12.738  21.562  0.00  0.00    +0.000 A 
ATOM     13  C   UNL     1      -2.374  12.554  21.275  0.00  0.00    +0.000 A 
ATOM     14  C   UNL     1      -3.336  13.067  22.150  0.00  0.00    +0.000 A 
ATOM     15  C   UNL     1      -2.934  13.752  23.296  0.00  0.00    +0.000 A 
ATOM     16  C   UNL     1      -1.577  13.926  23.561  0.00  0.00    +0.000 A 
ATOM     17  F   UNL     1      -1.202  14.582  24.666  0.00  0.00    +0.000 F 
ATOM     18  C   UNL     1      -0.608  13.429  22.702  0.00  0.00    +0.000 A 
ENDBRANCH   9  12
ENDBRANCH   6   9
BRANCH   2  19
ATOM     19  C   UNL     1       2.763   6.984  18.081  0.00  0.00    +0.000 C 
BRANCH  19  20
ATOM     20  C   UNL     1       2.926   5.499  17.914  0.00  0.00    +0.000 A 
ATOM     21  C   UNL     1       1.833   4.586  17.737  0.00  0.00    +0.000 A 
ATOM     22  C   UNL     1       2.246   3.279  17.611  0.00  0.00    +0.000 A 
ATOM     23  S   UNL     1       3.944   3.133  17.702  0.00  0.00    +0.000 S 
ATOM     24  C   UNL     1       4.130   4.819  17.924  0.00  0.00    +0.000 A 
ENDBRANCH  19  20
ENDBRANCH   2  19
TORSDOF 4
ENDMDL
MODEL 6
REMARK VINA RESULT:      -6.5      3.532      4.378
REMARK  Name = 
REMARK  4 active torsions:
REMARK  status: ('A' for Active; 'I' for Inactive)
REMARK    1  A    between atoms: C_2  and  C_3
REMARK    2  A    between atoms: C_3  and  C_4
REMARK    3  A    between atoms: N_12  and  S_13
REMARK    4  A    between atoms: S_13  and  C_16
REMARK                            x       y       z     vdW  Elec       q    Type
REMARK                         _______ _______ _______ _____ _____    ______ ____
ROOT
ATOM      1  O   UNL     1       1.573   9.300  19.581  0.00  0.00    +0.000 OA
ATOM      2  C   UNL     1       1.436   8.239  20.196  0.00  0.00    +0.000 C 
ATOM      3  N   UNL     1       2.064   7.071  19.788  0.00  0.00    +0.000 N 
ATOM      4  C   UNL     1       2.010   5.789  20.503  0.00  0.00    +0.000 C 
ATOM      5  C   UNL     1       1.912   4.592  19.547  0.00  0.00    +0.000 C 
ATOM      6  N   UNL     1       2.955   4.634  18.478  0.00  0.00    +0.000 NA
ATOM      7  C   UNL     1       2.858   5.932  17.730  0.00  0.00    +0.000 C 
ATOM      8  C   UNL     1       3.020   7.134  18.670  0.00  0.00    +0.000 C 
ENDROOT
BRANCH   6   9
ATOM      9  S   UNL     1       4.539   4.185  18.930  0.00  0.00    +0.000 S 
ATOM     10  O   UNL     1       5.037   5.171  19.864  0.00  0.00    +0.000 OA
ATOM     11  O   UNL     1       4.535   2.778  19.262  0.00  0.00    +0.000 OA
BRANCH   9  12
ATOM     12  C   UNL     1       5.451   4.388  17.424  0.00  0.00    +0.000 A 
ATOM     13  C   UNL     1       6.767   4.864  17.454  0.00  0.00    +0.000 A 
ATOM     14  C   UNL     1       7.468   5.020  16.254  0.00  0.00    +0.000 A 
ATOM     15  C   UNL     1       6.851   4.699  15.046  0.00  0.00    +0.000 A 
ATOM     16  C   UNL     1       5.539   4.229  15.039  0.00  0.00    +0.000 A 
ATOM     17  F   UNL     1       4.958   3.920  13.873  0.00  0.00    +0.000 F 
ATOM     18  C   UNL     1       4.826   4.073  16.218  0.00  0.00    +0.000 A 
ENDBRANCH   9  12
ENDBRANCH   6   9
BRANCH   2  19
ATOM     19  C   UNL     1       0.523   8.187  21.415  0.00  0.00    +0.000 C 
BRANCH  19  20
ATOM     20  C   UNL     1      -0.156   9.507  21.652  0.00  0.00    +0.000 A 
ATOM     21  C   UNL     1      -0.620  10.371  20.603  0.00  0.00    +0.000 A 
ATOM     22  C   UNL     1      -1.204  11.523  21.081  0.00  0.00    +0.000 A 
ATOM     23  S   UNL     1      -1.203  11.580  22.787  0.00  0.00    +0.000 S 
ATOM     24  C   UNL     1      -0.408  10.069  22.890  0.00  0.00    +0.000 A 
ENDBRANCH  19  20
ENDBRANCH   2  19
TORSDOF 4
ENDMDL
MODEL 7
REMARK VINA RESULT:      -6.5      4.564      6.828
REMARK  Name = 
REMARK  4 active torsions:
REMARK  status: ('A' for Active; 'I' for Inactive)
REMARK    1  A    between atoms: C_2  and  C_3
REMARK    2  A    between atoms: C_3  and  C_4
REMARK    3  A    between atoms: N_12  and  S_13
REMARK    4  A    between atoms: S_13  and  C_16
REMARK                            x       y       z     vdW  Elec       q    Type
REMARK                         _______ _______ _______ _____ _____    ______ ____
ROOT
ATOM      1  O   UNL     1       0.871   9.492  20.732  0.00  0.00    +0.000 OA
ATOM      2  C   UNL     1       1.185   9.383  19.543  0.00  0.00    +0.000 C 
ATOM      3  N   UNL     1       1.840   8.260  19.060  0.00  0.00    +0.000 N 
ATOM      4  C   UNL     1       2.182   8.022  17.652  0.00  0.00    +0.000 C 
ATOM      5  C   UNL     1       3.556   7.355  17.490  0.00  0.00    +0.000 C 
ATOM      6  N   UNL     1       3.702   6.143  18.351  0.00  0.00    +0.000 NA
ATOM      7  C   UNL     1       3.444   6.509  19.784  0.00  0.00    +0.000 C 
ATOM      8  C   UNL     1       2.047   7.116  19.964  0.00  0.00    +0.000 C 
ENDROOT
BRANCH   6   9
ATOM      9  S   UNL     1       2.915   4.723  17.822  0.00  0.00    +0.000 S 
ATOM     10  O   UNL     1       1.518   5.036  17.611  0.00  0.00    +0.000 OA
ATOM     11  O   UNL     1       3.712   4.125  16.775  0.00  0.00    +0.000 OA
BRANCH   9  12
ATOM     12  C   UNL     1       3.003   3.671  19.245  0.00  0.00    +0.000 A 
ATOM     13  C   UNL     1       4.190   2.994  19.551  0.00  0.00    +0.000 A 
ATOM     14  C   UNL     1       4.237   2.166  20.676  0.00  0.00    +0.000 A 
ATOM     15  C   UNL     1       3.107   2.026  21.481  0.00  0.00    +0.000 A 
ATOM     16  C   UNL     1       1.936   2.708  21.157  0.00  0.00    +0.000 A 
ATOM     17  F   UNL     1       0.858   2.570  21.938  0.00  0.00    +0.000 F 
ATOM     18  C   UNL     1       1.868   3.529  20.041  0.00  0.00    +0.000 A 
ENDBRANCH   9  12
ENDBRANCH   6   9
BRANCH   2  19
ATOM     19  C   UNL     1       0.885  10.523  18.576  0.00  0.00    +0.000 C 
BRANCH  19  20
ATOM     20  C   UNL     1      -0.592  10.673  18.341  0.00  0.00    +0.000 A 
ATOM     21  C   UNL     1      -1.363   9.803  17.500  0.00  0.00    +0.000 A 
ATOM     22  C   UNL     1      -2.694  10.155  17.447  0.00  0.00    +0.000 A 
ATOM     23  S   UNL     1      -3.030  11.528  18.403  0.00  0.00    +0.000 S 
ATOM     24  C   UNL     1      -1.393  11.663  18.880  0.00  0.00    +0.000 A 
ENDBRANCH  19  20
ENDBRANCH   2  19
TORSDOF 4
ENDMDL
MODEL 8
REMARK VINA RESULT:      -6.5      6.238     10.256
REMARK  Name = 
REMARK  4 active torsions:
REMARK  status: ('A' for Active; 'I' for Inactive)
REMARK    1  A    between atoms: C_2  and  C_3
REMARK    2  A    between atoms: C_3  and  C_4
REMARK    3  A    between atoms: N_12  and  S_13
REMARK    4  A    between atoms: S_13  and  C_16
REMARK                            x       y       z     vdW  Elec       q    Type
REMARK                         _______ _______ _______ _____ _____    ______ ____
ROOT
ATOM      1  O   UNL     1       2.812   5.975  19.768  0.00  0.00    +0.000 OA
ATOM      2  C   UNL     1       2.597   7.052  19.205  0.00  0.00    +0.000 C 
ATOM      3  N   UNL     1       1.782   8.021  19.769  0.00  0.00    +0.000 N 
ATOM      4  C   UNL     1       1.533   9.352  19.199  0.00  0.00    +0.000 C 
ATOM      5  C   UNL     1       0.076   9.802  19.381  0.00  0.00    +0.000 C 
ATOM      6  N   UNL     1      -0.387   9.664  20.794  0.00  0.00    +0.000 NA
ATOM      7  C   UNL     1      -0.198   8.246  21.251  0.00  0.00    +0.000 C 
ATOM      8  C   UNL     1       1.269   7.811  21.133  0.00  0.00    +0.000 C 
ENDROOT
BRANCH   6   9
ATOM      9  S   UNL     1       0.152  10.850  21.900  0.00  0.00    +0.000 S 
ATOM     10  O   UNL     1       0.459  10.192  23.151  0.00  0.00    +0.000 OA
ATOM     11  O   UNL     1       1.129  11.681  21.234  0.00  0.00    +0.000 OA
BRANCH   9  12
ATOM     12  C   UNL     1      -1.302  11.826  22.169  0.00  0.00    +0.000 A 
ATOM     13  C   UNL     1      -2.098  11.611  23.301  0.00  0.00    +0.000 A 
ATOM     14  C   UNL     1      -3.243  12.390  23.493  0.00  0.00    +0.000 A 
ATOM     15  C   UNL     1      -3.578  13.370  22.560  0.00  0.00    +0.000 A 
ATOM     16  C   UNL     1      -2.772  13.566  21.440  0.00  0.00    +0.000 A 
ATOM     17  F   UNL     1      -3.100  14.514  20.553  0.00  0.00    +0.000 F 
ATOM     18  C   UNL     1      -1.636  12.800  21.230  0.00  0.00    +0.000 A 
ENDBRANCH   9  12
ENDBRANCH   6   9
BRANCH   2  19
ATOM     19  C   UNL     1       3.205   7.319  17.833  0.00  0.00    +0.000 C 
BRANCH  19  20
ATOM     20  C   UNL     1       4.296   6.337  17.512  0.00  0.00    +0.000 A 
ATOM     21  C   UNL     1       4.062   4.986  17.088  0.00  0.00    +0.000 A 
ATOM     22  C   UNL     1       5.228   4.289  16.861  0.00  0.00    +0.000 A 
ATOM     23  S   UNL     1       6.611   5.245  17.153  0.00  0.00    +0.000 S 
ATOM     24  C   UNL     1       5.653   6.591  17.597  0.00  0.00    +0.000 A 
ENDBRANCH  19  20
ENDBRANCH   2  19
TORSDOF 4
ENDMDL
MODEL 9
REMARK VINA RESULT:      -6.5      6.709     10.273
REMARK  Name = 
REMARK  4 active torsions:
REMARK  status: ('A' for Active; 'I' for Inactive)
REMARK    1  A    between atoms: C_2  and  C_3
REMARK    2  A    between atoms: C_3  and  C_4
REMARK    3  A    between atoms: N_12  and  S_13
REMARK    4  A    between atoms: S_13  and  C_16
REMARK                            x       y       z     vdW  Elec       q    Type
REMARK                         _______ _______ _______ _____ _____    ______ ____
ROOT
ATOM      1  O   UNL     1       2.418   6.494  20.424  0.00  0.00    +0.000 OA
ATOM      2  C   UNL     1       2.254   7.312  19.514  0.00  0.00    +0.000 C 
ATOM      3  N   UNL     1       1.497   8.460  19.692  0.00  0.00    +0.000 N 
ATOM      4  C   UNL     1       1.313   9.515  18.687  0.00  0.00    +0.000 C 
ATOM      5  C   UNL     1      -0.117  10.077  18.685  0.00  0.00    +0.000 C 
ATOM      6  N   UNL     1      -0.572  10.471  20.051  0.00  0.00    +0.000 NA
ATOM      7  C   UNL     1      -0.453   9.298  20.981  0.00  0.00    +0.000 C 
ATOM      8  C   UNL     1       0.987   8.772  21.038  0.00  0.00    +0.000 C 
ENDROOT
BRANCH   6   9
ATOM      9  S   UNL     1       0.039  11.941  20.672  0.00  0.00    +0.000 S 
ATOM     10  O   UNL     1       0.987  11.627  21.719  0.00  0.00    +0.000 OA
ATOM     11  O   UNL     1       0.409  12.785  19.558  0.00  0.00    +0.000 OA
BRANCH   9  12
ATOM     12  C   UNL     1      -1.380  12.658  21.453  0.00  0.00    +0.000 A 
ATOM     13  C   UNL     1      -1.948  13.833  20.945  0.00  0.00    +0.000 A 
ATOM     14  C   UNL     1      -3.066  14.384  21.578  0.00  0.00    +0.000 A 
ATOM     15  C   UNL     1      -3.602  13.760  22.703  0.00  0.00    +0.000 A 
ATOM     16  C   UNL     1      -3.020  12.593  23.193  0.00  0.00    +0.000 A 
ATOM     17  F   UNL     1      -3.545  11.999  24.272  0.00  0.00    +0.000 F 
ATOM     18  C   UNL     1      -1.907  12.034  22.582  0.00  0.00    +0.000 A 
ENDBRANCH   9  12
ENDBRANCH   6   9
BRANCH   2  19
ATOM     19  C   UNL     1       2.861   7.046  18.142  0.00  0.00    +0.000 C 
BRANCH  19  20
ATOM     20  C   UNL     1       3.022   5.573  17.887  0.00  0.00    +0.000 A 
ATOM     21  C   UNL     1       1.926   4.658  17.742  0.00  0.00    +0.000 A 
ATOM     22  C   UNL     1       2.338   3.363  17.519  0.00  0.00    +0.000 A 
ATOM     23  S   UNL     1       4.039   3.232  17.480  0.00  0.00    +0.000 S 
ATOM     24  C   UNL     1       4.229   4.906  17.776  0.00  0.00    +0.000 A 
ENDBRANCH  19  20
ENDBRANCH   2  19
TORSDOF 4
ENDMDL
