MODEL 1
REMARK VINA RESULT:      -7.7      0.000      0.000
REMARK  Name = 
REMARK  14 active torsions:
REMARK  status: ('A' for Active; 'I' for Inactive)
REMARK    1  A    between atoms: C_1  and  C_2
REMARK    2  A    between atoms: C_2  and  O_3
REMARK    3  A    between atoms: O_3  and  C_4
REMARK    4  A    between atoms: C_7  and  N_8
REMARK    5  A    between atoms: C_9  and  C_11
REMARK    6  A    between atoms: C_11  and  N_12
REMARK    7  A    between atoms: N_12  and  C_13
REMARK    8  A    between atoms: N_12  and  S_23
REMARK    9  A    between atoms: C_16  and  O_17
REMARK   10  A    between atoms: O_17  and  C_18
REMARK   11  A    between atoms: C_19  and  O_20
REMARK   12  A    between atoms: O_20  and  C_21
REMARK   13  A    between atoms: S_23  and  C_26
REMARK   14  A    between atoms: C_29  and  C_30
REMARK                            x       y       z     vdW  Elec       q    Type
REMARK                         _______ _______ _______ _____ _____    ______ ____
ROOT
ATOM      1  N   UNL     1      -0.065  11.301  19.729  0.00  0.00    +0.000 N 
ENDROOT
BRANCH   1   2
ATOM      2  C   UNL     1      -1.342  11.206  19.072  0.00  0.00    +0.000 A 
ATOM      3  C   UNL     1      -2.386  11.977  19.575  0.00  0.00    +0.000 A 
ATOM      4  C   UNL     1      -3.639  11.941  18.967  0.00  0.00    +0.000 A 
ATOM      5  C   UNL     1      -3.870  11.146  17.838  0.00  0.00    +0.000 A 
ATOM      6  C   UNL     1      -2.823  10.362  17.323  0.00  0.00    +0.000 A 
ATOM      7  C   UNL     1      -1.566  10.383  17.959  0.00  0.00    +0.000 A 
BRANCH   5   8
ATOM      8  O   UNL     1      -5.166  11.205  17.398  0.00  0.00    +0.000 OA
ATOM      9  C   UNL     1      -5.694  12.489  17.091  0.00  0.00    +0.000 C 
ENDBRANCH   5   8
BRANCH   6  10
ATOM     10  O   UNL     1      -3.092   9.536  16.261  0.00  0.00    +0.000 OA
ATOM     11  C   UNL     1      -2.943  10.118  14.970  0.00  0.00    +0.000 C 
ENDBRANCH   6  10
ENDBRANCH   1   2
BRANCH   1  12
ATOM     12  S   UNL     1       0.055  10.787  21.342  0.00  0.00    +0.000 S 
ATOM     13  O   UNL     1      -0.677   9.538  21.455  0.00  0.00    +0.000 OA
ATOM     14  O   UNL     1       1.441  10.854  21.757  0.00  0.00    +0.000 OA
BRANCH  12  15
ATOM     15  C   UNL     1      -0.842  12.008  22.280  0.00  0.00    +0.000 A 
ATOM     16  C   UNL     1      -0.435  13.346  22.268  0.00  0.00    +0.000 A 
ATOM     17  C   UNL     1      -1.171  14.302  22.977  0.00  0.00    +0.000 A 
ATOM     18  C   UNL     1      -2.324  13.931  23.683  0.00  0.00    +0.000 A 
ATOM     19  C   UNL     1      -3.095  14.935  24.492  0.00  0.00    +0.000 C 
ATOM     20  C   UNL     1      -2.752  12.598  23.641  0.00  0.00    +0.000 A 
ATOM     21  C   UNL     1      -2.022  11.639  22.935  0.00  0.00    +0.000 A 
ENDBRANCH  12  15
ENDBRANCH   1  12
BRANCH   1  22
ATOM     22  C   UNL     1       1.152  11.252  18.894  0.00  0.00    +0.000 C 
BRANCH  22  24
ATOM     23  N   UNL     1       1.672   8.966  19.644  0.00  0.00    +0.000 N 
ATOM     24  C   UNL     1       1.506   9.806  18.546  0.00  0.00    +0.000 C 
ATOM     25  O   UNL     1       1.592   9.468  17.363  0.00  0.00    +0.000 OA
ATOM     26  H   UNL     1       1.447   9.339  20.561  0.00  0.00    +0.000 HD
BRANCH  23  30
ATOM     27  C   UNL     1       2.632   4.836  19.559  0.00  0.00    +0.000 A 
ATOM     28  C   UNL     1       3.057   5.671  18.530  0.00  0.00    +0.000 A 
ATOM     29  C   UNL     1       2.755   7.036  18.547  0.00  0.00    +0.000 A 
ATOM     30  C   UNL     1       2.014   7.592  19.588  0.00  0.00    +0.000 A 
ATOM     31  C   UNL     1       1.593   6.750  20.632  0.00  0.00    +0.000 A 
ATOM     32  C   UNL     1       1.882   5.373  20.603  0.00  0.00    +0.000 A 
BRANCH  27  33
ATOM     33  O   UNL     1       2.992   3.526  19.416  0.00  0.00    +0.000 OA
BRANCH  33  35
ATOM     34  C   UNL     1       1.050   2.337  18.723  0.00  0.00    +0.000 C 
ATOM     35  C   UNL     1       2.052   2.544  19.848  0.00  0.00    +0.000 C 
ENDBRANCH  33  35
ENDBRANCH  27  33
ENDBRANCH  23  30
ENDBRANCH  22  24
ENDBRANCH   1  22
TORSDOF 10
ENDMDL
MODEL 2
REMARK VINA RESULT:      -7.5      0.588      1.299
REMARK  Name = 
REMARK  14 active torsions:
REMARK  status: ('A' for Active; 'I' for Inactive)
REMARK    1  A    between atoms: C_1  and  C_2
REMARK    2  A    between atoms: C_2  and  O_3
REMARK    3  A    between atoms: O_3  and  C_4
REMARK    4  A    between atoms: C_7  and  N_8
REMARK    5  A    between atoms: C_9  and  C_11
REMARK    6  A    between atoms: C_11  and  N_12
REMARK    7  A    between atoms: N_12  and  C_13
REMARK    8  A    between atoms: N_12  and  S_23
REMARK    9  A    between atoms: C_16  and  O_17
REMARK   10  A    between atoms: O_17  and  C_18
REMARK   11  A    between atoms: C_19  and  O_20
REMARK   12  A    between atoms: O_20  and  C_21
REMARK   13  A    between atoms: S_23  and  C_26
REMARK   14  A    between atoms: C_29  and  C_30
REMARK                            x       y       z     vdW  Elec       q    Type
REMARK                         _______ _______ _______ _____ _____    ______ ____
ROOT
ATOM      1  N   UNL     1       0.056  10.965  19.594  0.00  0.00    +0.000 N 
ENDROOT
BRANCH   1   2
ATOM      2  C   UNL     1      -1.210  10.981  18.908  0.00  0.00    +0.000 A 
ATOM      3  C   UNL     1      -2.198  11.831  19.397  0.00  0.00    +0.000 A 
ATOM      4  C   UNL     1      -3.436  11.904  18.762  0.00  0.00    +0.000 A 
ATOM      5  C   UNL     1      -3.705  11.141  17.620  0.00  0.00    +0.000 A 
ATOM      6  C   UNL     1      -2.715  10.278  17.118  0.00  0.00    +0.000 A 
ATOM      7  C   UNL     1      -1.475  10.190  17.782  0.00  0.00    +0.000 A 
BRANCH   5   8
ATOM      8  O   UNL     1      -4.982  11.310  17.152  0.00  0.00    +0.000 OA
ATOM      9  C   UNL     1      -5.761  12.344  17.739  0.00  0.00    +0.000 C 
ENDBRANCH   5   8
BRANCH   6  10
ATOM     10  O   UNL     1      -3.027   9.487  16.042  0.00  0.00    +0.000 OA
ATOM     11  C   UNL     1      -2.935  10.111  14.766  0.00  0.00    +0.000 C 
ENDBRANCH   6  10
ENDBRANCH   1   2
BRANCH   1  12
ATOM     12  S   UNL     1       0.085  10.504  21.227  0.00  0.00    +0.000 S 
ATOM     13  O   UNL     1      -0.718   9.301  21.353  0.00  0.00    +0.000 OA
ATOM     14  O   UNL     1       1.456  10.512  21.696  0.00  0.00    +0.000 OA
BRANCH  12  15
ATOM     15  C   UNL     1      -0.780  11.804  22.086  0.00  0.00    +0.000 A 
ATOM     16  C   UNL     1      -1.890  11.507  22.882  0.00  0.00    +0.000 A 
ATOM     17  C   UNL     1      -2.536  12.532  23.583  0.00  0.00    +0.000 A 
ATOM     18  C   UNL     1      -2.066  13.850  23.506  0.00  0.00    +0.000 A 
ATOM     19  C   UNL     1      -2.780  14.970  24.210  0.00  0.00    +0.000 C 
ATOM     20  C   UNL     1      -0.921  14.126  22.749  0.00  0.00    +0.000 A 
ATOM     21  C   UNL     1      -0.271  13.107  22.048  0.00  0.00    +0.000 A 
ENDBRANCH  12  15
ENDBRANCH   1  12
BRANCH   1  22
ATOM     22  C   UNL     1       1.279  10.753  18.793  0.00  0.00    +0.000 C 
BRANCH  22  24
ATOM     23  N   UNL     1       1.887   8.561  19.730  0.00  0.00    +0.000 N 
ATOM     24  C   UNL     1       1.529   9.260  18.581  0.00  0.00    +0.000 C 
ATOM     25  O   UNL     1       1.379   8.772  17.459  0.00  0.00    +0.000 OA
ATOM     26  H   UNL     1       1.850   9.057  20.614  0.00  0.00    +0.000 HD
BRANCH  23  30
ATOM     27  C   UNL     1       2.858   4.434  19.859  0.00  0.00    +0.000 A 
ATOM     28  C   UNL     1       1.859   4.941  20.685  0.00  0.00    +0.000 A 
ATOM     29  C   UNL     1       1.522   6.298  20.650  0.00  0.00    +0.000 A 
ATOM     30  C   UNL     1       2.184   7.176  19.794  0.00  0.00    +0.000 A 
ATOM     31  C   UNL     1       3.185   6.663  18.952  0.00  0.00    +0.000 A 
ATOM     32  C   UNL     1       3.535   5.300  19.003  0.00  0.00    +0.000 A 
BRANCH  27  33
ATOM     33  O   UNL     1       3.087   3.095  19.997  0.00  0.00    +0.000 OA
BRANCH  33  35
ATOM     34  C   UNL     1       3.094   1.865  17.959  0.00  0.00    +0.000 C 
ATOM     35  C   UNL     1       2.292   2.216  19.202  0.00  0.00    +0.000 C 
ENDBRANCH  33  35
ENDBRANCH  27  33
ENDBRANCH  23  30
ENDBRANCH  22  24
ENDBRANCH   1  22
TORSDOF 10
ENDMDL
MODEL 3
REMARK VINA RESULT:      -7.4      2.129      5.043
REMARK  Name = 
REMARK  14 active torsions:
REMARK  status: ('A' for Active; 'I' for Inactive)
REMARK    1  A    between atoms: C_1  and  C_2
REMARK    2  A    between atoms: C_2  and  O_3
REMARK    3  A    between atoms: O_3  and  C_4
REMARK    4  A    between atoms: C_7  and  N_8
REMARK    5  A    between atoms: C_9  and  C_11
REMARK    6  A    between atoms: C_11  and  N_12
REMARK    7  A    between atoms: N_12  and  C_13
REMARK    8  A    between atoms: N_12  and  S_23
REMARK    9  A    between atoms: C_16  and  O_17
REMARK   10  A    between atoms: O_17  and  C_18
REMARK   11  A    between atoms: C_19  and  O_20
REMARK   12  A    between atoms: O_20  and  C_21
REMARK   13  A    between atoms: S_23  and  C_26
REMARK   14  A    between atoms: C_29  and  C_30
REMARK                            x       y       z     vdW  Elec       q    Type
REMARK                         _______ _______ _______ _____ _____    ______ ____
ROOT
ATOM      1  N   UNL     1      -0.390  11.476  21.454  0.00  0.00    +0.000 N 
ENDROOT
BRANCH   1   2
ATOM      2  C   UNL     1      -1.341  12.312  22.138  0.00  0.00    +0.000 A 
ATOM      3  C   UNL     1      -0.847  13.232  23.058  0.00  0.00    +0.000 A 
ATOM      4  C   UNL     1      -1.719  14.083  23.734  0.00  0.00    +0.000 A 
ATOM      5  C   UNL     1      -3.097  14.041  23.495  0.00  0.00    +0.000 A 
ATOM      6  C   UNL     1      -3.607  13.114  22.569  0.00  0.00    +0.000 A 
ATOM      7  C   UNL     1      -2.722  12.239  21.908  0.00  0.00    +0.000 A 
BRANCH   5   8
ATOM      8  O   UNL     1      -3.803  14.920  24.275  0.00  0.00    +0.000 OA
ATOM      9  C   UNL     1      -3.117  15.526  25.362  0.00  0.00    +0.000 C 
ENDBRANCH   5   8
BRANCH   6  10
ATOM     10  O   UNL     1      -4.967  13.041  22.405  0.00  0.00    +0.000 OA
ATOM     11  C   UNL     1      -5.414  12.451  21.188  0.00  0.00    +0.000 C 
ENDBRANCH   6  10
ENDBRANCH   1   2
BRANCH   1  12
ATOM     12  S   UNL     1       0.320  12.060  20.027  0.00  0.00    +0.000 S 
ATOM     13  O   UNL     1       0.123  13.498  20.001  0.00  0.00    +0.000 OA
ATOM     14  O   UNL     1       1.655  11.510  19.905  0.00  0.00    +0.000 OA
BRANCH  12  15
ATOM     15  C   UNL     1      -0.663  11.371  18.709  0.00  0.00    +0.000 A 
ATOM     16  C   UNL     1      -0.384  10.092  18.216  0.00  0.00    +0.000 A 
ATOM     17  C   UNL     1      -1.188   9.547  17.209  0.00  0.00    +0.000 A 
ATOM     18  C   UNL     1      -2.281  10.266  16.705  0.00  0.00    +0.000 A 
ATOM     19  C   UNL     1      -3.121   9.717  15.587  0.00  0.00    +0.000 C 
ATOM     20  C   UNL     1      -2.582  11.522  17.246  0.00  0.00    +0.000 A 
ATOM     21  C   UNL     1      -1.784  12.071  18.252  0.00  0.00    +0.000 A 
ENDBRANCH  12  15
ENDBRANCH   1  12
BRANCH   1  22
ATOM     22  C   UNL     1       0.364  10.485  22.248  0.00  0.00    +0.000 C 
BRANCH  22  24
ATOM     23  N   UNL     1       1.565   8.684  21.078  0.00  0.00    +0.000 N 
ATOM     24  C   UNL     1       0.335   9.117  21.566  0.00  0.00    +0.000 C 
ATOM     25  O   UNL     1      -0.723   8.486  21.513  0.00  0.00    +0.000 OA
ATOM     26  H   UNL     1       2.383   9.241  21.300  0.00  0.00    +0.000 HD
BRANCH  23  30
ATOM     27  C   UNL     1       2.306   5.084  18.961  0.00  0.00    +0.000 A 
ATOM     28  C   UNL     1       1.849   5.038  20.275  0.00  0.00    +0.000 A 
ATOM     29  C   UNL     1       1.594   6.215  20.985  0.00  0.00    +0.000 A 
ATOM     30  C   UNL     1       1.798   7.463  20.397  0.00  0.00    +0.000 A 
ATOM     31  C   UNL     1       2.249   7.509  19.067  0.00  0.00    +0.000 A 
ATOM     32  C   UNL     1       2.523   6.322  18.361  0.00  0.00    +0.000 A 
BRANCH  27  33
ATOM     33  O   UNL     1       2.517   3.863  18.387  0.00  0.00    +0.000 OA
BRANCH  33  35
ATOM     34  C   UNL     1       4.498   3.593  17.095  0.00  0.00    +0.000 C 
ATOM     35  C   UNL     1       3.001   3.852  17.045  0.00  0.00    +0.000 C 
ENDBRANCH  33  35
ENDBRANCH  27  33
ENDBRANCH  23  30
ENDBRANCH  22  24
ENDBRANCH   1  22
TORSDOF 10
ENDMDL
MODEL 4
REMARK VINA RESULT:      -7.4      2.051      4.953
REMARK  Name = 
REMARK  14 active torsions:
REMARK  status: ('A' for Active; 'I' for Inactive)
REMARK    1  A    between atoms: C_1  and  C_2
REMARK    2  A    between atoms: C_2  and  O_3
REMARK    3  A    between atoms: O_3  and  C_4
REMARK    4  A    between atoms: C_7  and  N_8
REMARK    5  A    between atoms: C_9  and  C_11
REMARK    6  A    between atoms: C_11  and  N_12
REMARK    7  A    between atoms: N_12  and  C_13
REMARK    8  A    between atoms: N_12  and  S_23
REMARK    9  A    between atoms: C_16  and  O_17
REMARK   10  A    between atoms: O_17  and  C_18
REMARK   11  A    between atoms: C_19  and  O_20
REMARK   12  A    between atoms: O_20  and  C_21
REMARK   13  A    between atoms: S_23  and  C_26
REMARK   14  A    between atoms: C_29  and  C_30
REMARK                            x       y       z     vdW  Elec       q    Type
REMARK                         _______ _______ _______ _____ _____    ______ ____
ROOT
ATOM      1  N   UNL     1      -0.307  11.265  21.471  0.00  0.00    +0.000 N 
ENDROOT
BRANCH   1   2
ATOM      2  C   UNL     1      -1.220  12.115  22.189  0.00  0.00    +0.000 A 
ATOM      3  C   UNL     1      -0.678  13.114  22.992  0.00  0.00    +0.000 A 
ATOM      4  C   UNL     1      -1.514  13.980  23.694  0.00  0.00    +0.000 A 
ATOM      5  C   UNL     1      -2.906  13.874  23.595  0.00  0.00    +0.000 A 
ATOM      6  C   UNL     1      -3.465  12.868  22.788  0.00  0.00    +0.000 A 
ATOM      7  C   UNL     1      -2.613  11.979  22.103  0.00  0.00    +0.000 A 
BRANCH   5   8
ATOM      8  O   UNL     1      -3.569  14.781  24.381  0.00  0.00    +0.000 OA
ATOM      9  C   UNL     1      -2.932  15.193  25.583  0.00  0.00    +0.000 C 
ENDBRANCH   5   8
BRANCH   6  10
ATOM     10  O   UNL     1      -4.830  12.737  22.765  0.00  0.00    +0.000 OA
ATOM     11  C   UNL     1      -5.402  12.426  21.498  0.00  0.00    +0.000 C 
ENDBRANCH   6  10
ENDBRANCH   1   2
BRANCH   1  12
ATOM     12  S   UNL     1       0.378  11.849  20.032  0.00  0.00    +0.000 S 
ATOM     13  O   UNL     1       0.252  13.295  20.046  0.00  0.00    +0.000 OA
ATOM     14  O   UNL     1       1.677  11.236  19.845  0.00  0.00    +0.000 OA
BRANCH  12  15
ATOM     15  C   UNL     1      -0.688  11.241  18.739  0.00  0.00    +0.000 A 
ATOM     16  C   UNL     1      -1.721  12.042  18.242  0.00  0.00    +0.000 A 
ATOM     17  C   UNL     1      -2.525  11.569  17.199  0.00  0.00    +0.000 A 
ATOM     18  C   UNL     1      -2.291  10.307  16.637  0.00  0.00    +0.000 A 
ATOM     19  C   UNL     1      -3.178   9.763  15.553  0.00  0.00    +0.000 C 
ATOM     20  C   UNL     1      -1.218   9.538  17.106  0.00  0.00    +0.000 A 
ATOM     21  C   UNL     1      -0.411  10.005  18.146  0.00  0.00    +0.000 A 
ENDBRANCH  12  15
ENDBRANCH   1  12
BRANCH   1  22
ATOM     22  C   UNL     1       0.447  10.251  22.235  0.00  0.00    +0.000 C 
BRANCH  22  24
ATOM     23  N   UNL     1       1.607   8.498  20.956  0.00  0.00    +0.000 N 
ATOM     24  C   UNL     1       0.401   8.899  21.523  0.00  0.00    +0.000 C 
ATOM     25  O   UNL     1      -0.649   8.252  21.515  0.00  0.00    +0.000 OA
ATOM     26  H   UNL     1       2.428   9.064  21.145  0.00  0.00    +0.000 HD
BRANCH  23  30
ATOM     27  C   UNL     1       2.195   4.852  18.870  0.00  0.00    +0.000 A 
ATOM     28  C   UNL     1       2.498   6.063  18.255  0.00  0.00    +0.000 A 
ATOM     29  C   UNL     1       2.316   7.274  18.931  0.00  0.00    +0.000 A 
ATOM     30  C   UNL     1       1.819   7.297  20.233  0.00  0.00    +0.000 A 
ATOM     31  C   UNL     1       1.524   6.074  20.858  0.00  0.00    +0.000 A 
ATOM     32  C   UNL     1       1.690   4.858  20.169  0.00  0.00    +0.000 A 
BRANCH  27  33
ATOM     33  O   UNL     1       2.417   3.748  18.097  0.00  0.00    +0.000 OA
BRANCH  33  35
ATOM     34  C   UNL     1       3.616   1.794  18.734  0.00  0.00    +0.000 C 
ATOM     35  C   UNL     1       2.258   2.476  18.723  0.00  0.00    +0.000 C 
ENDBRANCH  33  35
ENDBRANCH  27  33
ENDBRANCH  23  30
ENDBRANCH  22  24
ENDBRANCH   1  22
TORSDOF 10
ENDMDL
MODEL 5
REMARK VINA RESULT:      -7.4      2.227      4.804
REMARK  Name = 
REMARK  14 active torsions:
REMARK  status: ('A' for Active; 'I' for Inactive)
REMARK    1  A    between atoms: C_1  and  C_2
REMARK    2  A    between atoms: C_2  and  O_3
REMARK    3  A    between atoms: O_3  and  C_4
REMARK    4  A    between atoms: C_7  and  N_8
REMARK    5  A    between atoms: C_9  and  C_11
REMARK    6  A    between atoms: C_11  and  N_12
REMARK    7  A    between atoms: N_12  and  C_13
REMARK    8  A    between atoms: N_12  and  S_23
REMARK    9  A    between atoms: C_16  and  O_17
REMARK   10  A    between atoms: O_17  and  C_18
REMARK   11  A    between atoms: C_19  and  O_20
REMARK   12  A    between atoms: O_20  and  C_21
REMARK   13  A    between atoms: S_23  and  C_26
REMARK   14  A    between atoms: C_29  and  C_30
REMARK                            x       y       z     vdW  Elec       q    Type
REMARK                         _______ _______ _______ _____ _____    ______ ____
ROOT
ATOM      1  N   UNL     1      -0.916  11.236  21.386  0.00  0.00    +0.000 N 
ENDROOT
BRANCH   1   2
ATOM      2  C   UNL     1      -2.072  11.865  21.971  0.00  0.00    +0.000 A 
ATOM      3  C   UNL     1      -2.240  11.752  23.348  0.00  0.00    +0.000 A 
ATOM      4  C   UNL     1      -3.329  12.358  23.972  0.00  0.00    +0.000 A 
ATOM      5  C   UNL     1      -4.261  13.097  23.235  0.00  0.00    +0.000 A 
ATOM      6  C   UNL     1      -4.101  13.216  21.844  0.00  0.00    +0.000 A 
ATOM      7  C   UNL     1      -3.012  12.579  21.216  0.00  0.00    +0.000 A 
BRANCH   5   8
ATOM      8  O   UNL     1      -5.284  13.588  24.005  0.00  0.00    +0.000 OA
ATOM      9  C   UNL     1      -6.493  12.841  24.038  0.00  0.00    +0.000 C 
ENDBRANCH   5   8
BRANCH   6  10
ATOM     10  O   UNL     1      -5.066  13.884  21.134  0.00  0.00    +0.000 OA
ATOM     11  C   UNL     1      -4.811  15.263  20.884  0.00  0.00    +0.000 C 
ENDBRANCH   6  10
ENDBRANCH   1   2
BRANCH   1  12
ATOM     12  S   UNL     1      -0.180  11.983  20.051  0.00  0.00    +0.000 S 
ATOM     13  O   UNL     1      -0.491  13.399  20.119  0.00  0.00    +0.000 OA
ATOM     14  O   UNL     1       1.200  11.548  19.968  0.00  0.00    +0.000 OA
BRANCH  12  15
ATOM     15  C   UNL     1      -1.032  11.326  18.631  0.00  0.00    +0.000 A 
ATOM     16  C   UNL     1      -1.950  12.115  17.931  0.00  0.00    +0.000 A 
ATOM     17  C   UNL     1      -2.583  11.601  16.794  0.00  0.00    +0.000 A 
ATOM     18  C   UNL     1      -2.289  10.307  16.341  0.00  0.00    +0.000 A 
ATOM     19  C   UNL     1      -2.999   9.721  15.154  0.00  0.00    +0.000 C 
ATOM     20  C   UNL     1      -1.328   9.547  17.019  0.00  0.00    +0.000 A 
ATOM     21  C   UNL     1      -0.692  10.055  18.154  0.00  0.00    +0.000 A 
ENDBRANCH  12  15
ENDBRANCH   1  12
BRANCH   1  22
ATOM     22  C   UNL     1      -0.079  10.378  22.248  0.00  0.00    +0.000 C 
BRANCH  22  24
ATOM     23  N   UNL     1       1.306   8.838  20.919  0.00  0.00    +0.000 N 
ATOM     24  C   UNL     1       0.110   9.001  21.612  0.00  0.00    +0.000 C 
ATOM     25  O   UNL     1      -0.757   8.137  21.764  0.00  0.00    +0.000 OA
ATOM     26  H   UNL     1       1.990   9.585  20.977  0.00  0.00    +0.000 HD
BRANCH  23  30
ATOM     27  C   UNL     1       2.473   5.270  18.945  0.00  0.00    +0.000 A 
ATOM     28  C   UNL     1       2.586   6.495  18.294  0.00  0.00    +0.000 A 
ATOM     29  C   UNL     1       2.212   7.681  18.933  0.00  0.00    +0.000 A 
ATOM     30  C   UNL     1       1.709   7.665  20.233  0.00  0.00    +0.000 A 
ATOM     31  C   UNL     1       1.605   6.429  20.894  0.00  0.00    +0.000 A 
ATOM     32  C   UNL     1       1.964   5.235  20.242  0.00  0.00    +0.000 A 
BRANCH  27  33
ATOM     33  O   UNL     1       2.870   4.192  18.206  0.00  0.00    +0.000 OA
BRANCH  33  35
ATOM     34  C   UNL     1       3.447   1.897  18.460  0.00  0.00    +0.000 C 
ATOM     35  C   UNL     1       3.842   3.327  18.791  0.00  0.00    +0.000 C 
ENDBRANCH  33  35
ENDBRANCH  27  33
ENDBRANCH  23  30
ENDBRANCH  22  24
ENDBRANCH   1  22
TORSDOF 10
ENDMDL
MODEL 6
REMARK VINA RESULT:      -7.3      2.065      4.997
REMARK  Name = 
REMARK  14 active torsions:
REMARK  status: ('A' for Active; 'I' for Inactive)
REMARK    1  A    between atoms: C_1  and  C_2
REMARK    2  A    between atoms: C_2  and  O_3
REMARK    3  A    between atoms: O_3  and  C_4
REMARK    4  A    between atoms: C_7  and  N_8
REMARK    5  A    between atoms: C_9  and  C_11
REMARK    6  A    between atoms: C_11  and  N_12
REMARK    7  A    between atoms: N_12  and  C_13
REMARK    8  A    between atoms: N_12  and  S_23
REMARK    9  A    between atoms: C_16  and  O_17
REMARK   10  A    between atoms: O_17  and  C_18
REMARK   11  A    between atoms: C_19  and  O_20
REMARK   12  A    between atoms: O_20  and  C_21
REMARK   13  A    between atoms: S_23  and  C_26
REMARK   14  A    between atoms: C_29  and  C_30
REMARK                            x       y       z     vdW  Elec       q    Type
REMARK                         _______ _______ _______ _____ _____    ______ ____
ROOT
ATOM      1  N   UNL     1       0.414  10.814  20.928  0.00  0.00    +0.000 N 
ENDROOT
BRANCH   1   2
ATOM      2  C   UNL     1      -0.237  11.834  21.708  0.00  0.00    +0.000 A 
ATOM      3  C   UNL     1       0.334  13.104  21.715  0.00  0.00    +0.000 A 
ATOM      4  C   UNL     1      -0.263  14.136  22.435  0.00  0.00    +0.000 A 
ATOM      5  C   UNL     1      -1.448  13.924  23.150  0.00  0.00    +0.000 A 
ATOM      6  C   UNL     1      -2.032  12.645  23.151  0.00  0.00    +0.000 A 
ATOM      7  C   UNL     1      -1.407  11.599  22.442  0.00  0.00    +0.000 A 
BRANCH   5   8
ATOM      8  O   UNL     1      -1.871  15.037  23.828  0.00  0.00    +0.000 OA
ATOM      9  C   UNL     1      -1.306  15.274  25.111  0.00  0.00    +0.000 C 
ENDBRANCH   5   8
BRANCH   6  10
ATOM     10  O   UNL     1      -3.151  12.443  23.918  0.00  0.00    +0.000 OA
ATOM     11  C   UNL     1      -4.391  12.793  23.310  0.00  0.00    +0.000 C 
ENDBRANCH   6  10
ENDBRANCH   1   2
BRANCH   1  12
ATOM     12  S   UNL     1       0.775  11.147  19.303  0.00  0.00    +0.000 S 
ATOM     13  O   UNL     1       1.239  12.521  19.234  0.00  0.00    +0.000 OA
ATOM     14  O   UNL     1       1.596  10.078  18.773  0.00  0.00    +0.000 OA
BRANCH  12  15
ATOM     15  C   UNL     1      -0.795  11.081  18.461  0.00  0.00    +0.000 A 
ATOM     16  C   UNL     1      -1.097  10.009  17.615  0.00  0.00    +0.000 A 
ATOM     17  C   UNL     1      -2.348   9.949  16.991  0.00  0.00    +0.000 A 
ATOM     18  C   UNL     1      -3.307  10.944  17.224  0.00  0.00    +0.000 A 
ATOM     19  C   UNL     1      -4.634  10.922  16.521  0.00  0.00    +0.000 C 
ATOM     20  C   UNL     1      -3.012  11.983  18.116  0.00  0.00    +0.000 A 
ATOM     21  C   UNL     1      -1.765  12.049  18.742  0.00  0.00    +0.000 A 
ENDBRANCH  12  15
ENDBRANCH   1  12
BRANCH   1  22
ATOM     22  C   UNL     1       1.251   9.824  21.634  0.00  0.00    +0.000 C 
BRANCH  22  24
ATOM     23  N   UNL     1       1.956   7.741  20.531  0.00  0.00    +0.000 N 
ATOM     24  C   UNL     1       0.914   8.408  21.170  0.00  0.00    +0.000 C 
ATOM     25  O   UNL     1      -0.203   7.941  21.402  0.00  0.00    +0.000 OA
ATOM     26  H   UNL     1       2.866   8.190  20.519  0.00  0.00    +0.000 HD
BRANCH  23  30
ATOM     27  C   UNL     1       1.725   3.781  19.030  0.00  0.00    +0.000 A 
ATOM     28  C   UNL     1       2.069   4.829  18.181  0.00  0.00    +0.000 A 
ATOM     29  C   UNL     1       2.156   6.139  18.662  0.00  0.00    +0.000 A 
ATOM     30  C   UNL     1       1.892   6.428  19.999  0.00  0.00    +0.000 A 
ATOM     31  C   UNL     1       1.555   5.369  20.858  0.00  0.00    +0.000 A 
ATOM     32  C   UNL     1       1.450   4.054  20.368  0.00  0.00    +0.000 A 
BRANCH  27  33
ATOM     33  O   UNL     1       1.673   2.554  18.431  0.00  0.00    +0.000 OA
BRANCH  33  35
ATOM     34  C   UNL     1       3.827   1.625  18.832  0.00  0.00    +0.000 C 
ATOM     35  C   UNL     1       2.855   2.107  17.768  0.00  0.00    +0.000 C 
ENDBRANCH  33  35
ENDBRANCH  27  33
ENDBRANCH  23  30
ENDBRANCH  22  24
ENDBRANCH   1  22
TORSDOF 10
ENDMDL
MODEL 7
REMARK VINA RESULT:      -7.3      2.189      5.295
REMARK  Name = 
REMARK  14 active torsions:
REMARK  status: ('A' for Active; 'I' for Inactive)
REMARK    1  A    between atoms: C_1  and  C_2
REMARK    2  A    between atoms: C_2  and  O_3
REMARK    3  A    between atoms: O_3  and  C_4
REMARK    4  A    between atoms: C_7  and  N_8
REMARK    5  A    between atoms: C_9  and  C_11
REMARK    6  A    between atoms: C_11  and  N_12
REMARK    7  A    between atoms: N_12  and  C_13
REMARK    8  A    between atoms: N_12  and  S_23
REMARK    9  A    between atoms: C_16  and  O_17
REMARK   10  A    between atoms: O_17  and  C_18
REMARK   11  A    between atoms: C_19  and  O_20
REMARK   12  A    between atoms: O_20  and  C_21
REMARK   13  A    between atoms: S_23  and  C_26
REMARK   14  A    between atoms: C_29  and  C_30
REMARK                            x       y       z     vdW  Elec       q    Type
REMARK                         _______ _______ _______ _____ _____    ______ ____
ROOT
ATOM      1  N   UNL     1      -0.542  11.527  21.704  0.00  0.00    +0.000 N 
ENDROOT
BRANCH   1   2
ATOM      2  C   UNL     1      -1.419  12.380  22.463  0.00  0.00    +0.000 A 
ATOM      3  C   UNL     1      -2.785  12.118  22.406  0.00  0.00    +0.000 A 
ATOM      4  C   UNL     1      -3.679  12.897  23.137  0.00  0.00    +0.000 A 
ATOM      5  C   UNL     1      -3.226  13.944  23.948  0.00  0.00    +0.000 A 
ATOM      6  C   UNL     1      -1.848  14.219  24.012  0.00  0.00    +0.000 A 
ATOM      7  C   UNL     1      -0.952  13.443  23.249  0.00  0.00    +0.000 A 
BRANCH   5   8
ATOM      8  O   UNL     1      -4.244  14.625  24.562  0.00  0.00    +0.000 OA
ATOM      9  C   UNL     1      -5.138  15.352  23.729  0.00  0.00    +0.000 C 
ENDBRANCH   5   8
BRANCH   6  10
ATOM     10  O   UNL     1      -1.435  15.294  24.756  0.00  0.00    +0.000 OA
ATOM     11  C   UNL     1      -1.365  16.537  24.064  0.00  0.00    +0.000 C 
ENDBRANCH   6  10
ENDBRANCH   1   2
BRANCH   1  12
ATOM     12  S   UNL     1       0.139  12.137  20.274  0.00  0.00    +0.000 S 
ATOM     13  O   UNL     1      -0.075  13.572  20.268  0.00  0.00    +0.000 OA
ATOM     14  O   UNL     1       1.478  11.604  20.124  0.00  0.00    +0.000 OA
BRANCH  12  15
ATOM     15  C   UNL     1      -0.857  11.452  18.964  0.00  0.00    +0.000 A 
ATOM     16  C   UNL     1      -0.441  10.299  18.290  0.00  0.00    +0.000 A 
ATOM     17  C   UNL     1      -1.251   9.749  17.291  0.00  0.00    +0.000 A 
ATOM     18  C   UNL     1      -2.484  10.334  16.973  0.00  0.00    +0.000 A 
ATOM     19  C   UNL     1      -3.340   9.787  15.867  0.00  0.00    +0.000 C 
ATOM     20  C   UNL     1      -2.914  11.457  17.693  0.00  0.00    +0.000 A 
ATOM     21  C   UNL     1      -2.110  12.010  18.692  0.00  0.00    +0.000 A 
ENDBRANCH  12  15
ENDBRANCH   1  12
BRANCH   1  22
ATOM     22  C   UNL     1       0.191  10.466  22.423  0.00  0.00    +0.000 C 
BRANCH  22  24
ATOM     23  N   UNL     1       1.489   8.868  21.075  0.00  0.00    +0.000 N 
ATOM     24  C   UNL     1       0.235   9.186  21.589  0.00  0.00    +0.000 C 
ATOM     25  O   UNL     1      -0.791   8.517  21.447  0.00  0.00    +0.000 OA
ATOM     26  H   UNL     1       2.278   9.434  21.373  0.00  0.00    +0.000 HD
BRANCH  23  30
ATOM     27  C   UNL     1       2.348   5.445  18.722  0.00  0.00    +0.000 A 
ATOM     28  C   UNL     1       2.459   6.717  18.168  0.00  0.00    +0.000 A 
ATOM     29  C   UNL     1       2.186   7.856  18.932  0.00  0.00    +0.000 A 
ATOM     30  C   UNL     1       1.788   7.745  20.263  0.00  0.00    +0.000 A 
ATOM     31  C   UNL     1       1.686   6.462  20.825  0.00  0.00    +0.000 A 
ATOM     32  C   UNL     1       1.943   5.316  20.049  0.00  0.00    +0.000 A 
BRANCH  27  33
ATOM     33  O   UNL     1       2.640   4.423  17.866  0.00  0.00    +0.000 OA
BRANCH  33  35
ATOM     34  C   UNL     1       4.768   4.089  16.853  0.00  0.00    +0.000 C 
ATOM     35  C   UNL     1       3.890   3.760  18.050  0.00  0.00    +0.000 C 
ENDBRANCH  33  35
ENDBRANCH  27  33
ENDBRANCH  23  30
ENDBRANCH  22  24
ENDBRANCH   1  22
TORSDOF 10
ENDMDL
MODEL 8
REMARK VINA RESULT:      -7.3      8.354     10.815
REMARK  Name = 
REMARK  14 active torsions:
REMARK  status: ('A' for Active; 'I' for Inactive)
REMARK    1  A    between atoms: C_1  and  C_2
REMARK    2  A    between atoms: C_2  and  O_3
REMARK    3  A    between atoms: O_3  and  C_4
REMARK    4  A    between atoms: C_7  and  N_8
REMARK    5  A    between atoms: C_9  and  C_11
REMARK    6  A    between atoms: C_11  and  N_12
REMARK    7  A    between atoms: N_12  and  C_13
REMARK    8  A    between atoms: N_12  and  S_23
REMARK    9  A    between atoms: C_16  and  O_17
REMARK   10  A    between atoms: O_17  and  C_18
REMARK   11  A    between atoms: C_19  and  O_20
REMARK   12  A    between atoms: O_20  and  C_21
REMARK   13  A    between atoms: S_23  and  C_26
REMARK   14  A    between atoms: C_29  and  C_30
REMARK                            x       y       z     vdW  Elec       q    Type
REMARK                         _______ _______ _______ _____ _____    ______ ____
ROOT
ATOM      1  N   UNL     1       9.867  11.892  19.180  0.00  0.00    +0.000 N 
ENDROOT
BRANCH   1   2
ATOM      2  C   UNL     1       8.996  12.999  19.475  0.00  0.00    +0.000 A 
ATOM      3  C   UNL     1       8.975  13.472  20.784  0.00  0.00    +0.000 A 
ATOM      4  C   UNL     1       8.167  14.555  21.124  0.00  0.00    +0.000 A 
ATOM      5  C   UNL     1       7.377  15.194  20.162  0.00  0.00    +0.000 A 
ATOM      6  C   UNL     1       7.390  14.724  18.837  0.00  0.00    +0.000 A 
ATOM      7  C   UNL     1       8.189  13.611  18.507  0.00  0.00    +0.000 A 
BRANCH   5   8
ATOM      8  O   UNL     1       6.620  16.213  20.681  0.00  0.00    +0.000 OA
ATOM      9  C   UNL     1       7.308  17.364  21.150  0.00  0.00    +0.000 C 
ENDBRANCH   5   8
BRANCH   6  10
ATOM     10  O   UNL     1       6.553  15.319  17.928  0.00  0.00    +0.000 OA
ATOM     11  C   UNL     1       5.229  14.796  17.867  0.00  0.00    +0.000 C 
ENDBRANCH   6  10
ENDBRANCH   1   2
BRANCH   1  12
ATOM     12  S   UNL     1      11.476  12.222  18.750  0.00  0.00    +0.000 S 
ATOM     13  O   UNL     1      12.293  12.010  19.930  0.00  0.00    +0.000 OA
ATOM     14  O   UNL     1      11.788  11.525  17.518  0.00  0.00    +0.000 OA
BRANCH  12  15
ATOM     15  C   UNL     1      11.506  13.969  18.396  0.00  0.00    +0.000 A 
ATOM     16  C   UNL     1      11.903  14.880  19.380  0.00  0.00    +0.000 A 
ATOM     17  C   UNL     1      11.961  16.245  19.077  0.00  0.00    +0.000 A 
ATOM     18  C   UNL     1      11.643  16.703  17.791  0.00  0.00    +0.000 A 
ATOM     19  C   UNL     1      11.649  18.169  17.465  0.00  0.00    +0.000 C 
ATOM     20  C   UNL     1      11.301  15.774  16.800  0.00  0.00    +0.000 A 
ATOM     21  C   UNL     1      11.241  14.410  17.096  0.00  0.00    +0.000 A 
ENDBRANCH  12  15
ENDBRANCH   1  12
BRANCH   1  22
ATOM     22  C   UNL     1       9.571  10.587  19.804  0.00  0.00    +0.000 C 
BRANCH  22  24
ATOM     23  N   UNL     1       8.713   8.350  19.241  0.00  0.00    +0.000 N 
ATOM     24  C   UNL     1       8.864   9.665  18.810  0.00  0.00    +0.000 C 
ATOM     25  O   UNL     1       8.458  10.123  17.739  0.00  0.00    +0.000 OA
ATOM     26  H   UNL     1       8.978   8.134  20.196  0.00  0.00    +0.000 HD
BRANCH  23  30
ATOM     27  C   UNL     1       6.887   5.286  16.946  0.00  0.00    +0.000 A 
ATOM     28  C   UNL     1       7.461   4.986  18.177  0.00  0.00    +0.000 A 
ATOM     29  C   UNL     1       8.061   5.985  18.949  0.00  0.00    +0.000 A 
ATOM     30  C   UNL     1       8.107   7.304  18.501  0.00  0.00    +0.000 A 
ATOM     31  C   UNL     1       7.517   7.609  17.263  0.00  0.00    +0.000 A 
ATOM     32  C   UNL     1       6.930   6.598  16.479  0.00  0.00    +0.000 A 
BRANCH  27  33
ATOM     33  O   UNL     1       6.339   4.218  16.296  0.00  0.00    +0.000 OA
BRANCH  33  35
ATOM     34  C   UNL     1       6.203   3.954  13.934  0.00  0.00    +0.000 C 
ATOM     35  C   UNL     1       5.507   4.499  15.171  0.00  0.00    +0.000 C 
ENDBRANCH  33  35
ENDBRANCH  27  33
ENDBRANCH  23  30
ENDBRANCH  22  24
ENDBRANCH   1  22
TORSDOF 10
ENDMDL
MODEL 9
REMARK VINA RESULT:      -7.2      1.834      3.042
REMARK  Name = 
REMARK  14 active torsions:
REMARK  status: ('A' for Active; 'I' for Inactive)
REMARK    1  A    between atoms: C_1  and  C_2
REMARK    2  A    between atoms: C_2  and  O_3
REMARK    3  A    between atoms: O_3  and  C_4
REMARK    4  A    between atoms: C_7  and  N_8
REMARK    5  A    between atoms: C_9  and  C_11
REMARK    6  A    between atoms: C_11  and  N_12
REMARK    7  A    between atoms: N_12  and  C_13
REMARK    8  A    between atoms: N_12  and  S_23
REMARK    9  A    between atoms: C_16  and  O_17
REMARK   10  A    between atoms: O_17  and  C_18
REMARK   11  A    between atoms: C_19  and  O_20
REMARK   12  A    between atoms: O_20  and  C_21
REMARK   13  A    between atoms: S_23  and  C_26
REMARK   14  A    between atoms: C_29  and  C_30
REMARK                            x       y       z     vdW  Elec       q    Type
REMARK                         _______ _______ _______ _____ _____    ______ ____
ROOT
ATOM      1  N   UNL     1      -0.283  10.805  19.993  0.00  0.00    +0.000 N 
ENDROOT
BRANCH   1   2
ATOM      2  C   UNL     1      -1.288  10.867  18.964  0.00  0.00    +0.000 A 
ATOM      3  C   UNL     1      -1.006  10.249  17.749  0.00  0.00    +0.000 A 
ATOM      4  C   UNL     1      -1.950  10.258  16.724  0.00  0.00    +0.000 A 
ATOM      5  C   UNL     1      -3.196  10.871  16.897  0.00  0.00    +0.000 A 
ATOM      6  C   UNL     1      -3.490  11.500  18.120  0.00  0.00    +0.000 A 
ATOM      7  C   UNL     1      -2.521  11.509  19.142  0.00  0.00    +0.000 A 
BRANCH   5   8
ATOM      8  O   UNL     1      -3.981  10.817  15.774  0.00  0.00    +0.000 OA
ATOM      9  C   UNL     1      -3.506  10.040  14.683  0.00  0.00    +0.000 C 
ENDBRANCH   5   8
BRANCH   6  10
ATOM     10  O   UNL     1      -4.688  12.157  18.241  0.00  0.00    +0.000 OA
ATOM     11  C   UNL     1      -5.673  11.509  19.039  0.00  0.00    +0.000 C 
ENDBRANCH   6  10
ENDBRANCH   1   2
BRANCH   1  12
ATOM     12  S   UNL     1       0.384  12.260  20.558  0.00  0.00    +0.000 S 
ATOM     13  O   UNL     1       1.474  11.920  21.454  0.00  0.00    +0.000 OA
ATOM     14  O   UNL     1       0.621  13.140  19.431  0.00  0.00    +0.000 OA
BRANCH  12  15
ATOM     15  C   UNL     1      -0.900  12.998  21.550  0.00  0.00    +0.000 A 
ATOM     16  C   UNL     1      -1.442  12.301  22.634  0.00  0.00    +0.000 A 
ATOM     17  C   UNL     1      -2.421  12.907  23.429  0.00  0.00    +0.000 A 
ATOM     18  C   UNL     1      -2.848  14.215  23.158  0.00  0.00    +0.000 A 
ATOM     19  C   UNL     1      -3.935  14.860  23.969  0.00  0.00    +0.000 C 
ATOM     20  C   UNL     1      -2.257  14.922  22.103  0.00  0.00    +0.000 A 
ATOM     21  C   UNL     1      -1.279  14.322  21.306  0.00  0.00    +0.000 A 
ENDBRANCH  12  15
ENDBRANCH   1  12
BRANCH   1  22
ATOM     22  C   UNL     1      -0.293   9.647  20.908  0.00  0.00    +0.000 C 
BRANCH  22  24
ATOM     23  N   UNL     1       1.187   8.343  19.436  0.00  0.00    +0.000 N 
ATOM     24  C   UNL     1       0.975   8.811  20.730  0.00  0.00    +0.000 C 
ATOM     25  O   UNL     1       1.724   8.630  21.692  0.00  0.00    +0.000 OA
ATOM     26  H   UNL     1       0.561   8.671  18.707  0.00  0.00    +0.000 HD
BRANCH  23  30
ATOM     27  C   UNL     1       4.471   6.010  18.110  0.00  0.00    +0.000 A 
ATOM     28  C   UNL     1       3.796   5.662  19.276  0.00  0.00    +0.000 A 
ATOM     29  C   UNL     1       2.707   6.417  19.723  0.00  0.00    +0.000 A 
ATOM     30  C   UNL     1       2.277   7.539  19.018  0.00  0.00    +0.000 A 
ATOM     31  C   UNL     1       2.952   7.884  17.835  0.00  0.00    +0.000 A 
ATOM     32  C   UNL     1       4.060   7.134  17.397  0.00  0.00    +0.000 A 
BRANCH  27  33
ATOM     33  O   UNL     1       5.516   5.190  17.790  0.00  0.00    +0.000 OA
BRANCH  33  35
ATOM     34  C   UNL     1       7.534   6.427  18.035  0.00  0.00    +0.000 C 
ATOM     35  C   UNL     1       6.690   5.293  18.594  0.00  0.00    +0.000 C 
ENDBRANCH  33  35
ENDBRANCH  27  33
ENDBRANCH  23  30
ENDBRANCH  22  24
ENDBRANCH   1  22
TORSDOF 10
ENDMDL
