MODEL 1
REMARK VINA RESULT:      -7.8      0.000      0.000
REMARK  Name = 
REMARK  12 active torsions:
REMARK  status: ('A' for Active; 'I' for Inactive)
REMARK    1  A    between atoms: C_1  and  O_2
REMARK    2  A    between atoms: O_2  and  C_3
REMARK    3  A    between atoms: C_5  and  O_6
REMARK    4  A    between atoms: O_6  and  C_7
REMARK    5  A    between atoms: C_8  and  C_9
REMARK    6  A    between atoms: C_11  and  C_12
REMARK    7  A    between atoms: C_12  and  O_13
REMARK    8  A    between atoms: C_14  and  C_15
REMARK    9  A    between atoms: C_17  and  O_18
REMARK   10  A    between atoms: C_19  and  O_20
REMARK   11  A    between atoms: C_22  and  C_23
REMARK   12  A    between atoms: C_23  and  C_24
REMARK                            x       y       z     vdW  Elec       q    Type
REMARK                         _______ _______ _______ _____ _____    ______ ____
ROOT
ATOM      1  C   UNL     1       1.880   7.459  20.005  0.00  0.00    +0.000 A 
ATOM      2  C   UNL     1       2.057   6.198  20.569  0.00  0.00    +0.000 A 
ATOM      3  C   UNL     1       2.725   5.180  19.868  0.00  0.00    +0.000 A 
ATOM      4  C   UNL     1       3.222   5.406  18.578  0.00  0.00    +0.000 A 
ATOM      5  C   UNL     1       3.123   6.713  18.083  0.00  0.00    +0.000 A 
ATOM      6  C   UNL     1       2.425   7.733  18.752  0.00  0.00    +0.000 A 
ENDROOT
BRANCH   4   7
ATOM      7  C   UNL     1       3.956   4.402  17.693  0.00  0.00    +0.000 C 
ATOM      8  O   UNL     1       5.165   3.890  18.318  0.00  0.00    +0.000 OA
ATOM      9  C   UNL     1       6.348   4.716  18.319  0.00  0.00    +0.000 C 
ATOM     10  C   UNL     1       6.655   5.398  16.966  0.00  0.00    +0.000 C 
ATOM     11  C   UNL     1       7.615   6.585  17.077  0.00  0.00    +0.000 C 
ATOM     12  F   UNL     1       7.339   4.436  16.241  0.00  0.00    +0.000 F 
ATOM     13  C   UNL     1       5.422   5.753  16.111  0.00  0.00    +0.000 C 
ATOM     14  C   UNL     1       4.293   4.725  16.229  0.00  0.00    +0.000 C 
BRANCH  13  15
ATOM     15  O   UNL     1       4.997   7.107  16.298  0.00  0.00    +0.000 OA
ATOM     16  H   UNL     1       4.417   7.165  17.075  0.00  0.00    +0.000 HD
ENDBRANCH  13  15
BRANCH  14  17
ATOM     17  O   UNL     1       4.703   3.501  15.577  0.00  0.00    +0.000 OA
ATOM     18  H   UNL     1       5.465   3.716  15.004  0.00  0.00    +0.000 HD
ENDBRANCH  14  17
BRANCH   9  19
ATOM     19  C   UNL     1       6.427   5.621  19.561  0.00  0.00    +0.000 C 
BRANCH  19  20
ATOM     20  O   UNL     1       7.641   5.404  20.284  0.00  0.00    +0.000 OA
ATOM     21  H   UNL     1       7.545   4.586  20.802  0.00  0.00    +0.000 HD
ENDBRANCH  19  20
ENDBRANCH   9  19
ENDBRANCH   4   7
BRANCH   1  23
ATOM     22  C   UNL     1      -0.040   8.155  21.236  0.00  0.00    +0.000 C 
ATOM     23  O   UNL     1       1.315   8.383  20.861  0.00  0.00    +0.000 OA
ENDBRANCH   1  23
BRANCH   3  24
ATOM     24  O   UNL     1       2.941   3.942  20.408  0.00  0.00    +0.000 OA
ATOM     25  C   UNL     1       2.194   3.595  21.569  0.00  0.00    +0.000 C 
ENDBRANCH   3  24
BRANCH   6  26
ATOM     26  C   UNL     1       2.406   9.069  18.060  0.00  0.00    +0.000 C 
BRANCH  26  27
ATOM     27  C   UNL     1       1.122   9.855  18.126  0.00  0.00    +0.000 A 
ATOM     28  C   UNL     1      -0.150   9.438  17.713  0.00  0.00    +0.000 A 
ATOM     29  C   UNL     1      -1.287  10.159  18.103  0.00  0.00    +0.000 A 
ATOM     30  C   UNL     1      -1.153  11.257  18.952  0.00  0.00    +0.000 A 
ATOM     31  C   UNL     1       0.113  11.701  19.302  0.00  0.00    +0.000 A 
ATOM     32  C   UNL     1       1.235  11.068  18.801  0.00  0.00    +0.000 A 
ATOM     33  O   UNL     1       0.389  12.649  20.220  0.00  0.00    +0.000 OA
ATOM     34  C   UNL     1      -0.725  13.370  20.689  0.00  0.00    +0.000 C 
ATOM     35  C   UNL     1      -2.128  12.871  20.352  0.00  0.00    +0.000 C 
ATOM     36  O   UNL     1      -2.298  11.801  19.432  0.00  0.00    +0.000 OA
ENDBRANCH  26  27
ENDBRANCH   6  26
TORSDOF 9
ENDMDL
MODEL 2
REMARK VINA RESULT:      -7.6      0.966      1.759
REMARK  Name = 
REMARK  12 active torsions:
REMARK  status: ('A' for Active; 'I' for Inactive)
REMARK    1  A    between atoms: C_1  and  O_2
REMARK    2  A    between atoms: O_2  and  C_3
REMARK    3  A    between atoms: C_5  and  O_6
REMARK    4  A    between atoms: O_6  and  C_7
REMARK    5  A    between atoms: C_8  and  C_9
REMARK    6  A    between atoms: C_11  and  C_12
REMARK    7  A    between atoms: C_12  and  O_13
REMARK    8  A    between atoms: C_14  and  C_15
REMARK    9  A    between atoms: C_17  and  O_18
REMARK   10  A    between atoms: C_19  and  O_20
REMARK   11  A    between atoms: C_22  and  C_23
REMARK   12  A    between atoms: C_23  and  C_24
REMARK                            x       y       z     vdW  Elec       q    Type
REMARK                         _______ _______ _______ _____ _____    ______ ____
ROOT
ATOM      1  C   UNL     1       1.928   7.369  20.072  0.00  0.00    +0.000 A 
ATOM      2  C   UNL     1       2.202   6.116  20.614  0.00  0.00    +0.000 A 
ATOM      3  C   UNL     1       2.898   5.146  19.873  0.00  0.00    +0.000 A 
ATOM      4  C   UNL     1       3.327   5.413  18.567  0.00  0.00    +0.000 A 
ATOM      5  C   UNL     1       3.131   6.717  18.092  0.00  0.00    +0.000 A 
ATOM      6  C   UNL     1       2.404   7.687  18.800  0.00  0.00    +0.000 A 
ENDROOT
BRANCH   4   7
ATOM      7  C   UNL     1       4.081   4.462  17.640  0.00  0.00    +0.000 C 
ATOM      8  O   UNL     1       5.292   3.936  18.250  0.00  0.00    +0.000 OA
ATOM      9  C   UNL     1       6.464   4.775  18.300  0.00  0.00    +0.000 C 
ATOM     10  C   UNL     1       6.772   5.526  16.984  0.00  0.00    +0.000 C 
ATOM     11  C   UNL     1       7.716   6.718  17.160  0.00  0.00    +0.000 C 
ATOM     12  F   UNL     1       7.474   4.609  16.220  0.00  0.00    +0.000 F 
ATOM     13  C   UNL     1       5.541   5.906  16.137  0.00  0.00    +0.000 C 
ATOM     14  C   UNL     1       4.424   4.860  16.197  0.00  0.00    +0.000 C 
BRANCH  13  15
ATOM     15  O   UNL     1       5.097   7.245  16.386  0.00  0.00    +0.000 OA
ATOM     16  H   UNL     1       4.367   7.465  15.783  0.00  0.00    +0.000 HD
ENDBRANCH  13  15
BRANCH  14  17
ATOM     17  O   UNL     1       4.856   3.674  15.489  0.00  0.00    +0.000 OA
ATOM     18  H   UNL     1       4.116   3.387  14.920  0.00  0.00    +0.000 HD
ENDBRANCH  14  17
BRANCH   9  19
ATOM     19  C   UNL     1       6.522   5.621  19.584  0.00  0.00    +0.000 C 
BRANCH  19  20
ATOM     20  O   UNL     1       7.750   5.415  20.286  0.00  0.00    +0.000 OA
ATOM     21  H   UNL     1       8.001   4.479  20.191  0.00  0.00    +0.000 HD
ENDBRANCH  19  20
ENDBRANCH   9  19
ENDBRANCH   4   7
BRANCH   1  23
ATOM     22  C   UNL     1       0.005   7.969  21.348  0.00  0.00    +0.000 C 
ATOM     23  O   UNL     1       1.347   8.250  20.961  0.00  0.00    +0.000 OA
ENDBRANCH   1  23
BRANCH   3  24
ATOM     24  O   UNL     1       3.210   3.918  20.389  0.00  0.00    +0.000 OA
ATOM     25  C   UNL     1       2.371   3.411  21.423  0.00  0.00    +0.000 C 
ENDBRANCH   3  24
BRANCH   6  26
ATOM     26  C   UNL     1       2.277   9.026  18.126  0.00  0.00    +0.000 C 
BRANCH  26  27
ATOM     27  C   UNL     1       1.020   9.813  18.396  0.00  0.00    +0.000 A 
ATOM     28  C   UNL     1       0.921  11.068  19.011  0.00  0.00    +0.000 A 
ATOM     29  C   UNL     1      -0.273  11.797  18.930  0.00  0.00    +0.000 A 
ATOM     30  C   UNL     1      -1.341  11.297  18.186  0.00  0.00    +0.000 A 
ATOM     31  C   UNL     1      -1.256  10.027  17.637  0.00  0.00    +0.000 A 
ATOM     32  C   UNL     1      -0.127   9.255  17.837  0.00  0.00    +0.000 A 
ATOM     33  O   UNL     1      -2.143   9.478  16.781  0.00  0.00    +0.000 OA
ATOM     34  C   UNL     1      -3.341  10.198  16.619  0.00  0.00    +0.000 C 
ATOM     35  C   UNL     1      -3.438  11.616  17.178  0.00  0.00    +0.000 C 
ATOM     36  O   UNL     1      -2.398  12.126  18.001  0.00  0.00    +0.000 OA
ENDBRANCH  26  27
ENDBRANCH   6  26
TORSDOF 9
ENDMDL
MODEL 3
REMARK VINA RESULT:      -7.4      3.066      8.243
REMARK  Name = 
REMARK  12 active torsions:
REMARK  status: ('A' for Active; 'I' for Inactive)
REMARK    1  A    between atoms: C_1  and  O_2
REMARK    2  A    between atoms: O_2  and  C_3
REMARK    3  A    between atoms: C_5  and  O_6
REMARK    4  A    between atoms: O_6  and  C_7
REMARK    5  A    between atoms: C_8  and  C_9
REMARK    6  A    between atoms: C_11  and  C_12
REMARK    7  A    between atoms: C_12  and  O_13
REMARK    8  A    between atoms: C_14  and  C_15
REMARK    9  A    between atoms: C_17  and  O_18
REMARK   10  A    between atoms: C_19  and  O_20
REMARK   11  A    between atoms: C_22  and  C_23
REMARK   12  A    between atoms: C_23  and  C_24
REMARK                            x       y       z     vdW  Elec       q    Type
REMARK                         _______ _______ _______ _____ _____    ______ ____
ROOT
ATOM      1  C   UNL     1       1.827   7.979  20.131  0.00  0.00    +0.000 A 
ATOM      2  C   UNL     1       0.969   8.433  21.130  0.00  0.00    +0.000 A 
ATOM      3  C   UNL     1       0.102   9.514  20.900  0.00  0.00    +0.000 A 
ATOM      4  C   UNL     1       0.084  10.168  19.661  0.00  0.00    +0.000 A 
ATOM      5  C   UNL     1       0.879   9.619  18.646  0.00  0.00    +0.000 A 
ATOM      6  C   UNL     1       1.781   8.566  18.867  0.00  0.00    +0.000 A 
ENDROOT
BRANCH   4   7
ATOM      7  C   UNL     1      -0.791  11.355  19.267  0.00  0.00    +0.000 C 
ATOM      8  O   UNL     1      -0.181  12.174  18.230  0.00  0.00    +0.000 OA
ATOM      9  C   UNL     1       0.862  13.098  18.601  0.00  0.00    +0.000 C 
ATOM     10  C   UNL     1       0.565  13.924  19.874  0.00  0.00    +0.000 C 
ATOM     11  C   UNL     1       1.809  14.556  20.504  0.00  0.00    +0.000 C 
ATOM     12  F   UNL     1      -0.202  14.986  19.426  0.00  0.00    +0.000 F 
ATOM     13  C   UNL     1      -0.300  13.214  20.934  0.00  0.00    +0.000 C 
ATOM     14  C   UNL     1      -1.372  12.305  20.325  0.00  0.00    +0.000 C 
BRANCH  13  15
ATOM     15  O   UNL     1       0.486  12.583  21.952  0.00  0.00    +0.000 OA
ATOM     16  H   UNL     1       1.314  12.251  21.567  0.00  0.00    +0.000 HD
ENDBRANCH  13  15
BRANCH  14  17
ATOM     17  O   UNL     1      -2.379  13.128  19.692  0.00  0.00    +0.000 OA
ATOM     18  H   UNL     1      -2.124  13.236  18.756  0.00  0.00    +0.000 HD
ENDBRANCH  14  17
BRANCH   9  19
ATOM     19  C   UNL     1       2.261  12.460  18.526  0.00  0.00    +0.000 C 
BRANCH  19  20
ATOM     20  O   UNL     1       2.641  12.204  17.173  0.00  0.00    +0.000 OA
ATOM     21  H   UNL     1       3.614  12.208  17.123  0.00  0.00    +0.000 HD
ENDBRANCH  19  20
ENDBRANCH   9  19
ENDBRANCH   4   7
BRANCH   1  23
ATOM     22  C   UNL     1       1.763   5.757  20.993  0.00  0.00    +0.000 C 
ATOM     23  O   UNL     1       2.527   6.838  20.469  0.00  0.00    +0.000 OA
ENDBRANCH   1  23
BRANCH   3  24
ATOM     24  O   UNL     1      -0.774   9.963  21.850  0.00  0.00    +0.000 OA
ATOM     25  C   UNL     1      -0.464   9.680  23.210  0.00  0.00    +0.000 C 
ENDBRANCH   3  24
BRANCH   6  26
ATOM     26  C   UNL     1       2.568   8.120  17.664  0.00  0.00    +0.000 C 
BRANCH  26  27
ATOM     27  C   UNL     1       3.124   6.719  17.691  0.00  0.00    +0.000 A 
ATOM     28  C   UNL     1       4.433   6.332  18.009  0.00  0.00    +0.000 A 
ATOM     29  C   UNL     1       4.722   4.986  18.275  0.00  0.00    +0.000 A 
ATOM     30  C   UNL     1       3.694   4.045  18.281  0.00  0.00    +0.000 A 
ATOM     31  C   UNL     1       2.416   4.425  17.902  0.00  0.00    +0.000 A 
ATOM     32  C   UNL     1       2.165   5.726  17.507  0.00  0.00    +0.000 A 
ATOM     33  O   UNL     1       1.306   3.664  17.999  0.00  0.00    +0.000 OA
ATOM     34  C   UNL     1       1.534   2.313  18.319  0.00  0.00    +0.000 C 
ATOM     35  C   UNL     1       2.924   1.883  18.781  0.00  0.00    +0.000 C 
ATOM     36  O   UNL     1       4.008   2.800  18.717  0.00  0.00    +0.000 OA
ENDBRANCH  26  27
ENDBRANCH   6  26
TORSDOF 9
ENDMDL
MODEL 4
REMARK VINA RESULT:      -7.1      3.248      8.879
REMARK  Name = 
REMARK  12 active torsions:
REMARK  status: ('A' for Active; 'I' for Inactive)
REMARK    1  A    between atoms: C_1  and  O_2
REMARK    2  A    between atoms: O_2  and  C_3
REMARK    3  A    between atoms: C_5  and  O_6
REMARK    4  A    between atoms: O_6  and  C_7
REMARK    5  A    between atoms: C_8  and  C_9
REMARK    6  A    between atoms: C_11  and  C_12
REMARK    7  A    between atoms: C_12  and  O_13
REMARK    8  A    between atoms: C_14  and  C_15
REMARK    9  A    between atoms: C_17  and  O_18
REMARK   10  A    between atoms: C_19  and  O_20
REMARK   11  A    between atoms: C_22  and  C_23
REMARK   12  A    between atoms: C_23  and  C_24
REMARK                            x       y       z     vdW  Elec       q    Type
REMARK                         _______ _______ _______ _____ _____    ______ ____
ROOT
ATOM      1  C   UNL     1      -0.842  10.461  18.425  0.00  0.00    +0.000 A 
ATOM      2  C   UNL     1      -1.663  11.372  19.084  0.00  0.00    +0.000 A 
ATOM      3  C   UNL     1      -1.122  12.347  19.938  0.00  0.00    +0.000 A 
ATOM      4  C   UNL     1       0.261  12.422  20.154  0.00  0.00    +0.000 A 
ATOM      5  C   UNL     1       1.066  11.563  19.394  0.00  0.00    +0.000 A 
ATOM      6  C   UNL     1       0.542  10.556  18.567  0.00  0.00    +0.000 A 
ENDROOT
BRANCH   4   7
ATOM      7  C   UNL     1       0.992  13.413  21.054  0.00  0.00    +0.000 C 
ATOM      8  O   UNL     1       0.437  14.755  20.969  0.00  0.00    +0.000 OA
ATOM      9  C   UNL     1       0.778  15.575  19.833  0.00  0.00    +0.000 C 
ATOM     10  C   UNL     1       2.277  15.557  19.454  0.00  0.00    +0.000 C 
ATOM     11  C   UNL     1       2.561  16.049  18.033  0.00  0.00    +0.000 C 
ATOM     12  F   UNL     1       2.856  16.496  20.292  0.00  0.00    +0.000 F 
ATOM     13  C   UNL     1       3.016  14.237  19.748  0.00  0.00    +0.000 C 
ATOM     14  C   UNL     1       2.523  13.543  21.021  0.00  0.00    +0.000 C 
BRANCH  13  15
ATOM     15  O   UNL     1       3.078  13.377  18.605  0.00  0.00    +0.000 OA
ATOM     16  H   UNL     1       2.353  13.590  17.994  0.00  0.00    +0.000 HD
ENDBRANCH  13  15
BRANCH  14  17
ATOM     17  O   UNL     1       2.938  14.320  22.169  0.00  0.00    +0.000 OA
ATOM     18  H   UNL     1       2.193  14.330  22.801  0.00  0.00    +0.000 HD
ENDBRANCH  14  17
BRANCH   9  19
ATOM     19  C   UNL     1      -0.211  15.397  18.667  0.00  0.00    +0.000 C 
BRANCH  19  20
ATOM     20  O   UNL     1      -0.937  16.601  18.414  0.00  0.00    +0.000 OA
ATOM     21  H   UNL     1      -1.508  16.457  17.639  0.00  0.00    +0.000 HD
ENDBRANCH  19  20
ENDBRANCH   9  19
ENDBRANCH   4   7
BRANCH   1  23
ATOM     22  C   UNL     1      -2.906   9.883  17.379  0.00  0.00    +0.000 C 
ATOM     23  O   UNL     1      -1.510   9.647  17.532  0.00  0.00    +0.000 OA
ENDBRANCH   1  23
BRANCH   3  24
ATOM     24  O   UNL     1      -1.899  13.275  20.574  0.00  0.00    +0.000 OA
ATOM     25  C   UNL     1      -3.271  12.950  20.776  0.00  0.00    +0.000 C 
ENDBRANCH   3  24
BRANCH   6  26
ATOM     26  C   UNL     1       1.558   9.715  17.843  0.00  0.00    +0.000 C 
BRANCH  26  27
ATOM     27  C   UNL     1       2.107   8.520  18.580  0.00  0.00    +0.000 A 
ATOM     28  C   UNL     1       1.704   8.036  19.831  0.00  0.00    +0.000 A 
ATOM     29  C   UNL     1       2.099   6.759  20.251  0.00  0.00    +0.000 A 
ATOM     30  C   UNL     1       2.845   5.949  19.396  0.00  0.00    +0.000 A 
ATOM     31  C   UNL     1       3.294   6.460  18.189  0.00  0.00    +0.000 A 
ATOM     32  C   UNL     1       3.017   7.769  17.840  0.00  0.00    +0.000 A 
ATOM     33  O   UNL     1       3.894   5.753  17.208  0.00  0.00    +0.000 OA
ATOM     34  C   UNL     1       4.265   4.441  17.559  0.00  0.00    +0.000 C 
ATOM     35  C   UNL     1       3.743   3.845  18.864  0.00  0.00    +0.000 C 
ATOM     36  O   UNL     1       3.044   4.666  19.789  0.00  0.00    +0.000 OA
ENDBRANCH  26  27
ENDBRANCH   6  26
TORSDOF 9
ENDMDL
MODEL 5
REMARK VINA RESULT:      -7.1      2.913      8.457
REMARK  Name = 
REMARK  12 active torsions:
REMARK  status: ('A' for Active; 'I' for Inactive)
REMARK    1  A    between atoms: C_1  and  O_2
REMARK    2  A    between atoms: O_2  and  C_3
REMARK    3  A    between atoms: C_5  and  O_6
REMARK    4  A    between atoms: O_6  and  C_7
REMARK    5  A    between atoms: C_8  and  C_9
REMARK    6  A    between atoms: C_11  and  C_12
REMARK    7  A    between atoms: C_12  and  O_13
REMARK    8  A    between atoms: C_14  and  C_15
REMARK    9  A    between atoms: C_17  and  O_18
REMARK   10  A    between atoms: C_19  and  O_20
REMARK   11  A    between atoms: C_22  and  C_23
REMARK   12  A    between atoms: C_23  and  C_24
REMARK                            x       y       z     vdW  Elec       q    Type
REMARK                         _______ _______ _______ _____ _____    ______ ____
ROOT
ATOM      1  C   UNL     1       1.717   8.204  20.088  0.00  0.00    +0.000 A 
ATOM      2  C   UNL     1       0.884   8.611  21.127  0.00  0.00    +0.000 A 
ATOM      3  C   UNL     1      -0.007   9.685  20.961  0.00  0.00    +0.000 A 
ATOM      4  C   UNL     1      -0.072  10.380  19.746  0.00  0.00    +0.000 A 
ATOM      5  C   UNL     1       0.700   9.879  18.689  0.00  0.00    +0.000 A 
ATOM      6  C   UNL     1       1.624   8.833  18.847  0.00  0.00    +0.000 A 
ENDROOT
BRANCH   4   7
ATOM      7  C   UNL     1      -0.975  11.566  19.420  0.00  0.00    +0.000 C 
ATOM      8  O   UNL     1      -0.437  12.397  18.355  0.00  0.00    +0.000 OA
ATOM      9  C   UNL     1       0.624  13.324  18.668  0.00  0.00    +0.000 C 
ATOM     10  C   UNL     1       0.404  14.136  19.965  0.00  0.00    +0.000 C 
ATOM     11  C   UNL     1       1.682  14.769  20.521  0.00  0.00    +0.000 C 
ATOM     12  F   UNL     1      -0.395  15.198  19.576  0.00  0.00    +0.000 F 
ATOM     13  C   UNL     1      -0.389  13.412  21.071  0.00  0.00    +0.000 C 
ATOM     14  C   UNL     1      -1.492  12.503  20.522  0.00  0.00    +0.000 C 
BRANCH  13  15
ATOM     15  O   UNL     1       0.463  12.776  22.030  0.00  0.00    +0.000 OA
ATOM     16  H   UNL     1       1.309  12.544  21.614  0.00  0.00    +0.000 HD
ENDBRANCH  13  15
BRANCH  14  17
ATOM     17  O   UNL     1      -2.542  13.326  19.962  0.00  0.00    +0.000 OA
ATOM     18  H   UNL     1      -2.265  14.258  20.056  0.00  0.00    +0.000 HD
ENDBRANCH  14  17
BRANCH   9  19
ATOM     19  C   UNL     1       2.018  12.695  18.498  0.00  0.00    +0.000 C 
BRANCH  19  20
ATOM     20  O   UNL     1       2.408  12.664  17.124  0.00  0.00    +0.000 OA
ATOM     21  H   UNL     1       2.194  11.785  16.765  0.00  0.00    +0.000 HD
ENDBRANCH  19  20
ENDBRANCH   9  19
ENDBRANCH   4   7
BRANCH   1  23
ATOM     22  C   UNL     1       1.725   5.976  20.938  0.00  0.00    +0.000 C 
ATOM     23  O   UNL     1       2.444   7.064  20.365  0.00  0.00    +0.000 OA
ENDBRANCH   1  23
BRANCH   3  24
ATOM     24  O   UNL     1      -0.859  10.087  21.951  0.00  0.00    +0.000 OA
ATOM     25  C   UNL     1      -0.517   9.740  23.290  0.00  0.00    +0.000 C 
ENDBRANCH   3  24
BRANCH   6  26
ATOM     26  C   UNL     1       2.380   8.440  17.606  0.00  0.00    +0.000 C 
BRANCH  26  27
ATOM     27  C   UNL     1       3.045   7.087  17.609  0.00  0.00    +0.000 A 
ATOM     28  C   UNL     1       2.428   5.840  17.770  0.00  0.00    +0.000 A 
ATOM     29  C   UNL     1       3.127   4.665  17.460  0.00  0.00    +0.000 A 
ATOM     30  C   UNL     1       4.416   4.745  16.935  0.00  0.00    +0.000 A 
ATOM     31  C   UNL     1       5.041   5.979  16.841  0.00  0.00    +0.000 A 
ATOM     32  C   UNL     1       4.397   7.121  17.278  0.00  0.00    +0.000 A 
ATOM     33  O   UNL     1       6.217   6.221  16.225  0.00  0.00    +0.000 OA
ATOM     34  C   UNL     1       6.939   5.075  15.842  0.00  0.00    +0.000 C 
ATOM     35  C   UNL     1       6.252   3.712  15.896  0.00  0.00    +0.000 C 
ATOM     36  O   UNL     1       4.969   3.588  16.493  0.00  0.00    +0.000 OA
ENDBRANCH  26  27
ENDBRANCH   6  26
TORSDOF 9
ENDMDL
MODEL 6
REMARK VINA RESULT:      -7.1      4.097     10.249
REMARK  Name = 
REMARK  12 active torsions:
REMARK  status: ('A' for Active; 'I' for Inactive)
REMARK    1  A    between atoms: C_1  and  O_2
REMARK    2  A    between atoms: O_2  and  C_3
REMARK    3  A    between atoms: C_5  and  O_6
REMARK    4  A    between atoms: O_6  and  C_7
REMARK    5  A    between atoms: C_8  and  C_9
REMARK    6  A    between atoms: C_11  and  C_12
REMARK    7  A    between atoms: C_12  and  O_13
REMARK    8  A    between atoms: C_14  and  C_15
REMARK    9  A    between atoms: C_17  and  O_18
REMARK   10  A    between atoms: C_19  and  O_20
REMARK   11  A    between atoms: C_22  and  C_23
REMARK   12  A    between atoms: C_23  and  C_24
REMARK                            x       y       z     vdW  Elec       q    Type
REMARK                         _______ _______ _______ _____ _____    ______ ____
ROOT
ATOM      1  C   UNL     1      -2.479  10.822  18.308  0.00  0.00    +0.000 A 
ATOM      2  C   UNL     1      -3.832  11.131  18.424  0.00  0.00    +0.000 A 
ATOM      3  C   UNL     1      -4.261  12.211  19.213  0.00  0.00    +0.000 A 
ATOM      4  C   UNL     1      -3.337  13.001  19.910  0.00  0.00    +0.000 A 
ATOM      5  C   UNL     1      -1.980  12.731  19.686  0.00  0.00    +0.000 A 
ATOM      6  C   UNL     1      -1.533  11.633  18.934  0.00  0.00    +0.000 A 
ENDROOT
BRANCH   4   7
ATOM      7  C   UNL     1      -3.649  14.194  20.809  0.00  0.00    +0.000 C 
ATOM      8  O   UNL     1      -2.665  14.365  21.866  0.00  0.00    +0.000 OA
ATOM      9  C   UNL     1      -2.734  13.507  23.024  0.00  0.00    +0.000 C 
ATOM     10  C   UNL     1      -4.157  13.320  23.599  0.00  0.00    +0.000 C 
ATOM     11  C   UNL     1      -4.297  12.103  24.516  0.00  0.00    +0.000 C 
ATOM     12  F   UNL     1      -4.347  14.422  24.417  0.00  0.00    +0.000 F 
ATOM     13  C   UNL     1      -5.299  13.378  22.566  0.00  0.00    +0.000 C 
ATOM     14  C   UNL     1      -5.039  14.379  21.437  0.00  0.00    +0.000 C 
BRANCH  13  15
ATOM     15  O   UNL     1      -5.693  12.078  22.110  0.00  0.00    +0.000 OA
ATOM     16  H   UNL     1      -6.662  12.024  22.074  0.00  0.00    +0.000 HD
ENDBRANCH  13  15
BRANCH  14  17
ATOM     17  O   UNL     1      -5.121  15.720  21.972  0.00  0.00    +0.000 OA
ATOM     18  H   UNL     1      -4.724  16.323  21.314  0.00  0.00    +0.000 HD
ENDBRANCH  14  17
BRANCH   9  19
ATOM     19  C   UNL     1      -1.907  12.222  22.848  0.00  0.00    +0.000 C 
BRANCH  19  20
ATOM     20  O   UNL     1      -0.523  12.456  23.115  0.00  0.00    +0.000 OA
ATOM     21  H   UNL     1      -0.203  13.134  22.494  0.00  0.00    +0.000 HD
ENDBRANCH  19  20
ENDBRANCH   9  19
ENDBRANCH   4   7
BRANCH   1  23
ATOM     22  C   UNL     1      -2.783   9.951  16.109  0.00  0.00    +0.000 C 
ATOM     23  O   UNL     1      -2.209   9.813  17.405  0.00  0.00    +0.000 OA
ENDBRANCH   1  23
BRANCH   3  24
ATOM     24  O   UNL     1      -5.579  12.558  19.322  0.00  0.00    +0.000 OA
ATOM     25  C   UNL     1      -6.537  11.674  18.750  0.00  0.00    +0.000 C 
ENDBRANCH   3  24
BRANCH   6  26
ATOM     26  C   UNL     1      -0.039  11.489  18.817  0.00  0.00    +0.000 C 
BRANCH  26  27
ATOM     27  C   UNL     1       0.594  10.326  19.538  0.00  0.00    +0.000 A 
ATOM     28  C   UNL     1       0.277   9.846  20.816  0.00  0.00    +0.000 A 
ATOM     29  C   UNL     1       0.743   8.591  21.230  0.00  0.00    +0.000 A 
ATOM     30  C   UNL     1       1.472   7.797  20.346  0.00  0.00    +0.000 A 
ATOM     31  C   UNL     1       1.835   8.306  19.109  0.00  0.00    +0.000 A 
ATOM     32  C   UNL     1       1.491   9.599  18.759  0.00  0.00    +0.000 A 
ATOM     33  O   UNL     1       2.409   7.608  18.107  0.00  0.00    +0.000 OA
ATOM     34  C   UNL     1       2.848   6.317  18.453  0.00  0.00    +0.000 C 
ATOM     35  C   UNL     1       2.420   5.720  19.792  0.00  0.00    +0.000 C 
ATOM     36  O   UNL     1       1.740   6.528  20.743  0.00  0.00    +0.000 OA
ENDBRANCH  26  27
ENDBRANCH   6  26
TORSDOF 9
ENDMDL
MODEL 7
REMARK VINA RESULT:      -6.9      2.227      4.317
REMARK  Name = 
REMARK  12 active torsions:
REMARK  status: ('A' for Active; 'I' for Inactive)
REMARK    1  A    between atoms: C_1  and  O_2
REMARK    2  A    between atoms: O_2  and  C_3
REMARK    3  A    between atoms: C_5  and  O_6
REMARK    4  A    between atoms: O_6  and  C_7
REMARK    5  A    between atoms: C_8  and  C_9
REMARK    6  A    between atoms: C_11  and  C_12
REMARK    7  A    between atoms: C_12  and  O_13
REMARK    8  A    between atoms: C_14  and  C_15
REMARK    9  A    between atoms: C_17  and  O_18
REMARK   10  A    between atoms: C_19  and  O_20
REMARK   11  A    between atoms: C_22  and  C_23
REMARK   12  A    between atoms: C_23  and  C_24
REMARK                            x       y       z     vdW  Elec       q    Type
REMARK                         _______ _______ _______ _____ _____    ______ ____
ROOT
ATOM      1  C   UNL     1       4.903   7.342  17.582  0.00  0.00    +0.000 A 
ATOM      2  C   UNL     1       5.472   6.088  17.375  0.00  0.00    +0.000 A 
ATOM      3  C   UNL     1       4.675   4.931  17.333  0.00  0.00    +0.000 A 
ATOM      4  C   UNL     1       3.287   5.011  17.507  0.00  0.00    +0.000 A 
ATOM      5  C   UNL     1       2.736   6.296  17.606  0.00  0.00    +0.000 A 
ATOM      6  C   UNL     1       3.518   7.459  17.689  0.00  0.00    +0.000 A 
ENDROOT
BRANCH   4   7
ATOM      7  C   UNL     1       2.297   3.850  17.497  0.00  0.00    +0.000 C 
ATOM      8  O   UNL     1       1.173   4.071  18.393  0.00  0.00    +0.000 OA
ATOM      9  C   UNL     1       1.363   3.863  19.808  0.00  0.00    +0.000 C 
ATOM     10  C   UNL     1       2.130   2.570  20.169  0.00  0.00    +0.000 C 
ATOM     11  C   UNL     1       2.706   2.571  21.587  0.00  0.00    +0.000 C 
ATOM     12  F   UNL     1       1.161   1.581  20.165  0.00  0.00    +0.000 F 
ATOM     13  C   UNL     1       3.181   2.117  19.137  0.00  0.00    +0.000 C 
ATOM     14  C   UNL     1       2.765   2.400  17.691  0.00  0.00    +0.000 C 
BRANCH  13  15
ATOM     15  O   UNL     1       4.500   2.571  19.461  0.00  0.00    +0.000 OA
ATOM     16  H   UNL     1       4.965   1.889  19.974  0.00  0.00    +0.000 HD
ENDBRANCH  13  15
BRANCH  14  17
ATOM     17  O   UNL     1       1.673   1.519  17.337  0.00  0.00    +0.000 OA
ATOM     18  H   UNL     1       1.013   1.567  18.055  0.00  0.00    +0.000 HD
ENDBRANCH  14  17
BRANCH   9  19
ATOM     19  C   UNL     1       1.826   5.142  20.529  0.00  0.00    +0.000 C 
BRANCH  19  20
ATOM     20  O   UNL     1       3.250   5.188  20.639  0.00  0.00    +0.000 OA
ATOM     21  H   UNL     1       3.567   4.297  20.870  0.00  0.00    +0.000 HD
ENDBRANCH  19  20
ENDBRANCH   9  19
ENDBRANCH   4   7
BRANCH   1  23
ATOM     22  C   UNL     1       7.180   8.045  17.491  0.00  0.00    +0.000 C 
ATOM     23  O   UNL     1       5.798   8.388  17.477  0.00  0.00    +0.000 OA
ENDBRANCH   1  23
BRANCH   3  24
ATOM     24  O   UNL     1       5.200   3.691  17.100  0.00  0.00    +0.000 OA
ATOM     25  C   UNL     1       5.886   3.492  15.868  0.00  0.00    +0.000 C 
ENDBRANCH   3  24
BRANCH   6  26
ATOM     26  C   UNL     1       2.754   8.750  17.812  0.00  0.00    +0.000 C 
BRANCH  26  27
ATOM     27  C   UNL     1       1.789   8.867  18.964  0.00  0.00    +0.000 A 
ATOM     28  C   UNL     1       1.881   8.241  20.214  0.00  0.00    +0.000 A 
ATOM     29  C   UNL     1       1.075   8.671  21.276  0.00  0.00    +0.000 A 
ATOM     30  C   UNL     1       0.224   9.762  21.102  0.00  0.00    +0.000 A 
ATOM     31  C   UNL     1       0.092  10.333  19.846  0.00  0.00    +0.000 A 
ATOM     32  C   UNL     1       0.788   9.815  18.769  0.00  0.00    +0.000 A 
ATOM     33  O   UNL     1      -0.575  11.471  19.564  0.00  0.00    +0.000 OA
ATOM     34  C   UNL     1      -1.360  11.979  20.615  0.00  0.00    +0.000 C 
ATOM     35  C   UNL     1      -1.197  11.394  22.015  0.00  0.00    +0.000 C 
ATOM     36  O   UNL     1      -0.395  10.237  22.211  0.00  0.00    +0.000 OA
ENDBRANCH  26  27
ENDBRANCH   6  26
TORSDOF 9
ENDMDL
MODEL 8
REMARK VINA RESULT:      -6.8      5.542      8.796
REMARK  Name = 
REMARK  12 active torsions:
REMARK  status: ('A' for Active; 'I' for Inactive)
REMARK    1  A    between atoms: C_1  and  O_2
REMARK    2  A    between atoms: O_2  and  C_3
REMARK    3  A    between atoms: C_5  and  O_6
REMARK    4  A    between atoms: O_6  and  C_7
REMARK    5  A    between atoms: C_8  and  C_9
REMARK    6  A    between atoms: C_11  and  C_12
REMARK    7  A    between atoms: C_12  and  O_13
REMARK    8  A    between atoms: C_14  and  C_15
REMARK    9  A    between atoms: C_17  and  O_18
REMARK   10  A    between atoms: C_19  and  O_20
REMARK   11  A    between atoms: C_22  and  C_23
REMARK   12  A    between atoms: C_23  and  C_24
REMARK                            x       y       z     vdW  Elec       q    Type
REMARK                         _______ _______ _______ _____ _____    ______ ____
ROOT
ATOM      1  C   UNL     1      -2.419  10.226  17.186  0.00  0.00    +0.000 A 
ATOM      2  C   UNL     1      -1.173   9.825  17.662  0.00  0.00    +0.000 A 
ATOM      3  C   UNL     1      -0.463  10.615  18.582  0.00  0.00    +0.000 A 
ATOM      4  C   UNL     1      -0.988  11.831  19.037  0.00  0.00    +0.000 A 
ATOM      5  C   UNL     1      -2.288  12.152  18.622  0.00  0.00    +0.000 A 
ATOM      6  C   UNL     1      -2.996  11.397  17.674  0.00  0.00    +0.000 A 
ENDROOT
BRANCH   4   7
ATOM      7  C   UNL     1      -0.335  12.797  20.022  0.00  0.00    +0.000 C 
ATOM      8  O   UNL     1       0.300  12.110  21.136  0.00  0.00    +0.000 OA
ATOM      9  C   UNL     1      -0.528  11.616  22.208  0.00  0.00    +0.000 C 
ATOM     10  C   UNL     1      -1.606  12.611  22.697  0.00  0.00    +0.000 C 
ATOM     11  C   UNL     1      -2.735  11.956  23.495  0.00  0.00    +0.000 C 
ATOM     12  F   UNL     1      -0.941  13.426  23.599  0.00  0.00    +0.000 F 
ATOM     13  C   UNL     1      -2.162  13.564  21.620  0.00  0.00    +0.000 C 
ATOM     14  C   UNL     1      -1.107  13.995  20.596  0.00  0.00    +0.000 C 
BRANCH  13  15
ATOM     15  O   UNL     1      -3.376  13.080  21.034  0.00  0.00    +0.000 OA
ATOM     16  H   UNL     1      -4.004  13.814  20.929  0.00  0.00    +0.000 HD
ENDBRANCH  13  15
BRANCH  14  17
ATOM     17  O   UNL     1      -0.160  14.877  21.243  0.00  0.00    +0.000 OA
ATOM     18  H   UNL     1       0.650  14.888  20.698  0.00  0.00    +0.000 HD
ENDBRANCH  14  17
BRANCH   9  19
ATOM     19  C   UNL     1      -1.009  10.176  21.960  0.00  0.00    +0.000 C 
BRANCH  19  20
ATOM     20  O   UNL     1      -0.645   9.315  23.041  0.00  0.00    +0.000 OA
ATOM     21  H   UNL     1      -0.130   8.572  22.680  0.00  0.00    +0.000 HD
ENDBRANCH  19  20
ENDBRANCH   9  19
ENDBRANCH   4   7
BRANCH   1  23
ATOM     22  C   UNL     1      -3.174   9.620  15.006  0.00  0.00    +0.000 C 
ATOM     23  O   UNL     1      -3.041   9.289  16.385  0.00  0.00    +0.000 OA
ENDBRANCH   1  23
BRANCH   3  24
ATOM     24  O   UNL     1       0.747  10.233  19.092  0.00  0.00    +0.000 OA
ATOM     25  C   UNL     1       1.899  10.470  18.289  0.00  0.00    +0.000 C 
ENDBRANCH   3  24
BRANCH   6  26
ATOM     26  C   UNL     1      -4.372  11.904  17.334  0.00  0.00    +0.000 C 
BRANCH  26  27
ATOM     27  C   UNL     1      -5.489  11.535  18.276  0.00  0.00    +0.000 A 
ATOM     28  C   UNL     1      -6.022  10.259  18.502  0.00  0.00    +0.000 A 
ATOM     29  C   UNL     1      -6.849  10.029  19.610  0.00  0.00    +0.000 A 
ATOM     30  C   UNL     1      -7.091  11.058  20.519  0.00  0.00    +0.000 A 
ATOM     31  C   UNL     1      -6.613  12.332  20.253  0.00  0.00    +0.000 A 
ATOM     32  C   UNL     1      -5.914  12.585  19.088  0.00  0.00    +0.000 A 
ATOM     33  O   UNL     1      -6.646  13.379  21.104  0.00  0.00    +0.000 OA
ATOM     34  C   UNL     1      -7.419  13.183  22.263  0.00  0.00    +0.000 C 
ATOM     35  C   UNL     1      -7.916  11.779  22.597  0.00  0.00    +0.000 C 
ATOM     36  O   UNL     1      -7.749  10.726  21.657  0.00  0.00    +0.000 OA
ENDBRANCH  26  27
ENDBRANCH   6  26
TORSDOF 9
ENDMDL
MODEL 9
REMARK VINA RESULT:      -6.8      1.721      2.746
REMARK  Name = 
REMARK  12 active torsions:
REMARK  status: ('A' for Active; 'I' for Inactive)
REMARK    1  A    between atoms: C_1  and  O_2
REMARK    2  A    between atoms: O_2  and  C_3
REMARK    3  A    between atoms: C_5  and  O_6
REMARK    4  A    between atoms: O_6  and  C_7
REMARK    5  A    between atoms: C_8  and  C_9
REMARK    6  A    between atoms: C_11  and  C_12
REMARK    7  A    between atoms: C_12  and  O_13
REMARK    8  A    between atoms: C_14  and  C_15
REMARK    9  A    between atoms: C_17  and  O_18
REMARK   10  A    between atoms: C_19  and  O_20
REMARK   11  A    between atoms: C_22  and  C_23
REMARK   12  A    between atoms: C_23  and  C_24
REMARK                            x       y       z     vdW  Elec       q    Type
REMARK                         _______ _______ _______ _____ _____    ______ ____
ROOT
ATOM      1  C   UNL     1       2.158   4.139  19.578  0.00  0.00    +0.000 A 
ATOM      2  C   UNL     1       3.176   3.263  19.945  0.00  0.00    +0.000 A 
ATOM      3  C   UNL     1       4.328   3.122  19.153  0.00  0.00    +0.000 A 
ATOM      4  C   UNL     1       4.478   3.855  17.969  0.00  0.00    +0.000 A 
ATOM      5  C   UNL     1       3.487   4.805  17.685  0.00  0.00    +0.000 A 
ATOM      6  C   UNL     1       2.311   4.932  18.441  0.00  0.00    +0.000 A 
ENDROOT
BRANCH   4   7
ATOM      7  C   UNL     1       5.660   3.803  17.005  0.00  0.00    +0.000 C 
ATOM      8  O   UNL     1       6.936   3.974  17.681  0.00  0.00    +0.000 OA
ATOM      9  C   UNL     1       7.343   5.303  18.068  0.00  0.00    +0.000 C 
ATOM     10  C   UNL     1       7.129   6.381  16.980  0.00  0.00    +0.000 C 
ATOM     11  C   UNL     1       7.137   7.813  17.521  0.00  0.00    +0.000 C 
ATOM     12  F   UNL     1       8.249   6.284  16.172  0.00  0.00    +0.000 F 
ATOM     13  C   UNL     1       5.928   6.144  16.043  0.00  0.00    +0.000 C 
ATOM     14  C   UNL     1       5.691   4.663  15.732  0.00  0.00    +0.000 C 
BRANCH  13  15
ATOM     15  O   UNL     1       4.752   6.842  16.470  0.00  0.00    +0.000 OA
ATOM     16  H   UNL     1       3.962   6.334  16.224  0.00  0.00    +0.000 HD
ENDBRANCH  13  15
BRANCH  14  17
ATOM     17  O   UNL     1       6.764   4.185  14.887  0.00  0.00    +0.000 OA
ATOM     18  H   UNL     1       6.397   3.479  14.320  0.00  0.00    +0.000 HD
ENDBRANCH  14  17
BRANCH   9  19
ATOM     19  C   UNL     1       6.863   5.672  19.483  0.00  0.00    +0.000 C 
BRANCH  19  20
ATOM     20  O   UNL     1       7.899   5.478  20.448  0.00  0.00    +0.000 OA
ATOM     21  H   UNL     1       8.670   5.093  19.995  0.00  0.00    +0.000 HD
ENDBRANCH  19  20
ENDBRANCH   9  19
ENDBRANCH   4   7
BRANCH   1  23
ATOM     22  C   UNL     1       1.089   3.235  21.508  0.00  0.00    +0.000 C 
ATOM     23  O   UNL     1       1.152   4.255  20.516  0.00  0.00    +0.000 OA
ENDBRANCH   1  23
BRANCH   3  24
ATOM     24  O   UNL     1       5.358   2.294  19.503  0.00  0.00    +0.000 OA
ATOM     25  C   UNL     1       5.179   1.479  20.658  0.00  0.00    +0.000 C 
ENDBRANCH   3  24
BRANCH   6  26
ATOM     26  C   UNL     1       1.350   5.993  17.976  0.00  0.00    +0.000 C 
BRANCH  26  27
ATOM     27  C   UNL     1       1.635   7.409  18.405  0.00  0.00    +0.000 A 
ATOM     28  C   UNL     1       2.018   8.482  17.589  0.00  0.00    +0.000 A 
ATOM     29  C   UNL     1       1.962   9.794  18.080  0.00  0.00    +0.000 A 
ATOM     30  C   UNL     1       1.469  10.032  19.362  0.00  0.00    +0.000 A 
ATOM     31  C   UNL     1       1.154   8.962  20.184  0.00  0.00    +0.000 A 
ATOM     32  C   UNL     1       1.342   7.665  19.743  0.00  0.00    +0.000 A 
ATOM     33  O   UNL     1       0.537   9.042  21.381  0.00  0.00    +0.000 OA
ATOM     34  C   UNL     1       0.405  10.344  21.899  0.00  0.00    +0.000 C 
ATOM     35  C   UNL     1       0.703  11.538  20.994  0.00  0.00    +0.000 C 
ATOM     36  O   UNL     1       1.275  11.328  19.711  0.00  0.00    +0.000 OA
ENDBRANCH  26  27
ENDBRANCH   6  26
TORSDOF 9
ENDMDL
