MODEL 1
REMARK VINA RESULT:      -8.1      0.000      0.000
REMARK  Name = 
REMARK  5 active torsions:
REMARK  status: ('A' for Active; 'I' for Inactive)
REMARK    1  A    between atoms: C_2  and  C_3
REMARK    2  A    between atoms: C_6  and  N_7
REMARK    3  A    between atoms: C_12  and  N_13
REMARK    4  A    between atoms: N_13  and  C_14
REMARK    5  A    between atoms: C_18  and  C_19
REMARK                            x       y       z     vdW  Elec       q    Type
REMARK                         _______ _______ _______ _____ _____    ______ ____
ROOT
ATOM      1  N   UNL     1       2.331   5.694  20.542  0.00  0.00    +0.000 N 
ATOM      2  C   UNL     1       3.218   4.774  19.977  0.00  0.00    +0.000 A 
ATOM      3  N   UNL     1       2.974   3.484  20.237  0.00  0.00    +0.000 NA
ATOM      4  C   UNL     1       3.736   2.586  19.585  0.00  0.00    +0.000 A 
ATOM      5  C   UNL     1       4.728   2.924  18.696  0.00  0.00    +0.000 A 
ATOM      6  C   UNL     1       4.957   4.270  18.537  0.00  0.00    +0.000 A 
ATOM      7  N   UNL     1       4.196   5.179  19.158  0.00  0.00    +0.000 NA
ATOM      8  H   UNL     1       1.596   5.170  20.999  0.00  0.00    +0.000 HD
ENDROOT
BRANCH   1  12
ATOM      9  C   UNL     1       1.256   9.585  19.293  0.00  0.00    +0.000 A 
ATOM     10  C   UNL     1       0.945   9.134  20.576  0.00  0.00    +0.000 A 
ATOM     11  C   UNL     1       1.325   7.850  20.980  0.00  0.00    +0.000 A 
ATOM     12  C   UNL     1       2.001   6.987  20.106  0.00  0.00    +0.000 A 
ATOM     13  C   UNL     1       2.336   7.478  18.837  0.00  0.00    +0.000 A 
ATOM     14  C   UNL     1       1.957   8.755  18.422  0.00  0.00    +0.000 A 
BRANCH   9  16
ATOM     15  N   UNL     1       0.563  11.962  18.526  0.00  0.00    +0.000 NA
ATOM     16  C   UNL     1       0.875  10.897  18.873  0.00  0.00    +0.000 C 
ENDBRANCH   9  16
ENDBRANCH   1  12
BRANCH   6  17
ATOM     17  N   UNL     1       6.013   4.704  17.704  0.00  0.00    +0.000 N 
ATOM     18  H   UNL     1       5.830   4.467  16.733  0.00  0.00    +0.000 HD
BRANCH  17  19
ATOM     19  C   UNL     1       6.662   5.957  17.845  0.00  0.00    +0.000 A 
ATOM     20  C   UNL     1       6.207   7.109  17.190  0.00  0.00    +0.000 A 
ATOM     21  F   UNL     1       5.108   7.069  16.422  0.00  0.00    +0.000 F 
ATOM     22  C   UNL     1       6.839   8.341  17.341  0.00  0.00    +0.000 A 
ATOM     23  C   UNL     1       7.954   8.469  18.173  0.00  0.00    +0.000 A 
ATOM     24  C   UNL     1       8.418   7.336  18.851  0.00  0.00    +0.000 A 
ATOM     25  C   UNL     1       7.769   6.106  18.688  0.00  0.00    +0.000 A 
ATOM     26  F   UNL     1       8.234   5.039  19.358  0.00  0.00    +0.000 F 
BRANCH  23  27
ATOM     27  C   UNL     1       8.572   9.774  18.334  0.00  0.00    +0.000 A 
ATOM     28  C   UNL     1       8.471  10.932  17.510  0.00  0.00    +0.000 A 
ATOM     29  C   UNL     1       9.273  11.890  18.081  0.00  0.00    +0.000 A 
ATOM     30  O   UNL     1       9.867  11.403  19.199  0.00  0.00    +0.000 OA
ATOM     31  C   UNL     1       9.443  10.120  19.345  0.00  0.00    +0.000 A 
ENDBRANCH  23  27
ENDBRANCH  17  19
ENDBRANCH   6  17
TORSDOF 5
ENDMDL
MODEL 2
REMARK VINA RESULT:      -8.1      0.378      1.680
REMARK  Name = 
REMARK  5 active torsions:
REMARK  status: ('A' for Active; 'I' for Inactive)
REMARK    1  A    between atoms: C_2  and  C_3
REMARK    2  A    between atoms: C_6  and  N_7
REMARK    3  A    between atoms: C_12  and  N_13
REMARK    4  A    between atoms: N_13  and  C_14
REMARK    5  A    between atoms: C_18  and  C_19
REMARK                            x       y       z     vdW  Elec       q    Type
REMARK                         _______ _______ _______ _____ _____    ______ ____
ROOT
ATOM      1  N   UNL     1       2.315   5.679  20.433  0.00  0.00    +0.000 N 
ATOM      2  C   UNL     1       3.218   4.760  19.890  0.00  0.00    +0.000 A 
ATOM      3  N   UNL     1       2.943   3.468  20.104  0.00  0.00    +0.000 NA
ATOM      4  C   UNL     1       3.725   2.575  19.469  0.00  0.00    +0.000 A 
ATOM      5  C   UNL     1       4.765   2.921  18.640  0.00  0.00    +0.000 A 
ATOM      6  C   UNL     1       5.021   4.266  18.528  0.00  0.00    +0.000 A 
ATOM      7  N   UNL     1       4.241   5.171  19.133  0.00  0.00    +0.000 NA
ATOM      8  H   UNL     1       1.551   5.155  20.839  0.00  0.00    +0.000 HD
ENDROOT
BRANCH   1  12
ATOM      9  C   UNL     1       1.363   9.619  19.238  0.00  0.00    +0.000 A 
ATOM     10  C   UNL     1       1.058   9.167  20.523  0.00  0.00    +0.000 A 
ATOM     11  C   UNL     1       1.398   7.866  20.909  0.00  0.00    +0.000 A 
ATOM     12  C   UNL     1       2.026   6.988  20.015  0.00  0.00    +0.000 A 
ATOM     13  C   UNL     1       2.355   7.477  18.744  0.00  0.00    +0.000 A 
ATOM     14  C   UNL     1       2.017   8.771  18.347  0.00  0.00    +0.000 A 
BRANCH   9  16
ATOM     15  N   UNL     1       0.741  12.027  18.511  0.00  0.00    +0.000 NA
ATOM     16  C   UNL     1       1.023  10.947  18.837  0.00  0.00    +0.000 C 
ENDBRANCH   9  16
ENDBRANCH   1  12
BRANCH   6  17
ATOM     17  N   UNL     1       6.124   4.705  17.761  0.00  0.00    +0.000 N 
ATOM     18  H   UNL     1       6.016   4.439  16.786  0.00  0.00    +0.000 HD
BRANCH  17  19
ATOM     19  C   UNL     1       6.732   5.977  17.914  0.00  0.00    +0.000 A 
ATOM     20  C   UNL     1       7.826   6.181  18.766  0.00  0.00    +0.000 A 
ATOM     21  F   UNL     1       8.360   5.157  19.449  0.00  0.00    +0.000 F 
ATOM     22  C   UNL     1       8.429   7.429  18.904  0.00  0.00    +0.000 A 
ATOM     23  C   UNL     1       7.964   8.527  18.177  0.00  0.00    +0.000 A 
ATOM     24  C   UNL     1       6.882   8.345  17.307  0.00  0.00    +0.000 A 
ATOM     25  C   UNL     1       6.288   7.083  17.181  0.00  0.00    +0.000 A 
ATOM     26  F   UNL     1       5.257   6.939  16.332  0.00  0.00    +0.000 F 
BRANCH  23  27
ATOM     27  C   UNL     1       8.634   9.808  18.320  0.00  0.00    +0.000 A 
ATOM     28  C   UNL     1       9.602  10.222  19.280  0.00  0.00    +0.000 A 
ATOM     29  C   UNL     1       9.892  11.535  19.003  0.00  0.00    +0.000 A 
ATOM     30  O   UNL     1       9.168  11.964  17.939  0.00  0.00    +0.000 OA
ATOM     31  C   UNL     1       8.404  10.916  17.532  0.00  0.00    +0.000 A 
ENDBRANCH  23  27
ENDBRANCH  17  19
ENDBRANCH   6  17
TORSDOF 5
ENDMDL
MODEL 3
REMARK VINA RESULT:      -7.9      0.380      1.132
REMARK  Name = 
REMARK  5 active torsions:
REMARK  status: ('A' for Active; 'I' for Inactive)
REMARK    1  A    between atoms: C_2  and  C_3
REMARK    2  A    between atoms: C_6  and  N_7
REMARK    3  A    between atoms: C_12  and  N_13
REMARK    4  A    between atoms: N_13  and  C_14
REMARK    5  A    between atoms: C_18  and  C_19
REMARK                            x       y       z     vdW  Elec       q    Type
REMARK                         _______ _______ _______ _____ _____    ______ ____
ROOT
ATOM      1  N   UNL     1       2.294   5.694  20.669  0.00  0.00    +0.000 N 
ATOM      2  C   UNL     1       3.162   4.772  20.077  0.00  0.00    +0.000 A 
ATOM      3  N   UNL     1       2.932   3.483  20.356  0.00  0.00    +0.000 NA
ATOM      4  C   UNL     1       3.671   2.582  19.683  0.00  0.00    +0.000 A 
ATOM      5  C   UNL     1       4.627   2.916  18.754  0.00  0.00    +0.000 A 
ATOM      6  C   UNL     1       4.846   4.261  18.576  0.00  0.00    +0.000 A 
ATOM      7  N   UNL     1       4.107   5.173  19.218  0.00  0.00    +0.000 NA
ATOM      8  H   UNL     1       1.579   5.172  21.157  0.00  0.00    +0.000 HD
ENDROOT
BRANCH   1  12
ATOM      9  C   UNL     1       1.326   9.574  19.303  0.00  0.00    +0.000 A 
ATOM     10  C   UNL     1       1.998   8.672  18.478  0.00  0.00    +0.000 A 
ATOM     11  C   UNL     1       2.294   7.384  18.939  0.00  0.00    +0.000 A 
ATOM     12  C   UNL     1       1.944   6.983  20.236  0.00  0.00    +0.000 A 
ATOM     13  C   UNL     1       1.238   7.894  21.031  0.00  0.00    +0.000 A 
ATOM     14  C   UNL     1       0.942   9.182  20.583  0.00  0.00    +0.000 A 
BRANCH   9  16
ATOM     15  N   UNL     1       0.771  11.962  18.461  0.00  0.00    +0.000 NA
ATOM     16  C   UNL     1       1.018  10.890  18.840  0.00  0.00    +0.000 C 
ENDBRANCH   9  16
ENDBRANCH   1  12
BRANCH   6  17
ATOM     17  N   UNL     1       5.868   4.692  17.699  0.00  0.00    +0.000 N 
ATOM     18  H   UNL     1       5.631   4.480  16.734  0.00  0.00    +0.000 HD
BRANCH  17  19
ATOM     19  C   UNL     1       6.551   5.927  17.834  0.00  0.00    +0.000 A 
ATOM     20  C   UNL     1       6.099   7.099  17.212  0.00  0.00    +0.000 A 
ATOM     21  F   UNL     1       4.972   7.095  16.485  0.00  0.00    +0.000 F 
ATOM     22  C   UNL     1       6.765   8.313  17.357  0.00  0.00    +0.000 A 
ATOM     23  C   UNL     1       7.912   8.404  18.149  0.00  0.00    +0.000 A 
ATOM     24  C   UNL     1       8.374   7.251  18.794  0.00  0.00    +0.000 A 
ATOM     25  C   UNL     1       7.691   6.038  18.637  0.00  0.00    +0.000 A 
ATOM     26  F   UNL     1       8.155   4.952  19.275  0.00  0.00    +0.000 F 
BRANCH  23  27
ATOM     27  C   UNL     1       8.566   9.693  18.305  0.00  0.00    +0.000 A 
ATOM     28  C   UNL     1       9.494  10.123  19.296  0.00  0.00    +0.000 A 
ATOM     29  C   UNL     1       9.783  11.437  19.017  0.00  0.00    +0.000 A 
ATOM     30  O   UNL     1       9.093  11.850  17.924  0.00  0.00    +0.000 OA
ATOM     31  C   UNL     1       8.354  10.792  17.500  0.00  0.00    +0.000 A 
ENDBRANCH  23  27
ENDBRANCH  17  19
ENDBRANCH   6  17
TORSDOF 5
ENDMDL
MODEL 4
REMARK VINA RESULT:      -7.9      5.736      8.740
REMARK  Name = 
REMARK  5 active torsions:
REMARK  status: ('A' for Active; 'I' for Inactive)
REMARK    1  A    between atoms: C_2  and  C_3
REMARK    2  A    between atoms: C_6  and  N_7
REMARK    3  A    between atoms: C_12  and  N_13
REMARK    4  A    between atoms: N_13  and  C_14
REMARK    5  A    between atoms: C_18  and  C_19
REMARK                            x       y       z     vdW  Elec       q    Type
REMARK                         _______ _______ _______ _____ _____    ______ ____
ROOT
ATOM      1  N   UNL     1      -4.326  12.703  19.730  0.00  0.00    +0.000 N 
ATOM      2  C   UNL     1      -3.691  12.615  20.971  0.00  0.00    +0.000 A 
ATOM      3  N   UNL     1      -4.471  12.787  22.045  0.00  0.00    +0.000 NA
ATOM      4  C   UNL     1      -3.900  12.565  23.244  0.00  0.00    +0.000 A 
ATOM      5  C   UNL     1      -2.589  12.187  23.409  0.00  0.00    +0.000 A 
ATOM      6  C   UNL     1      -1.841  12.098  22.260  0.00  0.00    +0.000 A 
ATOM      7  N   UNL     1      -2.396  12.292  21.057  0.00  0.00    +0.000 NA
ATOM      8  H   UNL     1      -5.317  12.811  19.899  0.00  0.00    +0.000 HD
ENDROOT
BRANCH   1  12
ATOM      9  C   UNL     1      -3.314  10.914  16.037  0.00  0.00    +0.000 A 
ATOM     10  C   UNL     1      -4.627  11.300  16.309  0.00  0.00    +0.000 A 
ATOM     11  C   UNL     1      -4.942  11.909  17.529  0.00  0.00    +0.000 A 
ATOM     12  C   UNL     1      -3.958  12.122  18.505  0.00  0.00    +0.000 A 
ATOM     13  C   UNL     1      -2.641  11.760  18.193  0.00  0.00    +0.000 A 
ATOM     14  C   UNL     1      -2.317  11.148  16.981  0.00  0.00    +0.000 A 
BRANCH   9  16
ATOM     15  N   UNL     1      -2.718   9.792  13.778  0.00  0.00    +0.000 NA
ATOM     16  C   UNL     1      -2.984  10.294  14.793  0.00  0.00    +0.000 C 
ENDBRANCH   9  16
ENDBRANCH   1  12
BRANCH   6  17
ATOM     17  N   UNL     1      -0.463  11.796  22.346  0.00  0.00    +0.000 N 
ATOM     18  H   UNL     1      -0.130  11.889  23.302  0.00  0.00    +0.000 HD
BRANCH  17  19
ATOM     19  C   UNL     1       0.150  10.717  21.660  0.00  0.00    +0.000 A 
ATOM     20  C   UNL     1       0.551  10.818  20.320  0.00  0.00    +0.000 A 
ATOM     21  F   UNL     1       0.392  11.966  19.645  0.00  0.00    +0.000 F 
ATOM     22  C   UNL     1       1.164   9.761  19.653  0.00  0.00    +0.000 A 
ATOM     23  C   UNL     1       1.415   8.555  20.313  0.00  0.00    +0.000 A 
ATOM     24  C   UNL     1       1.040   8.435  21.656  0.00  0.00    +0.000 A 
ATOM     25  C   UNL     1       0.424   9.509  22.311  0.00  0.00    +0.000 A 
ATOM     26  F   UNL     1       0.083   9.365  23.601  0.00  0.00    +0.000 F 
BRANCH  23  27
ATOM     27  C   UNL     1       2.085   7.482  19.598  0.00  0.00    +0.000 A 
ATOM     28  C   UNL     1       2.669   7.486  18.298  0.00  0.00    +0.000 A 
ATOM     29  C   UNL     1       3.140   6.215  18.077  0.00  0.00    +0.000 A 
ATOM     30  O   UNL     1       2.886   5.424  19.150  0.00  0.00    +0.000 OA
ATOM     31  C   UNL     1       2.242   6.194  20.065  0.00  0.00    +0.000 A 
ENDBRANCH  23  27
ENDBRANCH  17  19
ENDBRANCH   6  17
TORSDOF 5
ENDMDL
MODEL 5
REMARK VINA RESULT:      -7.8      4.303      7.722
REMARK  Name = 
REMARK  5 active torsions:
REMARK  status: ('A' for Active; 'I' for Inactive)
REMARK    1  A    between atoms: C_2  and  C_3
REMARK    2  A    between atoms: C_6  and  N_7
REMARK    3  A    between atoms: C_12  and  N_13
REMARK    4  A    between atoms: N_13  and  C_14
REMARK    5  A    between atoms: C_18  and  C_19
REMARK                            x       y       z     vdW  Elec       q    Type
REMARK                         _______ _______ _______ _____ _____    ______ ____
ROOT
ATOM      1  N   UNL     1       3.768   3.483  17.185  0.00  0.00    +0.000 N 
ATOM      2  C   UNL     1       3.201   4.047  18.331  0.00  0.00    +0.000 A 
ATOM      3  N   UNL     1       2.632   3.191  19.188  0.00  0.00    +0.000 NA
ATOM      4  C   UNL     1       2.208   3.706  20.358  0.00  0.00    +0.000 A 
ATOM      5  C   UNL     1       2.325   5.032  20.697  0.00  0.00    +0.000 A 
ATOM      6  C   UNL     1       2.859   5.853  19.735  0.00  0.00    +0.000 A 
ATOM      7  N   UNL     1       3.307   5.358  18.574  0.00  0.00    +0.000 NA
ATOM      8  H   UNL     1       3.699   2.478  17.271  0.00  0.00    +0.000 HD
ENDROOT
BRANCH   1  12
ATOM      9  C   UNL     1       6.868   4.899  14.686  0.00  0.00    +0.000 A 
ATOM     10  C   UNL     1       5.642   4.502  14.151  0.00  0.00    +0.000 A 
ATOM     11  C   UNL     1       4.620   4.054  14.994  0.00  0.00    +0.000 A 
ATOM     12  C   UNL     1       4.809   3.973  16.381  0.00  0.00    +0.000 A 
ATOM     13  C   UNL     1       6.036   4.413  16.897  0.00  0.00    +0.000 A 
ATOM     14  C   UNL     1       7.064   4.857  16.065  0.00  0.00    +0.000 A 
BRANCH   9  16
ATOM     15  N   UNL     1       8.772   5.741  13.142  0.00  0.00    +0.000 NA
ATOM     16  C   UNL     1       7.917   5.361  13.833  0.00  0.00    +0.000 C 
ENDBRANCH   9  16
ENDBRANCH   1  12
BRANCH   6  17
ATOM     17  N   UNL     1       2.940   7.245  19.970  0.00  0.00    +0.000 N 
ATOM     18  H   UNL     1       3.817   7.621  19.621  0.00  0.00    +0.000 HD
BRANCH  17  19
ATOM     19  C   UNL     1       1.853   8.138  19.787  0.00  0.00    +0.000 A 
ATOM     20  C   UNL     1       1.027   8.533  20.847  0.00  0.00    +0.000 A 
ATOM     21  F   UNL     1       1.261   8.096  22.094  0.00  0.00    +0.000 F 
ATOM     22  C   UNL     1      -0.031   9.420  20.666  0.00  0.00    +0.000 A 
ATOM     23  C   UNL     1      -0.295   9.961  19.406  0.00  0.00    +0.000 A 
ATOM     24  C   UNL     1       0.526   9.595  18.333  0.00  0.00    +0.000 A 
ATOM     25  C   UNL     1       1.586   8.702  18.534  0.00  0.00    +0.000 A 
ATOM     26  F   UNL     1       2.360   8.376  17.487  0.00  0.00    +0.000 F 
BRANCH  23  27
ATOM     27  C   UNL     1      -1.387  10.908  19.256  0.00  0.00    +0.000 A 
ATOM     28  C   UNL     1      -1.763  11.998  20.094  0.00  0.00    +0.000 A 
ATOM     29  C   UNL     1      -2.883  12.558  19.529  0.00  0.00    +0.000 A 
ATOM     30  O   UNL     1      -3.228  11.887  18.401  0.00  0.00    +0.000 OA
ATOM     31  C   UNL     1      -2.323  10.887  18.243  0.00  0.00    +0.000 A 
ENDBRANCH  23  27
ENDBRANCH  17  19
ENDBRANCH   6  17
TORSDOF 5
ENDMDL
MODEL 6
REMARK VINA RESULT:      -7.8      5.686      8.734
REMARK  Name = 
REMARK  5 active torsions:
REMARK  status: ('A' for Active; 'I' for Inactive)
REMARK    1  A    between atoms: C_2  and  C_3
REMARK    2  A    between atoms: C_6  and  N_7
REMARK    3  A    between atoms: C_12  and  N_13
REMARK    4  A    between atoms: N_13  and  C_14
REMARK    5  A    between atoms: C_18  and  C_19
REMARK                            x       y       z     vdW  Elec       q    Type
REMARK                         _______ _______ _______ _____ _____    ______ ____
ROOT
ATOM      1  N   UNL     1      -4.168  12.600  19.679  0.00  0.00    +0.000 N 
ATOM      2  C   UNL     1      -3.414  12.544  20.855  0.00  0.00    +0.000 A 
ATOM      3  N   UNL     1      -4.091  12.721  21.996  0.00  0.00    +0.000 NA
ATOM      4  C   UNL     1      -3.403  12.530  23.137  0.00  0.00    +0.000 A 
ATOM      5  C   UNL     1      -2.075  12.178  23.181  0.00  0.00    +0.000 A 
ATOM      6  C   UNL     1      -1.440  12.082  21.967  0.00  0.00    +0.000 A 
ATOM      7  N   UNL     1      -2.111  12.245  20.820  0.00  0.00    +0.000 NA
ATOM      8  H   UNL     1      -5.139  12.693  19.941  0.00  0.00    +0.000 HD
ENDROOT
BRANCH   1  12
ATOM      9  C   UNL     1      -3.290  10.847  15.935  0.00  0.00    +0.000 A 
ATOM     10  C   UNL     1      -2.291  11.025  16.894  0.00  0.00    +0.000 A 
ATOM     11  C   UNL     1      -2.603  11.589  18.136  0.00  0.00    +0.000 A 
ATOM     12  C   UNL     1      -3.908  12.005  18.434  0.00  0.00    +0.000 A 
ATOM     13  C   UNL     1      -4.899  11.781  17.469  0.00  0.00    +0.000 A 
ATOM     14  C   UNL     1      -4.599  11.223  16.225  0.00  0.00    +0.000 A 
BRANCH   9  16
ATOM     15  N   UNL     1      -2.726   9.801  13.631  0.00  0.00    +0.000 NA
ATOM     16  C   UNL     1      -2.981  10.269  14.665  0.00  0.00    +0.000 C 
ENDBRANCH   9  16
ENDBRANCH   1  12
BRANCH   6  17
ATOM     17  N   UNL     1      -0.054  11.804  21.924  0.00  0.00    +0.000 N 
ATOM     18  H   UNL     1       0.399  12.085  22.790  0.00  0.00    +0.000 HD
BRANCH  17  19
ATOM     19  C   UNL     1       0.494  10.613  21.385  0.00  0.00    +0.000 A 
ATOM     20  C   UNL     1       0.703   9.469  22.167  0.00  0.00    +0.000 A 
ATOM     21  F   UNL     1       0.358   9.455  23.464  0.00  0.00    +0.000 F 
ATOM     22  C   UNL     1       1.230   8.297  21.632  0.00  0.00    +0.000 A 
ATOM     23  C   UNL     1       1.556   8.220  20.275  0.00  0.00    +0.000 A 
ATOM     24  C   UNL     1       1.340   9.344  19.469  0.00  0.00    +0.000 A 
ATOM     25  C   UNL     1       0.810  10.515  20.026  0.00  0.00    +0.000 A 
ATOM     26  F   UNL     1       0.607  11.573  19.225  0.00  0.00    +0.000 F 
BRANCH  23  27
ATOM     27  C   UNL     1       2.073   6.972  19.740  0.00  0.00    +0.000 A 
ATOM     28  C   UNL     1       2.167   5.691  20.357  0.00  0.00    +0.000 A 
ATOM     29  C   UNL     1       2.762   4.858  19.441  0.00  0.00    +0.000 A 
ATOM     30  O   UNL     1       3.046   5.536  18.301  0.00  0.00    +0.000 OA
ATOM     31  C   UNL     1       2.632   6.816  18.489  0.00  0.00    +0.000 A 
ENDBRANCH  23  27
ENDBRANCH  17  19
ENDBRANCH   6  17
TORSDOF 5
ENDMDL
MODEL 7
REMARK VINA RESULT:      -7.8      4.248      7.567
REMARK  Name = 
REMARK  5 active torsions:
REMARK  status: ('A' for Active; 'I' for Inactive)
REMARK    1  A    between atoms: C_2  and  C_3
REMARK    2  A    between atoms: C_6  and  N_7
REMARK    3  A    between atoms: C_12  and  N_13
REMARK    4  A    between atoms: N_13  and  C_14
REMARK    5  A    between atoms: C_18  and  C_19
REMARK                            x       y       z     vdW  Elec       q    Type
REMARK                         _______ _______ _______ _____ _____    ______ ____
ROOT
ATOM      1  N   UNL     1       3.828   3.402  17.267  0.00  0.00    +0.000 N 
ATOM      2  C   UNL     1       3.275   3.959  18.424  0.00  0.00    +0.000 A 
ATOM      3  N   UNL     1       2.735   3.095  19.292  0.00  0.00    +0.000 NA
ATOM      4  C   UNL     1       2.327   3.604  20.469  0.00  0.00    +0.000 A 
ATOM      5  C   UNL     1       2.432   4.932  20.807  0.00  0.00    +0.000 A 
ATOM      6  C   UNL     1       2.937   5.761  19.834  0.00  0.00    +0.000 A 
ATOM      7  N   UNL     1       3.369   5.271  18.665  0.00  0.00    +0.000 NA
ATOM      8  H   UNL     1       3.774   2.396  17.355  0.00  0.00    +0.000 HD
ENDROOT
BRANCH   1  12
ATOM      9  C   UNL     1       6.856   4.864  14.708  0.00  0.00    +0.000 A 
ATOM     10  C   UNL     1       5.602   4.515  14.205  0.00  0.00    +0.000 A 
ATOM     11  C   UNL     1       4.604   4.050  15.070  0.00  0.00    +0.000 A 
ATOM     12  C   UNL     1       4.847   3.907  16.443  0.00  0.00    +0.000 A 
ATOM     13  C   UNL     1       6.101   4.300  16.927  0.00  0.00    +0.000 A 
ATOM     14  C   UNL     1       7.105   4.760  16.074  0.00  0.00    +0.000 A 
BRANCH   9  16
ATOM     15  N   UNL     1       8.715   5.727  13.120  0.00  0.00    +0.000 NA
ATOM     16  C   UNL     1       7.880   5.342  13.833  0.00  0.00    +0.000 C 
ENDBRANCH   9  16
ENDBRANCH   1  12
BRANCH   6  17
ATOM     17  N   UNL     1       3.003   7.153  20.068  0.00  0.00    +0.000 N 
ATOM     18  H   UNL     1       3.909   7.524  19.793  0.00  0.00    +0.000 HD
BRANCH  17  19
ATOM     19  C   UNL     1       1.940   8.049  19.789  0.00  0.00    +0.000 A 
ATOM     20  C   UNL     1       1.721   8.570  18.507  0.00  0.00    +0.000 A 
ATOM     21  F   UNL     1       2.505   8.207  17.480  0.00  0.00    +0.000 F 
ATOM     22  C   UNL     1       0.669   9.440  18.234  0.00  0.00    +0.000 A 
ATOM     23  C   UNL     1      -0.223   9.813  19.243  0.00  0.00    +0.000 A 
ATOM     24  C   UNL     1      -0.036   9.292  20.529  0.00  0.00    +0.000 A 
ATOM     25  C   UNL     1       1.028   8.419  20.785  0.00  0.00    +0.000 A 
ATOM     26  F   UNL     1       1.176   7.931  22.027  0.00  0.00    +0.000 F 
BRANCH  23  27
ATOM     27  C   UNL     1      -1.330  10.697  18.919  0.00  0.00    +0.000 A 
ATOM     28  C   UNL     1      -2.408  10.503  18.008  0.00  0.00    +0.000 A 
ATOM     29  C   UNL     1      -3.163  11.649  18.045  0.00  0.00    +0.000 A 
ATOM     30  O   UNL     1      -2.624  12.541  18.914  0.00  0.00    +0.000 OA
ATOM     31  C   UNL     1      -1.512  11.962  19.437  0.00  0.00    +0.000 A 
ENDBRANCH  23  27
ENDBRANCH  17  19
ENDBRANCH   6  17
TORSDOF 5
ENDMDL
MODEL 8
REMARK VINA RESULT:      -7.7      5.976      9.184
REMARK  Name = 
REMARK  5 active torsions:
REMARK  status: ('A' for Active; 'I' for Inactive)
REMARK    1  A    between atoms: C_2  and  C_3
REMARK    2  A    between atoms: C_6  and  N_7
REMARK    3  A    between atoms: C_12  and  N_13
REMARK    4  A    between atoms: N_13  and  C_14
REMARK    5  A    between atoms: C_18  and  C_19
REMARK                            x       y       z     vdW  Elec       q    Type
REMARK                         _______ _______ _______ _____ _____    ______ ____
ROOT
ATOM      1  N   UNL     1      -4.847  12.720  20.196  0.00  0.00    +0.000 N 
ATOM      2  C   UNL     1      -4.209  12.656  21.438  0.00  0.00    +0.000 A 
ATOM      3  N   UNL     1      -5.001  12.763  22.512  0.00  0.00    +0.000 NA
ATOM      4  C   UNL     1      -4.420  12.562  23.709  0.00  0.00    +0.000 A 
ATOM      5  C   UNL     1      -3.088  12.267  23.873  0.00  0.00    +0.000 A 
ATOM      6  C   UNL     1      -2.333  12.241  22.725  0.00  0.00    +0.000 A 
ATOM      7  N   UNL     1      -2.896  12.416  21.523  0.00  0.00    +0.000 NA
ATOM      8  H   UNL     1      -5.842  12.762  20.363  0.00  0.00    +0.000 HD
ENDROOT
BRANCH   1  12
ATOM      9  C   UNL     1      -3.718  11.061  16.477  0.00  0.00    +0.000 A 
ATOM     10  C   UNL     1      -5.027  11.489  16.702  0.00  0.00    +0.000 A 
ATOM     11  C   UNL     1      -5.379  12.054  17.932  0.00  0.00    +0.000 A 
ATOM     12  C   UNL     1      -4.439  12.182  18.964  0.00  0.00    +0.000 A 
ATOM     13  C   UNL     1      -3.123  11.780  18.700  0.00  0.00    +0.000 A 
ATOM     14  C   UNL     1      -2.762  11.210  17.478  0.00  0.00    +0.000 A 
BRANCH   9  16
ATOM     15  N   UNL     1      -3.048  10.013  14.203  0.00  0.00    +0.000 NA
ATOM     16  C   UNL     1      -3.349  10.486  15.222  0.00  0.00    +0.000 C 
ENDBRANCH   9  16
ENDBRANCH   1  12
BRANCH   6  17
ATOM     17  N   UNL     1      -0.938  12.026  22.811  0.00  0.00    +0.000 N 
ATOM     18  H   UNL     1      -0.625  12.061  23.778  0.00  0.00    +0.000 HD
BRANCH  17  19
ATOM     19  C   UNL     1      -0.244  11.054  22.048  0.00  0.00    +0.000 A 
ATOM     20  C   UNL     1       0.046   9.779  22.552  0.00  0.00    +0.000 A 
ATOM     21  F   UNL     1      -0.358   9.423  23.781  0.00  0.00    +0.000 F 
ATOM     22  C   UNL     1       0.718   8.823  21.795  0.00  0.00    +0.000 A 
ATOM     23  C   UNL     1       1.115   9.104  20.486  0.00  0.00    +0.000 A 
ATOM     24  C   UNL     1       0.823  10.366  19.953  0.00  0.00    +0.000 A 
ATOM     25  C   UNL     1       0.146  11.315  20.730  0.00  0.00    +0.000 A 
ATOM     26  F   UNL     1      -0.127  12.513  20.188  0.00  0.00    +0.000 F 
BRANCH  23  27
ATOM     27  C   UNL     1       1.786   8.074  19.711  0.00  0.00    +0.000 A 
ATOM     28  C   UNL     1       2.193   6.766  20.103  0.00  0.00    +0.000 A 
ATOM     29  C   UNL     1       2.814   6.206  19.014  0.00  0.00    +0.000 A 
ATOM     30  O   UNL     1       2.822   7.079  17.976  0.00  0.00    +0.000 OA
ATOM     31  C   UNL     1       2.204   8.210  18.404  0.00  0.00    +0.000 A 
ENDBRANCH  23  27
ENDBRANCH  17  19
ENDBRANCH   6  17
TORSDOF 5
ENDMDL
MODEL 9
REMARK VINA RESULT:      -7.6      3.531      4.393
REMARK  Name = 
REMARK  5 active torsions:
REMARK  status: ('A' for Active; 'I' for Inactive)
REMARK    1  A    between atoms: C_2  and  C_3
REMARK    2  A    between atoms: C_6  and  N_7
REMARK    3  A    between atoms: C_12  and  N_13
REMARK    4  A    between atoms: N_13  and  C_14
REMARK    5  A    between atoms: C_18  and  C_19
REMARK                            x       y       z     vdW  Elec       q    Type
REMARK                         _______ _______ _______ _____ _____    ______ ____
ROOT
ATOM      1  N   UNL     1       1.237   6.744  20.973  0.00  0.00    +0.000 N 
ATOM      2  C   UNL     1       2.071   5.662  20.678  0.00  0.00    +0.000 A 
ATOM      3  N   UNL     1       1.555   4.445  20.892  0.00  0.00    +0.000 NA
ATOM      4  C   UNL     1       2.295   3.399  20.480  0.00  0.00    +0.000 A 
ATOM      5  C   UNL     1       3.523   3.520  19.874  0.00  0.00    +0.000 A 
ATOM      6  C   UNL     1       4.008   4.800  19.753  0.00  0.00    +0.000 A 
ATOM      7  N   UNL     1       3.278   5.855  20.135  0.00  0.00    +0.000 NA
ATOM      8  H   UNL     1       0.333   6.372  21.232  0.00  0.00    +0.000 HD
ENDROOT
BRANCH   1  12
ATOM      9  C   UNL     1       1.203  10.679  19.433  0.00  0.00    +0.000 A 
ATOM     10  C   UNL     1       0.829  10.424  20.753  0.00  0.00    +0.000 A 
ATOM     11  C   UNL     1       0.864   9.117  21.252  0.00  0.00    +0.000 A 
ATOM     12  C   UNL     1       1.252   8.043  20.440  0.00  0.00    +0.000 A 
ATOM     13  C   UNL     1       1.659   8.330  19.130  0.00  0.00    +0.000 A 
ATOM     14  C   UNL     1       1.623   9.628  18.620  0.00  0.00    +0.000 A 
BRANCH   9  16
ATOM     15  N   UNL     1       1.147  13.092  18.489  0.00  0.00    +0.000 NA
ATOM     16  C   UNL     1       1.173  12.010  18.915  0.00  0.00    +0.000 C 
ENDBRANCH   9  16
ENDBRANCH   1  12
BRANCH   6  17
ATOM     17  N   UNL     1       5.299   5.009  19.216  0.00  0.00    +0.000 N 
ATOM     18  H   UNL     1       6.015   4.655  19.845  0.00  0.00    +0.000 HD
BRANCH  17  19
ATOM     19  C   UNL     1       5.625   4.808  17.851  0.00  0.00    +0.000 A 
ATOM     20  C   UNL     1       4.650   4.810  16.844  0.00  0.00    +0.000 A 
ATOM     21  F   UNL     1       3.362   5.037  17.141  0.00  0.00    +0.000 F 
ATOM     22  C   UNL     1       4.976   4.625  15.503  0.00  0.00    +0.000 A 
ATOM     23  C   UNL     1       6.305   4.444  15.113  0.00  0.00    +0.000 A 
ATOM     24  C   UNL     1       7.300   4.454  16.099  0.00  0.00    +0.000 A 
ATOM     25  C   UNL     1       6.953   4.642  17.443  0.00  0.00    +0.000 A 
ATOM     26  F   UNL     1       7.931   4.655  18.363  0.00  0.00    +0.000 F 
BRANCH  23  27
ATOM     27  C   UNL     1       6.616   4.285  13.703  0.00  0.00    +0.000 A 
ATOM     28  C   UNL     1       6.087   3.359  12.758  0.00  0.00    +0.000 A 
ATOM     29  C   UNL     1       6.734   3.600  11.570  0.00  0.00    +0.000 A 
ATOM     30  O   UNL     1       7.630   4.608  11.717  0.00  0.00    +0.000 OA
ATOM     31  C   UNL     1       7.558   5.016  13.011  0.00  0.00    +0.000 A 
ENDBRANCH  23  27
ENDBRANCH  17  19
ENDBRANCH   6  17
TORSDOF 5
ENDMDL
