MODEL 1
REMARK VINA RESULT:      -5.5      0.000      0.000
REMARK  Name = 
REMARK  12 active torsions:
REMARK  status: ('A' for Active; 'I' for Inactive)
REMARK    1  A    between atoms: C_1  and  C_2
REMARK    2  A    between atoms: C_2  and  C_3
REMARK    3  A    between atoms: C_2  and  N_4
REMARK    4  A    between atoms: N_4  and  C_5
REMARK    5  A    between atoms: C_5  and  C_6
REMARK    6  A    between atoms: C_6  and  O_7
REMARK    7  A    between atoms: C_6  and  C_8
REMARK    8  A    between atoms: C_8  and  O_9
REMARK    9  A    between atoms: O_9  and  C_10
REMARK   10  A    between atoms: C_10  and  C_12
REMARK   11  A    between atoms: C_12  and  C_13
REMARK   12  A    between atoms: C_12  and  C_14
REMARK                            x       y       z     vdW  Elec       q    Type
REMARK                         _______ _______ _______ _____ _____    ______ ____
ROOT
ATOM      1  C   UNL     1       4.471   3.790  18.645  0.00  0.00    +0.000 C 
ENDROOT
BRANCH   1   2
ATOM      2  O   UNL     1       5.052   3.287  17.431  0.00  0.00    +0.000 OA
ATOM      3  H   UNL     1       5.707   3.934  17.120  0.00  0.00    +0.000 HD
ENDBRANCH   1   2
BRANCH   1   4
ATOM      4  C   UNL     1       5.307   4.966  19.181  0.00  0.00    +0.000 C 
BRANCH   4   5
ATOM      5  N   UNL     1       5.730   5.860  18.099  0.00  0.00    +0.000 NA
ATOM      6  H   UNL     1       5.325   5.529  17.221  0.00  0.00    +0.000 HD
BRANCH   5   8
ATOM      7  C   UNL     1       7.504   7.417  17.521  0.00  0.00    +0.000 C 
ATOM      8  C   UNL     1       7.184   5.997  17.987  0.00  0.00    +0.000 C 
ATOM      9  C   UNL     1       7.891   5.733  19.323  0.00  0.00    +0.000 C 
ENDBRANCH   5   8
ENDBRANCH   4   5
ENDBRANCH   1   4
BRANCH   1  10
ATOM     10  C   UNL     1       4.408   2.684  19.712  0.00  0.00    +0.000 C 
BRANCH  10  11
ATOM     11  O   UNL     1       3.078   2.156  19.835  0.00  0.00    +0.000 OA
BRANCH  11  12
ATOM     12  C   UNL     1       2.384   2.622  20.909  0.00  0.00    +0.000 C 
ATOM     13  O   UNL     1       2.755   2.515  22.073  0.00  0.00    +0.000 OA
BRANCH  12  14
ATOM     14  C   UNL     1       1.105   3.307  20.465  0.00  0.00    +0.000 C 
ATOM     15  C   UNL     1       1.286   4.822  20.440  0.00  0.00    +0.000 C 
ATOM     16  C   UNL     1       0.694   2.799  19.085  0.00  0.00    +0.000 C 
ENDBRANCH  12  14
ENDBRANCH  11  12
ENDBRANCH  10  11
ENDBRANCH   1  10
TORSDOF 8
ENDMDL
MODEL 2
REMARK VINA RESULT:      -5.5      1.579      2.269
REMARK  Name = 
REMARK  12 active torsions:
REMARK  status: ('A' for Active; 'I' for Inactive)
REMARK    1  A    between atoms: C_1  and  C_2
REMARK    2  A    between atoms: C_2  and  C_3
REMARK    3  A    between atoms: C_2  and  N_4
REMARK    4  A    between atoms: N_4  and  C_5
REMARK    5  A    between atoms: C_5  and  C_6
REMARK    6  A    between atoms: C_6  and  O_7
REMARK    7  A    between atoms: C_6  and  C_8
REMARK    8  A    between atoms: C_8  and  O_9
REMARK    9  A    between atoms: O_9  and  C_10
REMARK   10  A    between atoms: C_10  and  C_12
REMARK   11  A    between atoms: C_12  and  C_13
REMARK   12  A    between atoms: C_12  and  C_14
REMARK                            x       y       z     vdW  Elec       q    Type
REMARK                         _______ _______ _______ _____ _____    ______ ____
ROOT
ATOM      1  C   UNL     1       4.719   3.616  18.598  0.00  0.00    +0.000 C 
ENDROOT
BRANCH   1   2
ATOM      2  O   UNL     1       5.109   2.700  19.635  0.00  0.00    +0.000 OA
ATOM      3  H   UNL     1       5.452   1.895  19.212  0.00  0.00    +0.000 HD
ENDBRANCH   1   2
BRANCH   1   4
ATOM      4  C   UNL     1       4.582   5.036  19.175  0.00  0.00    +0.000 C 
BRANCH   4   5
ATOM      5  N   UNL     1       4.694   6.054  18.126  0.00  0.00    +0.000 NA
ATOM      6  H   UNL     1       3.815   6.089  17.606  0.00  0.00    +0.000 HD
BRANCH   5   8
ATOM      7  C   UNL     1       5.336   5.989  15.783  0.00  0.00    +0.000 C 
ATOM      8  C   UNL     1       5.828   5.842  17.223  0.00  0.00    +0.000 C 
ATOM      9  C   UNL     1       6.959   6.848  17.474  0.00  0.00    +0.000 C 
ENDBRANCH   5   8
ENDBRANCH   4   5
ENDBRANCH   1   4
BRANCH   1  10
ATOM     10  C   UNL     1       3.378   3.190  17.979  0.00  0.00    +0.000 C 
BRANCH  10  11
ATOM     11  O   UNL     1       2.292   3.974  18.500  0.00  0.00    +0.000 OA
BRANCH  11  12
ATOM     12  C   UNL     1       1.261   3.243  19.005  0.00  0.00    +0.000 C 
ATOM     13  O   UNL     1       0.669   2.363  18.389  0.00  0.00    +0.000 OA
BRANCH  12  14
ATOM     14  C   UNL     1       0.964   3.654  20.435  0.00  0.00    +0.000 C 
ATOM     15  C   UNL     1       1.584   2.667  21.419  0.00  0.00    +0.000 C 
ATOM     16  C   UNL     1       1.490   5.064  20.693  0.00  0.00    +0.000 C 
ENDBRANCH  12  14
ENDBRANCH  11  12
ENDBRANCH  10  11
ENDBRANCH   1  10
TORSDOF 8
ENDMDL
MODEL 3
REMARK VINA RESULT:      -5.4      1.833      2.314
REMARK  Name = 
REMARK  12 active torsions:
REMARK  status: ('A' for Active; 'I' for Inactive)
REMARK    1  A    between atoms: C_1  and  C_2
REMARK    2  A    between atoms: C_2  and  C_3
REMARK    3  A    between atoms: C_2  and  N_4
REMARK    4  A    between atoms: N_4  and  C_5
REMARK    5  A    between atoms: C_5  and  C_6
REMARK    6  A    between atoms: C_6  and  O_7
REMARK    7  A    between atoms: C_6  and  C_8
REMARK    8  A    between atoms: C_8  and  O_9
REMARK    9  A    between atoms: O_9  and  C_10
REMARK   10  A    between atoms: C_10  and  C_12
REMARK   11  A    between atoms: C_12  and  C_13
REMARK   12  A    between atoms: C_12  and  C_14
REMARK                            x       y       z     vdW  Elec       q    Type
REMARK                         _______ _______ _______ _____ _____    ______ ____
ROOT
ATOM      1  C   UNL     1       4.558   3.044  18.558  0.00  0.00    +0.000 C 
ENDROOT
BRANCH   1   2
ATOM      2  O   UNL     1       4.946   2.371  19.767  0.00  0.00    +0.000 OA
ATOM      3  H   UNL     1       4.322   1.642  19.920  0.00  0.00    +0.000 HD
ENDBRANCH   1   2
BRANCH   1   4
ATOM      4  C   UNL     1       4.515   4.565  18.793  0.00  0.00    +0.000 C 
BRANCH   4   5
ATOM      5  N   UNL     1       5.616   5.244  18.102  0.00  0.00    +0.000 NA
ATOM      6  H   UNL     1       5.589   6.238  18.339  0.00  0.00    +0.000 HD
BRANCH   5   8
ATOM      7  C   UNL     1       5.172   6.362  15.990  0.00  0.00    +0.000 C 
ATOM      8  C   UNL     1       5.604   5.052  16.650  0.00  0.00    +0.000 C 
ATOM      9  C   UNL     1       6.982   4.646  16.112  0.00  0.00    +0.000 C 
ENDBRANCH   5   8
ENDBRANCH   4   5
ENDBRANCH   1   4
BRANCH   1  10
ATOM     10  C   UNL     1       3.172   2.564  18.096  0.00  0.00    +0.000 C 
BRANCH  10  11
ATOM     11  O   UNL     1       2.448   1.950  19.175  0.00  0.00    +0.000 OA
BRANCH  11  12
ATOM     12  C   UNL     1       1.177   2.410  19.335  0.00  0.00    +0.000 C 
ATOM     13  O   UNL     1       0.272   2.240  18.525  0.00  0.00    +0.000 OA
BRANCH  12  14
ATOM     14  C   UNL     1       1.034   3.140  20.657  0.00  0.00    +0.000 C 
ATOM     15  C   UNL     1       2.046   2.619  21.673  0.00  0.00    +0.000 C 
ATOM     16  C   UNL     1       1.217   4.642  20.447  0.00  0.00    +0.000 C 
ENDBRANCH  12  14
ENDBRANCH  11  12
ENDBRANCH  10  11
ENDBRANCH   1  10
TORSDOF 8
ENDMDL
MODEL 4
REMARK VINA RESULT:      -5.3      2.303      2.938
REMARK  Name = 
REMARK  12 active torsions:
REMARK  status: ('A' for Active; 'I' for Inactive)
REMARK    1  A    between atoms: C_1  and  C_2
REMARK    2  A    between atoms: C_2  and  C_3
REMARK    3  A    between atoms: C_2  and  N_4
REMARK    4  A    between atoms: N_4  and  C_5
REMARK    5  A    between atoms: C_5  and  C_6
REMARK    6  A    between atoms: C_6  and  O_7
REMARK    7  A    between atoms: C_6  and  C_8
REMARK    8  A    between atoms: C_8  and  O_9
REMARK    9  A    between atoms: O_9  and  C_10
REMARK   10  A    between atoms: C_10  and  C_12
REMARK   11  A    between atoms: C_12  and  C_13
REMARK   12  A    between atoms: C_12  and  C_14
REMARK                            x       y       z     vdW  Elec       q    Type
REMARK                         _______ _______ _______ _____ _____    ______ ____
ROOT
ATOM      1  C   UNL     1       6.174   4.480  19.091  0.00  0.00    +0.000 C 
ENDROOT
BRANCH   1   2
ATOM      2  O   UNL     1       6.904   5.476  19.824  0.00  0.00    +0.000 OA
ATOM      3  H   UNL     1       6.395   6.304  19.797  0.00  0.00    +0.000 HD
ENDBRANCH   1   2
BRANCH   1   4
ATOM      4  C   UNL     1       6.495   4.589  17.590  0.00  0.00    +0.000 C 
BRANCH   4   5
ATOM      5  N   UNL     1       5.568   3.789  16.784  0.00  0.00    +0.000 NA
ATOM      6  H   UNL     1       5.968   2.858  16.650  0.00  0.00    +0.000 HD
BRANCH   5   8
ATOM      7  C   UNL     1       5.323   5.923  15.646  0.00  0.00    +0.000 C 
ATOM      8  C   UNL     1       5.231   4.404  15.497  0.00  0.00    +0.000 C 
ATOM      9  C   UNL     1       6.176   3.949  14.377  0.00  0.00    +0.000 C 
ENDBRANCH   5   8
ENDBRANCH   4   5
ENDBRANCH   1   4
BRANCH   1  10
ATOM     10  C   UNL     1       4.661   4.658  19.300  0.00  0.00    +0.000 C 
BRANCH  10  11
ATOM     11  O   UNL     1       4.041   3.422  19.690  0.00  0.00    +0.000 OA
BRANCH  11  12
ATOM     12  C   UNL     1       2.829   3.192  19.114  0.00  0.00    +0.000 C 
ATOM     13  O   UNL     1       2.636   3.143  17.904  0.00  0.00    +0.000 OA
BRANCH  12  14
ATOM     14  C   UNL     1       1.763   2.986  20.174  0.00  0.00    +0.000 C 
ATOM     15  C   UNL     1       2.398   2.651  21.520  0.00  0.00    +0.000 C 
ATOM     16  C   UNL     1       0.896   4.238  20.292  0.00  0.00    +0.000 C 
ENDBRANCH  12  14
ENDBRANCH  11  12
ENDBRANCH  10  11
ENDBRANCH   1  10
TORSDOF 8
ENDMDL
MODEL 5
REMARK VINA RESULT:      -5.3      2.131      2.726
REMARK  Name = 
REMARK  12 active torsions:
REMARK  status: ('A' for Active; 'I' for Inactive)
REMARK    1  A    between atoms: C_1  and  C_2
REMARK    2  A    between atoms: C_2  and  C_3
REMARK    3  A    between atoms: C_2  and  N_4
REMARK    4  A    between atoms: N_4  and  C_5
REMARK    5  A    between atoms: C_5  and  C_6
REMARK    6  A    between atoms: C_6  and  O_7
REMARK    7  A    between atoms: C_6  and  C_8
REMARK    8  A    between atoms: C_8  and  O_9
REMARK    9  A    between atoms: O_9  and  C_10
REMARK   10  A    between atoms: C_10  and  C_12
REMARK   11  A    between atoms: C_12  and  C_13
REMARK   12  A    between atoms: C_12  and  C_14
REMARK                            x       y       z     vdW  Elec       q    Type
REMARK                         _______ _______ _______ _____ _____    ______ ____
ROOT
ATOM      1  C   UNL     1       5.282   4.513  19.330  0.00  0.00    +0.000 C 
ENDROOT
BRANCH   1   2
ATOM      2  O   UNL     1       4.566   5.716  19.651  0.00  0.00    +0.000 OA
ATOM      3  H   UNL     1       4.278   6.127  18.818  0.00  0.00    +0.000 HD
ENDBRANCH   1   2
BRANCH   1   4
ATOM      4  C   UNL     1       6.027   4.684  17.994  0.00  0.00    +0.000 C 
BRANCH   4   5
ATOM      5  N   UNL     1       5.525   3.755  16.977  0.00  0.00    +0.000 NA
ATOM      6  H   UNL     1       6.215   3.013  16.839  0.00  0.00    +0.000 HD
BRANCH   5   8
ATOM      7  C   UNL     1       5.310   5.916  15.886  0.00  0.00    +0.000 C 
ATOM      8  C   UNL     1       5.192   4.402  15.705  0.00  0.00    +0.000 C 
ATOM      9  C   UNL     1       6.123   3.955  14.571  0.00  0.00    +0.000 C 
ENDBRANCH   5   8
ENDBRANCH   4   5
ENDBRANCH   1   4
BRANCH   1  10
ATOM     10  C   UNL     1       4.315   3.322  19.222  0.00  0.00    +0.000 C 
BRANCH  10  11
ATOM     11  O   UNL     1       2.981   3.762  18.920  0.00  0.00    +0.000 OA
BRANCH  11  12
ATOM     12  C   UNL     1       2.009   2.856  19.215  0.00  0.00    +0.000 C 
ATOM     13  O   UNL     1       1.863   1.784  18.638  0.00  0.00    +0.000 OA
BRANCH  12  14
ATOM     14  C   UNL     1       1.149   3.348  20.364  0.00  0.00    +0.000 C 
ATOM     15  C   UNL     1       1.529   2.641  21.662  0.00  0.00    +0.000 C 
ATOM     16  C   UNL     1       1.301   4.860  20.519  0.00  0.00    +0.000 C 
ENDBRANCH  12  14
ENDBRANCH  11  12
ENDBRANCH  10  11
ENDBRANCH   1  10
TORSDOF 8
ENDMDL
MODEL 6
REMARK VINA RESULT:      -5.3      2.088      5.446
REMARK  Name = 
REMARK  12 active torsions:
REMARK  status: ('A' for Active; 'I' for Inactive)
REMARK    1  A    between atoms: C_1  and  C_2
REMARK    2  A    between atoms: C_2  and  C_3
REMARK    3  A    between atoms: C_2  and  N_4
REMARK    4  A    between atoms: N_4  and  C_5
REMARK    5  A    between atoms: C_5  and  C_6
REMARK    6  A    between atoms: C_6  and  O_7
REMARK    7  A    between atoms: C_6  and  C_8
REMARK    8  A    between atoms: C_8  and  O_9
REMARK    9  A    between atoms: O_9  and  C_10
REMARK   10  A    between atoms: C_10  and  C_12
REMARK   11  A    between atoms: C_12  and  C_13
REMARK   12  A    between atoms: C_12  and  C_14
REMARK                            x       y       z     vdW  Elec       q    Type
REMARK                         _______ _______ _______ _____ _____    ______ ____
ROOT
ATOM      1  C   UNL     1       3.931   3.035  18.412  0.00  0.00    +0.000 C 
ENDROOT
BRANCH   1   2
ATOM      2  O   UNL     1       4.660   2.900  17.181  0.00  0.00    +0.000 OA
ATOM      3  H   UNL     1       4.097   3.226  16.460  0.00  0.00    +0.000 HD
ENDBRANCH   1   2
BRANCH   1   4
ATOM      4  C   UNL     1       2.644   3.845  18.175  0.00  0.00    +0.000 C 
BRANCH   4   5
ATOM      5  N   UNL     1       2.106   4.376  19.431  0.00  0.00    +0.000 NA
ATOM      6  H   UNL     1       2.868   4.457  20.107  0.00  0.00    +0.000 HD
BRANCH   5   8
ATOM      7  C   UNL     1       0.577   2.555  18.928  0.00  0.00    +0.000 C 
ATOM      8  C   UNL     1       1.003   3.581  19.978  0.00  0.00    +0.000 C 
ATOM      9  C   UNL     1       1.405   2.849  21.265  0.00  0.00    +0.000 C 
ENDBRANCH   5   8
ENDBRANCH   4   5
ENDBRANCH   1   4
BRANCH   1  10
ATOM     10  C   UNL     1       4.788   3.745  19.472  0.00  0.00    +0.000 C 
BRANCH  10  11
ATOM     11  O   UNL     1       5.061   5.104  19.095  0.00  0.00    +0.000 OA
BRANCH  11  12
ATOM     12  C   UNL     1       6.383   5.423  19.054  0.00  0.00    +0.000 C 
ATOM     13  O   UNL     1       7.145   5.347  20.012  0.00  0.00    +0.000 OA
BRANCH  12  14
ATOM     14  C   UNL     1       6.785   5.863  17.658  0.00  0.00    +0.000 C 
ATOM     15  C   UNL     1       7.456   4.719  16.905  0.00  0.00    +0.000 C 
ATOM     16  C   UNL     1       5.559   6.356  16.894  0.00  0.00    +0.000 C 
ENDBRANCH  12  14
ENDBRANCH  11  12
ENDBRANCH  10  11
ENDBRANCH   1  10
TORSDOF 8
ENDMDL
MODEL 7
REMARK VINA RESULT:      -5.2      1.728      2.333
REMARK  Name = 
REMARK  12 active torsions:
REMARK  status: ('A' for Active; 'I' for Inactive)
REMARK    1  A    between atoms: C_1  and  C_2
REMARK    2  A    between atoms: C_2  and  C_3
REMARK    3  A    between atoms: C_2  and  N_4
REMARK    4  A    between atoms: N_4  and  C_5
REMARK    5  A    between atoms: C_5  and  C_6
REMARK    6  A    between atoms: C_6  and  O_7
REMARK    7  A    between atoms: C_6  and  C_8
REMARK    8  A    between atoms: C_8  and  O_9
REMARK    9  A    between atoms: O_9  and  C_10
REMARK   10  A    between atoms: C_10  and  C_12
REMARK   11  A    between atoms: C_12  and  C_13
REMARK   12  A    between atoms: C_12  and  C_14
REMARK                            x       y       z     vdW  Elec       q    Type
REMARK                         _______ _______ _______ _____ _____    ______ ____
ROOT
ATOM      1  C   UNL     1       4.141   3.509  17.330  0.00  0.00    +0.000 C 
ENDROOT
BRANCH   1   2
ATOM      2  O   UNL     1       4.720   2.848  18.466  0.00  0.00    +0.000 OA
ATOM      3  H   UNL     1       4.064   2.848  19.182  0.00  0.00    +0.000 HD
ENDBRANCH   1   2
BRANCH   1   4
ATOM      4  C   UNL     1       4.363   5.029  17.436  0.00  0.00    +0.000 C 
BRANCH   4   5
ATOM      5  N   UNL     1       5.327   5.357  18.490  0.00  0.00    +0.000 NA
ATOM      6  H   UNL     1       4.847   5.886  19.222  0.00  0.00    +0.000 HD
BRANCH   5   8
ATOM      7  C   UNL     1       7.656   5.849  18.979  0.00  0.00    +0.000 C 
ATOM      8  C   UNL     1       6.503   6.084  18.004  0.00  0.00    +0.000 C 
ATOM      9  C   UNL     1       6.925   5.623  16.603  0.00  0.00    +0.000 C 
ENDBRANCH   5   8
ENDBRANCH   4   5
ENDBRANCH   1   4
BRANCH   1  10
ATOM     10  C   UNL     1       2.632   3.223  17.250  0.00  0.00    +0.000 C 
BRANCH  10  11
ATOM     11  O   UNL     1       1.907   3.983  18.231  0.00  0.00    +0.000 OA
BRANCH  11  12
ATOM     12  C   UNL     1       1.027   3.255  18.971  0.00  0.00    +0.000 C 
ATOM     13  O   UNL     1       0.374   2.311  18.539  0.00  0.00    +0.000 OA
BRANCH  12  14
ATOM     14  C   UNL     1       0.984   3.759  20.401  0.00  0.00    +0.000 C 
ATOM     15  C   UNL     1       1.512   2.698  21.362  0.00  0.00    +0.000 C 
ATOM     16  C   UNL     1       1.800   5.043  20.526  0.00  0.00    +0.000 C 
ENDBRANCH  12  14
ENDBRANCH  11  12
ENDBRANCH  10  11
ENDBRANCH   1  10
TORSDOF 8
ENDMDL
MODEL 8
REMARK VINA RESULT:      -5.2      1.973      3.207
REMARK  Name = 
REMARK  12 active torsions:
REMARK  status: ('A' for Active; 'I' for Inactive)
REMARK    1  A    between atoms: C_1  and  C_2
REMARK    2  A    between atoms: C_2  and  C_3
REMARK    3  A    between atoms: C_2  and  N_4
REMARK    4  A    between atoms: N_4  and  C_5
REMARK    5  A    between atoms: C_5  and  C_6
REMARK    6  A    between atoms: C_6  and  O_7
REMARK    7  A    between atoms: C_6  and  C_8
REMARK    8  A    between atoms: C_8  and  O_9
REMARK    9  A    between atoms: O_9  and  C_10
REMARK   10  A    between atoms: C_10  and  C_12
REMARK   11  A    between atoms: C_12  and  C_13
REMARK   12  A    between atoms: C_12  and  C_14
REMARK                            x       y       z     vdW  Elec       q    Type
REMARK                         _______ _______ _______ _____ _____    ______ ____
ROOT
ATOM      1  C   UNL     1       6.014   4.552  15.291  0.00  0.00    +0.000 C 
ENDROOT
BRANCH   1   2
ATOM      2  O   UNL     1       6.244   3.351  14.537  0.00  0.00    +0.000 OA
ATOM      3  H   UNL     1       6.879   2.804  15.027  0.00  0.00    +0.000 HD
ENDBRANCH   1   2
BRANCH   1   4
ATOM      4  C   UNL     1       7.199   4.813  16.238  0.00  0.00    +0.000 C 
BRANCH   4   5
ATOM      5  N   UNL     1       7.544   6.237  16.286  0.00  0.00    +0.000 NA
ATOM      6  H   UNL     1       8.540   6.342  16.081  0.00  0.00    +0.000 HD
BRANCH   5   8
ATOM      7  C   UNL     1       7.665   5.977  18.699  0.00  0.00    +0.000 C 
ATOM      8  C   UNL     1       7.201   6.881  17.557  0.00  0.00    +0.000 C 
ATOM      9  C   UNL     1       7.864   8.257  17.701  0.00  0.00    +0.000 C 
ENDBRANCH   5   8
ENDBRANCH   4   5
ENDBRANCH   1   4
BRANCH   1  10
ATOM     10  C   UNL     1       4.723   4.432  16.117  0.00  0.00    +0.000 C 
BRANCH  10  11
ATOM     11  O   UNL     1       4.845   3.420  17.129  0.00  0.00    +0.000 OA
BRANCH  11  12
ATOM     12  C   UNL     1       4.509   3.832  18.382  0.00  0.00    +0.000 C 
ATOM     13  O   UNL     1       5.111   3.512  19.402  0.00  0.00    +0.000 OA
BRANCH  12  14
ATOM     14  C   UNL     1       3.306   4.756  18.338  0.00  0.00    +0.000 C 
ATOM     15  C   UNL     1       2.019   3.977  18.592  0.00  0.00    +0.000 C 
ATOM     16  C   UNL     1       3.465   5.870  19.370  0.00  0.00    +0.000 C 
ENDBRANCH  12  14
ENDBRANCH  11  12
ENDBRANCH  10  11
ENDBRANCH   1  10
TORSDOF 8
ENDMDL
MODEL 9
REMARK VINA RESULT:      -5.2      2.370      5.414
REMARK  Name = 
REMARK  12 active torsions:
REMARK  status: ('A' for Active; 'I' for Inactive)
REMARK    1  A    between atoms: C_1  and  C_2
REMARK    2  A    between atoms: C_2  and  C_3
REMARK    3  A    between atoms: C_2  and  N_4
REMARK    4  A    between atoms: N_4  and  C_5
REMARK    5  A    between atoms: C_5  and  C_6
REMARK    6  A    between atoms: C_6  and  O_7
REMARK    7  A    between atoms: C_6  and  C_8
REMARK    8  A    between atoms: C_8  and  O_9
REMARK    9  A    between atoms: O_9  and  C_10
REMARK   10  A    between atoms: C_10  and  C_12
REMARK   11  A    between atoms: C_12  and  C_13
REMARK   12  A    between atoms: C_12  and  C_14
REMARK                            x       y       z     vdW  Elec       q    Type
REMARK                         _______ _______ _______ _____ _____    ______ ____
ROOT
ATOM      1  C   UNL     1       3.335   2.104  18.540  0.00  0.00    +0.000 C 
ENDROOT
BRANCH   1   2
ATOM      2  O   UNL     1       3.914   0.819  18.261  0.00  0.00    +0.000 OA
ATOM      3  H   UNL     1       3.285   0.316  17.717  0.00  0.00    +0.000 HD
ENDBRANCH   1   2
BRANCH   1   4
ATOM      4  C   UNL     1       1.966   1.927  19.221  0.00  0.00    +0.000 C 
BRANCH   4   5
ATOM      5  N   UNL     1       1.181   3.164  19.176  0.00  0.00    +0.000 NA
ATOM      6  H   UNL     1       1.615   3.806  18.509  0.00  0.00    +0.000 HD
BRANCH   5   8
ATOM      7  C   UNL     1       1.424   2.802  21.567  0.00  0.00    +0.000 C 
ATOM      8  C   UNL     1       1.017   3.803  20.485  0.00  0.00    +0.000 C 
ATOM      9  C   UNL     1       1.875   5.068  20.619  0.00  0.00    +0.000 C 
ENDBRANCH   5   8
ENDBRANCH   4   5
ENDBRANCH   1   4
BRANCH   1  10
ATOM     10  C   UNL     1       3.154   2.907  17.242  0.00  0.00    +0.000 C 
BRANCH  10  11
ATOM     11  O   UNL     1       3.302   4.317  17.478  0.00  0.00    +0.000 OA
BRANCH  11  12
ATOM     12  C   UNL     1       4.454   4.853  16.991  0.00  0.00    +0.000 C 
ATOM     13  O   UNL     1       4.962   4.545  15.918  0.00  0.00    +0.000 OA
BRANCH  12  14
ATOM     14  C   UNL     1       5.007   5.893  17.948  0.00  0.00    +0.000 C 
ATOM     15  C   UNL     1       5.691   5.223  19.136  0.00  0.00    +0.000 C 
ATOM     16  C   UNL     1       5.989   6.805  17.216  0.00  0.00    +0.000 C 
ENDBRANCH  12  14
ENDBRANCH  11  12
ENDBRANCH  10  11
ENDBRANCH   1  10
TORSDOF 8
ENDMDL
