MODEL 1
REMARK VINA RESULT:      -7.7      0.000      0.000
REMARK  Name = 
REMARK  7 active torsions:
REMARK  status: ('A' for Active; 'I' for Inactive)
REMARK    1  A    between atoms: C_2  and  O_3
REMARK    2  A    between atoms: C_2  and  C_4
REMARK    3  A    between atoms: N_6  and  C_7
REMARK    4  A    between atoms: C_7  and  C_8
REMARK    5  A    between atoms: C_8  and  O_9
REMARK    6  A    between atoms: C_8  and  C_10
REMARK    7  A    between atoms: C_10  and  N_11
REMARK                            x       y       z     vdW  Elec       q    Type
REMARK                         _______ _______ _______ _____ _____    ______ ____
ROOT
ATOM      1  C   UNL     1       5.738   4.642  16.707  0.00  0.00    +0.000 A 
ATOM      2  C   UNL     1       5.125   3.399  16.742  0.00  0.00    +0.000 A 
ATOM      3  N   UNL     1       3.839   3.563  17.199  0.00  0.00    +0.000 N 
ATOM      4  C   UNL     1       3.570   4.898  17.393  0.00  0.00    +0.000 A 
ATOM      5  C   UNL     1       2.397   5.552  17.809  0.00  0.00    +0.000 A 
ATOM      6  C   UNL     1       2.430   6.937  17.964  0.00  0.00    +0.000 A 
ATOM      7  C   UNL     1       3.595   7.653  17.710  0.00  0.00    +0.000 A 
ATOM      8  C   UNL     1       4.757   6.998  17.292  0.00  0.00    +0.000 A 
ATOM      9  C   UNL     1       4.751   5.595  17.126  0.00  0.00    +0.000 A 
ENDROOT
BRANCH   1  11
ATOM     10  O   UNL     1       7.453   5.752  15.505  0.00  0.00    +0.000 OA
ATOM     11  C   UNL     1       7.122   4.926  16.342  0.00  0.00    +0.000 C 
BRANCH  11  12
ATOM     12  O   UNL     1       8.043   4.174  17.000  0.00  0.00    +0.000 OA
ATOM     13  H   UNL     1       8.602   4.723  17.577  0.00  0.00    +0.000 HD
ENDBRANCH  11  12
ENDBRANCH   1  11
BRANCH   3  14
ATOM     14  C   UNL     1       2.911   2.468  17.455  0.00  0.00    +0.000 C 
BRANCH  14  15
ATOM     15  C   UNL     1       3.235   1.726  18.762  0.00  0.00    +0.000 C 
BRANCH  15  16
ATOM     16  O   UNL     1       4.220   0.699  18.567  0.00  0.00    +0.000 OA
ATOM     17  H   UNL     1       3.778  -0.165  18.564  0.00  0.00    +0.000 HD
ENDBRANCH  15  16
BRANCH  15  18
ATOM     18  C   UNL     1       3.770   2.686  19.848  0.00  0.00    +0.000 C 
BRANCH  18  19
ATOM     19  N   UNL     1       2.867   2.883  20.993  0.00  0.00    +0.000 NA
ATOM     20  C   UNL     1       1.552   2.262  20.747  0.00  0.00    +0.000 C 
ATOM     21  C   UNL     1       0.735   3.329  20.050  0.00  0.00    +0.000 C 
ATOM     22  C   UNL     1       1.174   4.600  20.748  0.00  0.00    +0.000 C 
ATOM     23  C   UNL     1       2.584   4.309  21.247  0.00  0.00    +0.000 C 
ENDBRANCH  18  19
ENDBRANCH  15  18
ENDBRANCH  14  15
ENDBRANCH   3  14
TORSDOF 7
ENDMDL
MODEL 2
REMARK VINA RESULT:      -7.4      2.934      5.818
REMARK  Name = 
REMARK  7 active torsions:
REMARK  status: ('A' for Active; 'I' for Inactive)
REMARK    1  A    between atoms: C_2  and  O_3
REMARK    2  A    between atoms: C_2  and  C_4
REMARK    3  A    between atoms: N_6  and  C_7
REMARK    4  A    between atoms: C_7  and  C_8
REMARK    5  A    between atoms: C_8  and  O_9
REMARK    6  A    between atoms: C_8  and  C_10
REMARK    7  A    between atoms: C_10  and  N_11
REMARK                            x       y       z     vdW  Elec       q    Type
REMARK                         _______ _______ _______ _____ _____    ______ ____
ROOT
ATOM      1  C   UNL     1       2.817   6.263  19.567  0.00  0.00    +0.000 A 
ATOM      2  C   UNL     1       4.073   6.054  19.022  0.00  0.00    +0.000 A 
ATOM      3  N   UNL     1       4.359   4.712  19.095  0.00  0.00    +0.000 N 
ATOM      4  C   UNL     1       3.284   4.024  19.609  0.00  0.00    +0.000 A 
ATOM      5  C   UNL     1       3.090   2.650  19.832  0.00  0.00    +0.000 A 
ATOM      6  C   UNL     1       1.894   2.236  20.418  0.00  0.00    +0.000 A 
ATOM      7  C   UNL     1       0.917   3.163  20.767  0.00  0.00    +0.000 A 
ATOM      8  C   UNL     1       1.114   4.527  20.537  0.00  0.00    +0.000 A 
ATOM      9  C   UNL     1       2.315   4.973  19.945  0.00  0.00    +0.000 A 
ENDROOT
BRANCH   1  11
ATOM     10  O   UNL     1       1.885   8.317  18.835  0.00  0.00    +0.000 OA
ATOM     11  C   UNL     1       2.142   7.545  19.747  0.00  0.00    +0.000 C 
BRANCH  11  12
ATOM     12  O   UNL     1       1.827   7.839  21.036  0.00  0.00    +0.000 OA
ATOM     13  H   UNL     1       1.154   7.228  21.384  0.00  0.00    +0.000 HD
ENDBRANCH  11  12
ENDBRANCH   1  11
BRANCH   3  14
ATOM     14  C   UNL     1       5.631   4.119  18.700  0.00  0.00    +0.000 C 
BRANCH  14  15
ATOM     15  C   UNL     1       6.661   5.180  18.280  0.00  0.00    +0.000 C 
BRANCH  15  16
ATOM     16  O   UNL     1       7.632   5.424  19.310  0.00  0.00    +0.000 OA
ATOM     17  H   UNL     1       7.947   4.572  19.653  0.00  0.00    +0.000 HD
ENDBRANCH  15  16
BRANCH  15  18
ATOM     18  C   UNL     1       7.427   4.761  17.005  0.00  0.00    +0.000 C 
BRANCH  18  19
ATOM     19  N   UNL     1       7.059   5.511  15.794  0.00  0.00    +0.000 NA
ATOM     20  C   UNL     1       5.603   5.736  15.728  0.00  0.00    +0.000 C 
ATOM     21  C   UNL     1       5.046   4.518  15.022  0.00  0.00    +0.000 C 
ATOM     22  C   UNL     1       6.102   4.221  13.978  0.00  0.00    +0.000 C 
ATOM     23  C   UNL     1       7.396   4.779  14.557  0.00  0.00    +0.000 C 
ENDBRANCH  18  19
ENDBRANCH  15  18
ENDBRANCH  14  15
ENDBRANCH   3  14
TORSDOF 7
ENDMDL
MODEL 3
REMARK VINA RESULT:      -7.2      3.374      6.467
REMARK  Name = 
REMARK  7 active torsions:
REMARK  status: ('A' for Active; 'I' for Inactive)
REMARK    1  A    between atoms: C_2  and  O_3
REMARK    2  A    between atoms: C_2  and  C_4
REMARK    3  A    between atoms: N_6  and  C_7
REMARK    4  A    between atoms: C_7  and  C_8
REMARK    5  A    between atoms: C_8  and  O_9
REMARK    6  A    between atoms: C_8  and  C_10
REMARK    7  A    between atoms: C_10  and  N_11
REMARK                            x       y       z     vdW  Elec       q    Type
REMARK                         _______ _______ _______ _____ _____    ______ ____
ROOT
ATOM      1  C   UNL     1       3.185   6.298  18.012  0.00  0.00    +0.000 A 
ATOM      2  C   UNL     1       4.437   6.282  17.418  0.00  0.00    +0.000 A 
ATOM      3  N   UNL     1       4.767   4.977  17.141  0.00  0.00    +0.000 N 
ATOM      4  C   UNL     1       3.725   4.142  17.472  0.00  0.00    +0.000 A 
ATOM      5  C   UNL     1       3.580   2.750  17.337  0.00  0.00    +0.000 A 
ATOM      6  C   UNL     1       2.410   2.157  17.810  0.00  0.00    +0.000 A 
ATOM      7  C   UNL     1       1.410   2.927  18.395  0.00  0.00    +0.000 A 
ATOM      8  C   UNL     1       1.558   4.311  18.521  0.00  0.00    +0.000 A 
ATOM      9  C   UNL     1       2.733   4.937  18.051  0.00  0.00    +0.000 A 
ENDROOT
BRANCH   1  11
ATOM     10  O   UNL     1       2.194   7.638  19.699  0.00  0.00    +0.000 OA
ATOM     11  C   UNL     1       2.472   7.466  18.522  0.00  0.00    +0.000 C 
BRANCH  11  12
ATOM     12  O   UNL     1       2.113   8.366  17.568  0.00  0.00    +0.000 OA
ATOM     13  H   UNL     1       1.674   7.929  16.818  0.00  0.00    +0.000 HD
ENDBRANCH  11  12
ENDBRANCH   1  11
BRANCH   3  14
ATOM     14  C   UNL     1       6.050   4.551  16.594  0.00  0.00    +0.000 C 
BRANCH  14  15
ATOM     15  C   UNL     1       6.211   4.947  15.117  0.00  0.00    +0.000 C 
BRANCH  15  16
ATOM     16  O   UNL     1       7.483   5.563  14.861  0.00  0.00    +0.000 OA
ATOM     17  H   UNL     1       7.659   6.221  15.552  0.00  0.00    +0.000 HD
ENDBRANCH  15  16
BRANCH  15  18
ATOM     18  C   UNL     1       6.087   3.724  14.180  0.00  0.00    +0.000 C 
BRANCH  18  19
ATOM     19  N   UNL     1       6.033   4.052  12.747  0.00  0.00    +0.000 NA
ATOM     20  C   UNL     1       4.990   3.267  12.060  0.00  0.00    +0.000 C 
ATOM     21  C   UNL     1       5.676   1.985  11.637  0.00  0.00    +0.000 C 
ATOM     22  C   UNL     1       7.058   2.457  11.237  0.00  0.00    +0.000 C 
ATOM     23  C   UNL     1       7.291   3.725  12.048  0.00  0.00    +0.000 C 
ENDBRANCH  18  19
ENDBRANCH  15  18
ENDBRANCH  14  15
ENDBRANCH   3  14
TORSDOF 7
ENDMDL
MODEL 4
REMARK VINA RESULT:      -7.2      2.346      3.975
REMARK  Name = 
REMARK  7 active torsions:
REMARK  status: ('A' for Active; 'I' for Inactive)
REMARK    1  A    between atoms: C_2  and  O_3
REMARK    2  A    between atoms: C_2  and  C_4
REMARK    3  A    between atoms: N_6  and  C_7
REMARK    4  A    between atoms: C_7  and  C_8
REMARK    5  A    between atoms: C_8  and  O_9
REMARK    6  A    between atoms: C_8  and  C_10
REMARK    7  A    between atoms: C_10  and  N_11
REMARK                            x       y       z     vdW  Elec       q    Type
REMARK                         _______ _______ _______ _____ _____    ______ ____
ROOT
ATOM      1  C   UNL     1       6.612   5.089  18.687  0.00  0.00    +0.000 A 
ATOM      2  C   UNL     1       5.416   4.602  19.188  0.00  0.00    +0.000 A 
ATOM      3  N   UNL     1       4.641   4.186  18.131  0.00  0.00    +0.000 N 
ATOM      4  C   UNL     1       5.335   4.321  16.951  0.00  0.00    +0.000 A 
ATOM      5  C   UNL     1       4.980   3.996  15.630  0.00  0.00    +0.000 A 
ATOM      6  C   UNL     1       5.884   4.292  14.610  0.00  0.00    +0.000 A 
ATOM      7  C   UNL     1       7.107   4.888  14.895  0.00  0.00    +0.000 A 
ATOM      8  C   UNL     1       7.457   5.204  16.211  0.00  0.00    +0.000 A 
ATOM      9  C   UNL     1       6.561   4.916  17.264  0.00  0.00    +0.000 A 
ENDROOT
BRANCH   1  11
ATOM     10  O   UNL     1       8.127   5.236  20.505  0.00  0.00    +0.000 OA
ATOM     11  C   UNL     1       7.704   5.686  19.451  0.00  0.00    +0.000 C 
BRANCH  11  12
ATOM     12  O   UNL     1       8.219   6.819  18.905  0.00  0.00    +0.000 OA
ATOM     13  H   UNL     1       9.188   6.842  18.986  0.00  0.00    +0.000 HD
ENDBRANCH  11  12
ENDBRANCH   1  11
BRANCH   3  14
ATOM     14  C   UNL     1       3.274   3.695  18.256  0.00  0.00    +0.000 C 
BRANCH  14  15
ATOM     15  C   UNL     1       2.236   4.765  17.884  0.00  0.00    +0.000 C 
BRANCH  15  16
ATOM     16  O   UNL     1       1.022   4.185  17.381  0.00  0.00    +0.000 OA
ATOM     17  H   UNL     1       0.540   3.777  18.118  0.00  0.00    +0.000 HD
ENDBRANCH  15  16
BRANCH  15  18
ATOM     18  C   UNL     1       1.865   5.649  19.096  0.00  0.00    +0.000 C 
BRANCH  18  19
ATOM     19  N   UNL     1       2.705   6.845  19.264  0.00  0.00    +0.000 NA
ATOM     20  C   UNL     1       1.976   7.914  19.971  0.00  0.00    +0.000 C 
ATOM     21  C   UNL     1       1.263   8.691  18.885  0.00  0.00    +0.000 C 
ATOM     22  C   UNL     1       2.269   8.689  17.753  0.00  0.00    +0.000 C 
ATOM     23  C   UNL     1       3.106   7.435  17.971  0.00  0.00    +0.000 C 
ENDBRANCH  18  19
ENDBRANCH  15  18
ENDBRANCH  14  15
ENDBRANCH   3  14
TORSDOF 7
ENDMDL
MODEL 5
REMARK VINA RESULT:      -7.1      2.313      3.563
REMARK  Name = 
REMARK  7 active torsions:
REMARK  status: ('A' for Active; 'I' for Inactive)
REMARK    1  A    between atoms: C_2  and  O_3
REMARK    2  A    between atoms: C_2  and  C_4
REMARK    3  A    between atoms: N_6  and  C_7
REMARK    4  A    between atoms: C_7  and  C_8
REMARK    5  A    between atoms: C_8  and  O_9
REMARK    6  A    between atoms: C_8  and  C_10
REMARK    7  A    between atoms: C_10  and  N_11
REMARK                            x       y       z     vdW  Elec       q    Type
REMARK                         _______ _______ _______ _____ _____    ______ ____
ROOT
ATOM      1  C   UNL     1       6.513   5.541  18.873  0.00  0.00    +0.000 A 
ATOM      2  C   UNL     1       5.236   5.706  19.383  0.00  0.00    +0.000 A 
ATOM      3  N   UNL     1       4.331   5.399  18.395  0.00  0.00    +0.000 N 
ATOM      4  C   UNL     1       4.989   4.962  17.268  0.00  0.00    +0.000 A 
ATOM      5  C   UNL     1       4.497   4.506  16.033  0.00  0.00    +0.000 A 
ATOM      6  C   UNL     1       5.415   4.165  15.040  0.00  0.00    +0.000 A 
ATOM      7  C   UNL     1       6.783   4.271  15.270  0.00  0.00    +0.000 A 
ATOM      8  C   UNL     1       7.265   4.721  16.503  0.00  0.00    +0.000 A 
ATOM      9  C   UNL     1       6.358   5.072  17.526  0.00  0.00    +0.000 A 
ENDROOT
BRANCH   1  11
ATOM     10  O   UNL     1       8.183   5.173  20.516  0.00  0.00    +0.000 OA
ATOM     11  C   UNL     1       7.773   5.812  19.559  0.00  0.00    +0.000 C 
BRANCH  11  12
ATOM     12  O   UNL     1       8.470   6.867  19.059  0.00  0.00    +0.000 OA
ATOM     13  H   UNL     1       9.340   6.589  18.725  0.00  0.00    +0.000 HD
ENDBRANCH  11  12
ENDBRANCH   1  11
BRANCH   3  14
ATOM     14  C   UNL     1       2.887   5.541  18.529  0.00  0.00    +0.000 C 
BRANCH  14  15
ATOM     15  C   UNL     1       2.384   5.085  19.909  0.00  0.00    +0.000 C 
BRANCH  15  16
ATOM     16  O   UNL     1       1.997   6.195  20.733  0.00  0.00    +0.000 OA
ATOM     17  H   UNL     1       1.832   5.875  21.635  0.00  0.00    +0.000 HD
ENDBRANCH  15  16
BRANCH  15  18
ATOM     18  C   UNL     1       1.165   4.142  19.791  0.00  0.00    +0.000 C 
BRANCH  18  19
ATOM     19  N   UNL     1       1.444   2.734  20.115  0.00  0.00    +0.000 NA
ATOM     20  C   UNL     1       2.669   2.607  20.927  0.00  0.00    +0.000 C 
ATOM     21  C   UNL     1       3.797   2.494  19.923  0.00  0.00    +0.000 C 
ATOM     22  C   UNL     1       3.185   1.654  18.821  0.00  0.00    +0.000 C 
ATOM     23  C   UNL     1       1.688   1.918  18.910  0.00  0.00    +0.000 C 
ENDBRANCH  18  19
ENDBRANCH  15  18
ENDBRANCH  14  15
ENDBRANCH   3  14
TORSDOF 7
ENDMDL
MODEL 6
REMARK VINA RESULT:      -7.1      2.580      6.001
REMARK  Name = 
REMARK  7 active torsions:
REMARK  status: ('A' for Active; 'I' for Inactive)
REMARK    1  A    between atoms: C_2  and  O_3
REMARK    2  A    between atoms: C_2  and  C_4
REMARK    3  A    between atoms: N_6  and  C_7
REMARK    4  A    between atoms: C_7  and  C_8
REMARK    5  A    between atoms: C_8  and  O_9
REMARK    6  A    between atoms: C_8  and  C_10
REMARK    7  A    between atoms: C_10  and  N_11
REMARK                            x       y       z     vdW  Elec       q    Type
REMARK                         _______ _______ _______ _____ _____    ______ ____
ROOT
ATOM      1  C   UNL     1       2.622   3.526  20.089  0.00  0.00    +0.000 A 
ATOM      2  C   UNL     1       3.286   2.944  19.022  0.00  0.00    +0.000 A 
ATOM      3  N   UNL     1       3.538   3.918  18.085  0.00  0.00    +0.000 N 
ATOM      4  C   UNL     1       3.120   5.144  18.549  0.00  0.00    +0.000 A 
ATOM      5  C   UNL     1       3.200   6.424  17.974  0.00  0.00    +0.000 A 
ATOM      6  C   UNL     1       2.641   7.498  18.667  0.00  0.00    +0.000 A 
ATOM      7  C   UNL     1       2.025   7.304  19.899  0.00  0.00    +0.000 A 
ATOM      8  C   UNL     1       1.953   6.029  20.468  0.00  0.00    +0.000 A 
ATOM      9  C   UNL     1       2.511   4.925  19.788  0.00  0.00    +0.000 A 
ENDROOT
BRANCH   1  11
ATOM     10  O   UNL     1       2.818   2.391  22.161  0.00  0.00    +0.000 OA
ATOM     11  C   UNL     1       2.111   2.850  21.278  0.00  0.00    +0.000 C 
BRANCH  11  12
ATOM     12  O   UNL     1       0.756   2.745  21.326  0.00  0.00    +0.000 OA
ATOM     13  H   UNL     1       0.477   1.819  21.437  0.00  0.00    +0.000 HD
ENDBRANCH  11  12
ENDBRANCH   1  11
BRANCH   3  14
ATOM     14  C   UNL     1       4.144   3.669  16.782  0.00  0.00    +0.000 C 
BRANCH  14  15
ATOM     15  C   UNL     1       5.546   4.289  16.666  0.00  0.00    +0.000 C 
BRANCH  15  16
ATOM     16  O   UNL     1       6.380   3.944  17.783  0.00  0.00    +0.000 OA
ATOM     17  H   UNL     1       6.695   3.033  17.671  0.00  0.00    +0.000 HD
ENDBRANCH  15  16
BRANCH  15  18
ATOM     18  C   UNL     1       6.270   3.828  15.382  0.00  0.00    +0.000 C 
BRANCH  18  19
ATOM     19  N   UNL     1       6.040   4.683  14.206  0.00  0.00    +0.000 NA
ATOM     20  C   UNL     1       5.157   4.019  13.230  0.00  0.00    +0.000 C 
ATOM     21  C   UNL     1       6.083   3.218  12.339  0.00  0.00    +0.000 C 
ATOM     22  C   UNL     1       7.290   4.124  12.206  0.00  0.00    +0.000 C 
ATOM     23  C   UNL     1       7.287   4.973  13.470  0.00  0.00    +0.000 C 
ENDBRANCH  18  19
ENDBRANCH  15  18
ENDBRANCH  14  15
ENDBRANCH   3  14
TORSDOF 7
ENDMDL
MODEL 7
REMARK VINA RESULT:      -7.1      2.044      5.434
REMARK  Name = 
REMARK  7 active torsions:
REMARK  status: ('A' for Active; 'I' for Inactive)
REMARK    1  A    between atoms: C_2  and  O_3
REMARK    2  A    between atoms: C_2  and  C_4
REMARK    3  A    between atoms: N_6  and  C_7
REMARK    4  A    between atoms: C_7  and  C_8
REMARK    5  A    between atoms: C_8  and  O_9
REMARK    6  A    between atoms: C_8  and  C_10
REMARK    7  A    between atoms: C_10  and  N_11
REMARK                            x       y       z     vdW  Elec       q    Type
REMARK                         _______ _______ _______ _____ _____    ______ ____
ROOT
ATOM      1  C   UNL     1       4.450   2.277  19.841  0.00  0.00    +0.000 A 
ATOM      2  C   UNL     1       4.831   2.978  18.708  0.00  0.00    +0.000 A 
ATOM      3  N   UNL     1       3.824   3.855  18.382  0.00  0.00    +0.000 N 
ATOM      4  C   UNL     1       2.821   3.798  19.322  0.00  0.00    +0.000 A 
ATOM      5  C   UNL     1       1.622   4.523  19.438  0.00  0.00    +0.000 A 
ATOM      6  C   UNL     1       0.759   4.214  20.489  0.00  0.00    +0.000 A 
ATOM      7  C   UNL     1       1.081   3.216  21.402  0.00  0.00    +0.000 A 
ATOM      8  C   UNL     1       2.277   2.501  21.285  0.00  0.00    +0.000 A 
ATOM      9  C   UNL     1       3.169   2.794  20.230  0.00  0.00    +0.000 A 
ENDROOT
BRANCH   1  11
ATOM     10  O   UNL     1       5.651   1.283  21.627  0.00  0.00    +0.000 OA
ATOM     11  C   UNL     1       5.191   1.205  20.499  0.00  0.00    +0.000 C 
BRANCH  11  12
ATOM     12  O   UNL     1       5.355   0.089  19.740  0.00  0.00    +0.000 OA
ATOM     13  H   UNL     1       4.526  -0.414  19.666  0.00  0.00    +0.000 HD
ENDBRANCH  11  12
ENDBRANCH   1  11
BRANCH   3  14
ATOM     14  C   UNL     1       3.823   4.704  17.197  0.00  0.00    +0.000 C 
BRANCH  14  15
ATOM     15  C   UNL     1       5.167   4.661  16.452  0.00  0.00    +0.000 C 
BRANCH  15  16
ATOM     16  O   UNL     1       5.025   4.154  15.115  0.00  0.00    +0.000 OA
ATOM     17  H   UNL     1       5.760   4.485  14.574  0.00  0.00    +0.000 HD
ENDBRANCH  15  16
BRANCH  15  18
ATOM     18  C   UNL     1       5.812   6.062  16.354  0.00  0.00    +0.000 C 
BRANCH  18  19
ATOM     19  N   UNL     1       7.266   6.086  16.582  0.00  0.00    +0.000 NA
ATOM     20  C   UNL     1       7.679   5.008  17.499  0.00  0.00    +0.000 C 
ATOM     21  C   UNL     1       7.554   5.600  18.887  0.00  0.00    +0.000 C 
ATOM     22  C   UNL     1       8.011   7.030  18.686  0.00  0.00    +0.000 C 
ATOM     23  C   UNL     1       7.713   7.338  17.224  0.00  0.00    +0.000 C 
ENDBRANCH  18  19
ENDBRANCH  15  18
ENDBRANCH  14  15
ENDBRANCH   3  14
TORSDOF 7
ENDMDL
MODEL 8
REMARK VINA RESULT:      -7.0      1.966      3.054
REMARK  Name = 
REMARK  7 active torsions:
REMARK  status: ('A' for Active; 'I' for Inactive)
REMARK    1  A    between atoms: C_2  and  O_3
REMARK    2  A    between atoms: C_2  and  C_4
REMARK    3  A    between atoms: N_6  and  C_7
REMARK    4  A    between atoms: C_7  and  C_8
REMARK    5  A    between atoms: C_8  and  O_9
REMARK    6  A    between atoms: C_8  and  C_10
REMARK    7  A    between atoms: C_10  and  N_11
REMARK                            x       y       z     vdW  Elec       q    Type
REMARK                         _______ _______ _______ _____ _____    ______ ____
ROOT
ATOM      1  C   UNL     1       6.571   5.559  18.356  0.00  0.00    +0.000 A 
ATOM      2  C   UNL     1       5.256   5.588  18.791  0.00  0.00    +0.000 A 
ATOM      3  N   UNL     1       4.440   5.299  17.724  0.00  0.00    +0.000 N 
ATOM      4  C   UNL     1       5.197   5.006  16.612  0.00  0.00    +0.000 A 
ATOM      5  C   UNL     1       4.818   4.618  15.315  0.00  0.00    +0.000 A 
ATOM      6  C   UNL     1       5.819   4.429  14.362  0.00  0.00    +0.000 A 
ATOM      7  C   UNL     1       7.157   4.615  14.692  0.00  0.00    +0.000 A 
ATOM      8  C   UNL     1       7.527   4.995  15.985  0.00  0.00    +0.000 A 
ATOM      9  C   UNL     1       6.535   5.193  16.969  0.00  0.00    +0.000 A 
ENDROOT
BRANCH   1  11
ATOM     10  O   UNL     1       8.221   5.126  20.003  0.00  0.00    +0.000 OA
ATOM     11  C   UNL     1       7.762   5.863  19.144  0.00  0.00    +0.000 C 
BRANCH  11  12
ATOM     12  O   UNL     1       8.329   7.066  18.863  0.00  0.00    +0.000 OA
ATOM     13  H   UNL     1       9.298   7.027  18.940  0.00  0.00    +0.000 HD
ENDBRANCH  11  12
ENDBRANCH   1  11
BRANCH   3  14
ATOM     14  C   UNL     1       2.983   5.323  17.772  0.00  0.00    +0.000 C 
BRANCH  14  15
ATOM     15  C   UNL     1       2.383   3.914  17.908  0.00  0.00    +0.000 C 
BRANCH  15  16
ATOM     16  O   UNL     1       2.134   3.309  16.630  0.00  0.00    +0.000 OA
ATOM     17  H   UNL     1       2.865   3.530  16.030  0.00  0.00    +0.000 HD
ENDBRANCH  15  16
BRANCH  15  18
ATOM     18  C   UNL     1       3.316   2.969  18.699  0.00  0.00    +0.000 C 
BRANCH  18  19
ATOM     19  N   UNL     1       2.652   2.198  19.761  0.00  0.00    +0.000 NA
ATOM     20  C   UNL     1       1.210   2.502  19.819  0.00  0.00    +0.000 C 
ATOM     21  C   UNL     1       1.095   3.691  20.750  0.00  0.00    +0.000 C 
ATOM     22  C   UNL     1       2.141   3.396  21.805  0.00  0.00    +0.000 C 
ATOM     23  C   UNL     1       3.174   2.525  21.103  0.00  0.00    +0.000 C 
ENDBRANCH  18  19
ENDBRANCH  15  18
ENDBRANCH  14  15
ENDBRANCH   3  14
TORSDOF 7
ENDMDL
MODEL 9
REMARK VINA RESULT:      -6.9      3.013      6.054
REMARK  Name = 
REMARK  7 active torsions:
REMARK  status: ('A' for Active; 'I' for Inactive)
REMARK    1  A    between atoms: C_2  and  O_3
REMARK    2  A    between atoms: C_2  and  C_4
REMARK    3  A    between atoms: N_6  and  C_7
REMARK    4  A    between atoms: C_7  and  C_8
REMARK    5  A    between atoms: C_8  and  O_9
REMARK    6  A    between atoms: C_8  and  C_10
REMARK    7  A    between atoms: C_10  and  N_11
REMARK                            x       y       z     vdW  Elec       q    Type
REMARK                         _______ _______ _______ _____ _____    ______ ____
ROOT
ATOM      1  C   UNL     1       3.110   5.933  18.842  0.00  0.00    +0.000 A 
ATOM      2  C   UNL     1       4.429   5.789  18.444  0.00  0.00    +0.000 A 
ATOM      3  N   UNL     1       4.678   4.451  18.245  0.00  0.00    +0.000 N 
ATOM      4  C   UNL     1       3.527   3.721  18.431  0.00  0.00    +0.000 A 
ATOM      5  C   UNL     1       3.278   2.343  18.303  0.00  0.00    +0.000 A 
ATOM      6  C   UNL     1       2.002   1.869  18.605  0.00  0.00    +0.000 A 
ATOM      7  C   UNL     1       1.000   2.742  19.018  0.00  0.00    +0.000 A 
ATOM      8  C   UNL     1       1.253   4.111  19.138  0.00  0.00    +0.000 A 
ATOM      9  C   UNL     1       2.536   4.618  18.839  0.00  0.00    +0.000 A 
ENDROOT
BRANCH   1  11
ATOM     10  O   UNL     1       2.165   8.068  18.429  0.00  0.00    +0.000 OA
ATOM     11  C   UNL     1       2.438   7.174  19.216  0.00  0.00    +0.000 C 
BRANCH  11  12
ATOM     12  O   UNL     1       2.147   7.279  20.539  0.00  0.00    +0.000 OA
ATOM     13  H   UNL     1       1.278   6.891  20.742  0.00  0.00    +0.000 HD
ENDBRANCH  11  12
ENDBRANCH   1  11
BRANCH   3  14
ATOM     14  C   UNL     1       5.984   3.899  17.905  0.00  0.00    +0.000 C 
BRANCH  14  15
ATOM     15  C   UNL     1       6.574   4.540  16.639  0.00  0.00    +0.000 C 
BRANCH  15  16
ATOM     16  O   UNL     1       8.009   4.592  16.681  0.00  0.00    +0.000 OA
ATOM     17  H   UNL     1       8.313   5.341  16.144  0.00  0.00    +0.000 HD
ENDBRANCH  15  16
BRANCH  15  18
ATOM     18  C   UNL     1       6.172   3.765  15.365  0.00  0.00    +0.000 C 
BRANCH  18  19
ATOM     19  N   UNL     1       5.934   4.608  14.182  0.00  0.00    +0.000 NA
ATOM     20  C   UNL     1       5.056   3.929  13.211  0.00  0.00    +0.000 C 
ATOM     21  C   UNL     1       5.990   3.129  12.327  0.00  0.00    +0.000 C 
ATOM     22  C   UNL     1       7.189   4.045  12.186  0.00  0.00    +0.000 C 
ATOM     23  C   UNL     1       7.177   4.904  13.444  0.00  0.00    +0.000 C 
ENDBRANCH  18  19
ENDBRANCH  15  18
ENDBRANCH  14  15
ENDBRANCH   3  14
TORSDOF 7
ENDMDL
