MODEL 1
REMARK VINA RESULT:      -6.9      0.000      0.000
REMARK  Name = 
REMARK  8 active torsions:
REMARK  status: ('A' for Active; 'I' for Inactive)
REMARK    1  A    between atoms: C_1  and  O_2
REMARK    2  A    between atoms: O_2  and  C_3
REMARK    3  A    between atoms: C_5  and  C_6
REMARK    4  A    between atoms: C_6  and  S_7
REMARK    5  A    between atoms: S_7  and  C_8
REMARK    6  A    between atoms: N_13  and  C_14
REMARK    7  A    between atoms: C_19  and  S_20
REMARK    8  A    between atoms: S_20  and  C_21
REMARK                            x       y       z     vdW  Elec       q    Type
REMARK                         _______ _______ _______ _____ _____    ______ ____
ROOT
ATOM      1  S   UNL     1       3.115   5.626  18.144  0.00  0.00    +0.000 S 
ENDROOT
BRANCH   1   2
ATOM      2  C   UNL     1       4.766   5.174  18.485  0.00  0.00    +0.000 A 
ATOM      3  N   UNL     1       5.427   5.394  19.594  0.00  0.00    +0.000 NA
ATOM      4  N   UNL     1       6.747   5.053  19.365  0.00  0.00    +0.000 NA
ATOM      5  C   UNL     1       6.866   4.643  18.117  0.00  0.00    +0.000 A 
ATOM      6  N   UNL     1       7.997   4.244  17.517  0.00  0.00    +0.000 N 
ATOM      7  N   UNL     1       5.618   4.667  17.524  0.00  0.00    +0.000 N 
ATOM      8  H   UNL     1       8.811   4.096  18.114  0.00  0.00    +0.000 HD
ATOM      9  H   UNL     1       7.983   3.655  16.697  0.00  0.00    +0.000 HD
BRANCH   7  10
ATOM     10  C   UNL     1       5.215   4.413  16.151  0.00  0.00    +0.000 C 
ATOM     11  C   UNL     1       5.932   4.083  14.867  0.00  0.00    +0.000 C 
ATOM     12  C   UNL     1       5.568   5.498  15.136  0.00  0.00    +0.000 C 
ENDBRANCH   7  10
ENDBRANCH   1   2
BRANCH   1  13
ATOM     13  C   UNL     1       2.588   6.404  19.686  0.00  0.00    +0.000 C 
BRANCH  13  16
ATOM     14  C   UNL     1       0.860   9.786  20.396  0.00  0.00    +0.000 A 
ATOM     15  C   UNL     1       1.330   8.457  20.525  0.00  0.00    +0.000 A 
ATOM     16  C   UNL     1       1.961   7.773  19.474  0.00  0.00    +0.000 A 
ATOM     17  C   UNL     1       2.067   8.429  18.249  0.00  0.00    +0.000 A 
ATOM     18  C   UNL     1       1.607   9.743  18.101  0.00  0.00    +0.000 A 
ATOM     19  C   UNL     1       1.012  10.456  19.166  0.00  0.00    +0.000 A 
BRANCH  14  21
ATOM     20  C   UNL     1       0.157   9.326  22.676  0.00  0.00    +0.000 C 
ATOM     21  O   UNL     1       0.320  10.208  21.583  0.00  0.00    +0.000 OA
ENDBRANCH  14  21
BRANCH  19  22
ATOM     22  S   UNL     1       0.719  12.210  18.877  0.00  0.00    +0.000 S 
ATOM     23  C   UNL     1       2.030  13.014  19.841  0.00  0.00    +0.000 C 
ENDBRANCH  19  22
ENDBRANCH  13  16
ENDBRANCH   1  13
TORSDOF 6
ENDMDL
MODEL 2
REMARK VINA RESULT:      -6.8      1.239      2.269
REMARK  Name = 
REMARK  8 active torsions:
REMARK  status: ('A' for Active; 'I' for Inactive)
REMARK    1  A    between atoms: C_1  and  O_2
REMARK    2  A    between atoms: O_2  and  C_3
REMARK    3  A    between atoms: C_5  and  C_6
REMARK    4  A    between atoms: C_6  and  S_7
REMARK    5  A    between atoms: S_7  and  C_8
REMARK    6  A    between atoms: N_13  and  C_14
REMARK    7  A    between atoms: C_19  and  S_20
REMARK    8  A    between atoms: S_20  and  C_21
REMARK                            x       y       z     vdW  Elec       q    Type
REMARK                         _______ _______ _______ _____ _____    ______ ____
ROOT
ATOM      1  S   UNL     1       3.209   5.087  18.521  0.00  0.00    +0.000 S 
ENDROOT
BRANCH   1   2
ATOM      2  C   UNL     1       4.929   4.819  18.651  0.00  0.00    +0.000 A 
ATOM      3  N   UNL     1       5.683   5.054  19.695  0.00  0.00    +0.000 NA
ATOM      4  N   UNL     1       6.999   4.889  19.302  0.00  0.00    +0.000 NA
ATOM      5  C   UNL     1       7.019   4.569  18.023  0.00  0.00    +0.000 A 
ATOM      6  N   UNL     1       8.112   4.345  17.279  0.00  0.00    +0.000 N 
ATOM      7  N   UNL     1       5.717   4.476  17.571  0.00  0.00    +0.000 N 
ATOM      8  H   UNL     1       9.000   4.263  17.773  0.00  0.00    +0.000 HD
ATOM      9  H   UNL     1       8.071   3.806  16.426  0.00  0.00    +0.000 HD
BRANCH   7  10
ATOM     10  C   UNL     1       5.191   4.254  16.234  0.00  0.00    +0.000 C 
ATOM     11  C   UNL     1       5.789   4.020  14.871  0.00  0.00    +0.000 C 
ATOM     12  C   UNL     1       5.377   5.398  15.241  0.00  0.00    +0.000 C 
ENDBRANCH   7  10
ENDBRANCH   1   2
BRANCH   1  13
ATOM     13  C   UNL     1       3.116   6.754  17.832  0.00  0.00    +0.000 C 
BRANCH  13  16
ATOM     14  C   UNL     1       1.226   9.878  19.094  0.00  0.00    +0.000 A 
ATOM     15  C   UNL     1       1.995   8.996  18.298  0.00  0.00    +0.000 A 
ATOM     16  C   UNL     1       2.420   7.739  18.757  0.00  0.00    +0.000 A 
ATOM     17  C   UNL     1       2.108   7.393  20.071  0.00  0.00    +0.000 A 
ATOM     18  C   UNL     1       1.350   8.252  20.874  0.00  0.00    +0.000 A 
ATOM     19  C   UNL     1       0.878   9.499  20.406  0.00  0.00    +0.000 A 
BRANCH  14  21
ATOM     20  C   UNL     1       1.567  12.243  18.651  0.00  0.00    +0.000 C 
ATOM     21  O   UNL     1       0.929  11.011  18.382  0.00  0.00    +0.000 OA
ENDBRANCH  14  21
BRANCH  19  22
ATOM     22  S   UNL     1      -0.295  10.353  21.474  0.00  0.00    +0.000 S 
ATOM     23  C   UNL     1      -0.299   9.338  22.980  0.00  0.00    +0.000 C 
ENDBRANCH  19  22
ENDBRANCH  13  16
ENDBRANCH   1  13
TORSDOF 6
ENDMDL
MODEL 3
REMARK VINA RESULT:      -6.7      2.277      3.782
REMARK  Name = 
REMARK  8 active torsions:
REMARK  status: ('A' for Active; 'I' for Inactive)
REMARK    1  A    between atoms: C_1  and  O_2
REMARK    2  A    between atoms: O_2  and  C_3
REMARK    3  A    between atoms: C_5  and  C_6
REMARK    4  A    between atoms: C_6  and  S_7
REMARK    5  A    between atoms: S_7  and  C_8
REMARK    6  A    between atoms: N_13  and  C_14
REMARK    7  A    between atoms: C_19  and  S_20
REMARK    8  A    between atoms: S_20  and  C_21
REMARK                            x       y       z     vdW  Elec       q    Type
REMARK                         _______ _______ _______ _____ _____    ______ ____
ROOT
ATOM      1  S   UNL     1       2.152   5.416  18.133  0.00  0.00    +0.000 S 
ENDROOT
BRANCH   1   2
ATOM      2  C   UNL     1       3.526   4.574  18.804  0.00  0.00    +0.000 A 
ATOM      3  N   UNL     1       4.790   4.851  18.606  0.00  0.00    +0.000 NA
ATOM      4  N   UNL     1       5.533   3.824  19.158  0.00  0.00    +0.000 NA
ATOM      5  C   UNL     1       4.705   2.936  19.673  0.00  0.00    +0.000 A 
ATOM      6  N   UNL     1       5.048   1.791  20.282  0.00  0.00    +0.000 N 
ATOM      7  N   UNL     1       3.410   3.389  19.504  0.00  0.00    +0.000 N 
ATOM      8  H   UNL     1       6.034   1.664  20.507  0.00  0.00    +0.000 HD
ATOM      9  H   UNL     1       4.422   1.324  20.922  0.00  0.00    +0.000 HD
BRANCH   7  10
ATOM     10  C   UNL     1       2.137   2.752  19.795  0.00  0.00    +0.000 C 
ATOM     11  C   UNL     1       0.772   3.228  20.221  0.00  0.00    +0.000 C 
ATOM     12  C   UNL     1       1.712   2.736  21.261  0.00  0.00    +0.000 C 
ENDBRANCH   7  10
ENDBRANCH   1   2
BRANCH   1  13
ATOM     13  C   UNL     1       2.776   7.098  17.926  0.00  0.00    +0.000 C 
BRANCH  13  16
ATOM     14  C   UNL     1       1.127  10.304  19.314  0.00  0.00    +0.000 A 
ATOM     15  C   UNL     1       1.843   9.402  18.491  0.00  0.00    +0.000 A 
ATOM     16  C   UNL     1       2.138   8.088  18.887  0.00  0.00    +0.000 A 
ATOM     17  C   UNL     1       1.749   7.697  20.167  0.00  0.00    +0.000 A 
ATOM     18  C   UNL     1       1.041   8.575  20.997  0.00  0.00    +0.000 A 
ATOM     19  C   UNL     1       0.699   9.884  20.590  0.00  0.00    +0.000 A 
BRANCH  14  21
ATOM     20  C   UNL     1       2.059  12.317  18.323  0.00  0.00    +0.000 C 
ATOM     21  O   UNL     1       0.958  11.498  18.663  0.00  0.00    +0.000 OA
ENDBRANCH  14  21
BRANCH  19  22
ATOM     22  S   UNL     1      -0.430  10.779  21.670  0.00  0.00    +0.000 S 
ATOM     23  C   UNL     1      -0.372   9.823  23.213  0.00  0.00    +0.000 C 
ENDBRANCH  19  22
ENDBRANCH  13  16
ENDBRANCH   1  13
TORSDOF 6
ENDMDL
MODEL 4
REMARK VINA RESULT:      -6.7      2.118      3.093
REMARK  Name = 
REMARK  8 active torsions:
REMARK  status: ('A' for Active; 'I' for Inactive)
REMARK    1  A    between atoms: C_1  and  O_2
REMARK    2  A    between atoms: O_2  and  C_3
REMARK    3  A    between atoms: C_5  and  C_6
REMARK    4  A    between atoms: C_6  and  S_7
REMARK    5  A    between atoms: S_7  and  C_8
REMARK    6  A    between atoms: N_13  and  C_14
REMARK    7  A    between atoms: C_19  and  S_20
REMARK    8  A    between atoms: S_20  and  C_21
REMARK                            x       y       z     vdW  Elec       q    Type
REMARK                         _______ _______ _______ _____ _____    ______ ____
ROOT
ATOM      1  S   UNL     1       2.493   6.212  18.658  0.00  0.00    +0.000 S 
ENDROOT
BRANCH   1   2
ATOM      2  C   UNL     1       3.744   5.078  19.099  0.00  0.00    +0.000 A 
ATOM      3  N   UNL     1       5.036   5.242  18.963  0.00  0.00    +0.000 NA
ATOM      4  N   UNL     1       5.641   4.032  19.250  0.00  0.00    +0.000 NA
ATOM      5  C   UNL     1       4.704   3.152  19.542  0.00  0.00    +0.000 A 
ATOM      6  N   UNL     1       4.897   1.863  19.858  0.00  0.00    +0.000 N 
ATOM      7  N   UNL     1       3.476   3.783  19.496  0.00  0.00    +0.000 N 
ATOM      8  H   UNL     1       5.857   1.569  20.039  0.00  0.00    +0.000 HD
ATOM      9  H   UNL     1       4.208   1.334  20.372  0.00  0.00    +0.000 HD
BRANCH   7  10
ATOM     10  C   UNL     1       2.130   3.250  19.635  0.00  0.00    +0.000 C 
ATOM     11  C   UNL     1       0.837   3.746  20.228  0.00  0.00    +0.000 C 
ATOM     12  C   UNL     1       1.704   2.860  21.047  0.00  0.00    +0.000 C 
ENDBRANCH   7  10
ENDBRANCH   1   2
BRANCH   1  13
ATOM     13  C   UNL     1       2.145   7.050  20.219  0.00  0.00    +0.000 C 
BRANCH  13  16
ATOM     14  C   UNL     1       0.596  10.504  20.991  0.00  0.00    +0.000 A 
ATOM     15  C   UNL     1       1.044   9.167  21.116  0.00  0.00    +0.000 A 
ATOM     16  C   UNL     1       1.534   8.428  20.027  0.00  0.00    +0.000 A 
ATOM     17  C   UNL     1       1.518   9.039  18.774  0.00  0.00    +0.000 A 
ATOM     18  C   UNL     1       1.079  10.360  18.629  0.00  0.00    +0.000 A 
ATOM     19  C   UNL     1       0.626  11.127  19.727  0.00  0.00    +0.000 A 
BRANCH  14  21
ATOM     20  C   UNL     1      -0.735  10.290  23.012  0.00  0.00    +0.000 C 
ATOM     21  O   UNL     1       0.205  10.982  22.214  0.00  0.00    +0.000 OA
ENDBRANCH  14  21
BRANCH  19  22
ATOM     22  S   UNL     1       0.348  12.878  19.407  0.00  0.00    +0.000 S 
ATOM     23  C   UNL     1      -1.410  13.097  19.804  0.00  0.00    +0.000 C 
ENDBRANCH  19  22
ENDBRANCH  13  16
ENDBRANCH   1  13
TORSDOF 6
ENDMDL
MODEL 5
REMARK VINA RESULT:      -6.7      1.702      2.487
REMARK  Name = 
REMARK  8 active torsions:
REMARK  status: ('A' for Active; 'I' for Inactive)
REMARK    1  A    between atoms: C_1  and  O_2
REMARK    2  A    between atoms: O_2  and  C_3
REMARK    3  A    between atoms: C_5  and  C_6
REMARK    4  A    between atoms: C_6  and  S_7
REMARK    5  A    between atoms: S_7  and  C_8
REMARK    6  A    between atoms: N_13  and  C_14
REMARK    7  A    between atoms: C_19  and  S_20
REMARK    8  A    between atoms: S_20  and  C_21
REMARK                            x       y       z     vdW  Elec       q    Type
REMARK                         _______ _______ _______ _____ _____    ______ ____
ROOT
ATOM      1  S   UNL     1       4.732   4.993  19.302  0.00  0.00    +0.000 S 
ENDROOT
BRANCH   1   2
ATOM      2  C   UNL     1       5.303   4.770  17.668  0.00  0.00    +0.000 A 
ATOM      3  N   UNL     1       5.132   3.713  16.914  0.00  0.00    +0.000 NA
ATOM      4  N   UNL     1       5.909   3.879  15.783  0.00  0.00    +0.000 NA
ATOM      5  C   UNL     1       6.547   5.029  15.875  0.00  0.00    +0.000 A 
ATOM      6  N   UNL     1       7.408   5.534  14.979  0.00  0.00    +0.000 N 
ATOM      7  N   UNL     1       6.163   5.654  17.047  0.00  0.00    +0.000 N 
ATOM      8  H   UNL     1       7.462   5.066  14.075  0.00  0.00    +0.000 HD
ATOM      9  H   UNL     1       7.611   6.522  14.937  0.00  0.00    +0.000 HD
BRANCH   7  10
ATOM     10  C   UNL     1       6.638   6.879  17.668  0.00  0.00    +0.000 C 
ATOM     11  C   UNL     1       7.791   7.821  17.438  0.00  0.00    +0.000 C 
ATOM     12  C   UNL     1       7.929   6.766  18.475  0.00  0.00    +0.000 C 
ENDBRANCH   7  10
ENDBRANCH   1   2
BRANCH   1  13
ATOM     13  C   UNL     1       2.938   5.010  19.099  0.00  0.00    +0.000 C 
BRANCH  13  16
ATOM     14  C   UNL     1       1.449   8.402  20.198  0.00  0.00    +0.000 A 
ATOM     15  C   UNL     1       1.864   7.049  20.191  0.00  0.00    +0.000 A 
ATOM     16  C   UNL     1       2.363   6.416  19.041  0.00  0.00    +0.000 A 
ATOM     17  C   UNL     1       2.389   7.154  17.858  0.00  0.00    +0.000 A 
ATOM     18  C   UNL     1       1.982   8.493  17.844  0.00  0.00    +0.000 A 
ATOM     19  C   UNL     1       1.522   9.152  19.007  0.00  0.00    +0.000 A 
BRANCH  14  21
ATOM     20  C   UNL     1      -0.319   8.697  21.838  0.00  0.00    +0.000 C 
ATOM     21  O   UNL     1       1.041   8.759  21.456  0.00  0.00    +0.000 OA
ENDBRANCH  14  21
BRANCH  19  22
ATOM     22  S   UNL     1       1.290  10.933  18.867  0.00  0.00    +0.000 S 
ATOM     23  C   UNL     1      -0.505  11.133  19.050  0.00  0.00    +0.000 C 
ENDBRANCH  19  22
ENDBRANCH  13  16
ENDBRANCH   1  13
TORSDOF 6
ENDMDL
MODEL 6
REMARK VINA RESULT:      -6.6      1.034      1.256
REMARK  Name = 
REMARK  8 active torsions:
REMARK  status: ('A' for Active; 'I' for Inactive)
REMARK    1  A    between atoms: C_1  and  O_2
REMARK    2  A    between atoms: O_2  and  C_3
REMARK    3  A    between atoms: C_5  and  C_6
REMARK    4  A    between atoms: C_6  and  S_7
REMARK    5  A    between atoms: S_7  and  C_8
REMARK    6  A    between atoms: N_13  and  C_14
REMARK    7  A    between atoms: C_19  and  S_20
REMARK    8  A    between atoms: S_20  and  C_21
REMARK                            x       y       z     vdW  Elec       q    Type
REMARK                         _______ _______ _______ _____ _____    ______ ____
ROOT
ATOM      1  S   UNL     1       3.180   5.555  18.502  0.00  0.00    +0.000 S 
ENDROOT
BRANCH   1   2
ATOM      2  C   UNL     1       4.868   5.133  18.634  0.00  0.00    +0.000 A 
ATOM      3  N   UNL     1       5.646   5.323  19.670  0.00  0.00    +0.000 NA
ATOM      4  N   UNL     1       6.939   5.028  19.278  0.00  0.00    +0.000 NA
ATOM      5  C   UNL     1       6.923   4.675  18.008  0.00  0.00    +0.000 A 
ATOM      6  N   UNL     1       7.988   4.332  17.266  0.00  0.00    +0.000 N 
ATOM      7  N   UNL     1       5.616   4.690  17.561  0.00  0.00    +0.000 N 
ATOM      8  H   UNL     1       8.867   4.181  17.760  0.00  0.00    +0.000 HD
ATOM      9  H   UNL     1       7.893   3.778  16.428  0.00  0.00    +0.000 HD
BRANCH   7  10
ATOM     10  C   UNL     1       5.065   4.484  16.232  0.00  0.00    +0.000 C 
ATOM     11  C   UNL     1       5.635   4.177  14.871  0.00  0.00    +0.000 C 
ATOM     12  C   UNL     1       5.333   5.590  15.215  0.00  0.00    +0.000 C 
ENDBRANCH   7  10
ENDBRANCH   1   2
BRANCH   1  13
ATOM     13  C   UNL     1       3.235   7.182  17.721  0.00  0.00    +0.000 C 
BRANCH  13  16
ATOM     14  C   UNL     1       1.155   9.004  20.419  0.00  0.00    +0.000 A 
ATOM     15  C   UNL     1       1.891   8.017  19.720  0.00  0.00    +0.000 A 
ATOM     16  C   UNL     1       2.322   8.193  18.395  0.00  0.00    +0.000 A 
ATOM     17  C   UNL     1       1.952   9.370  17.747  0.00  0.00    +0.000 A 
ATOM     18  C   UNL     1       1.224  10.358  18.421  0.00  0.00    +0.000 A 
ATOM     19  C   UNL     1       0.825  10.210  19.768  0.00  0.00    +0.000 A 
BRANCH  14  21
ATOM     20  C   UNL     1      -0.407   8.609  22.238  0.00  0.00    +0.000 C 
ATOM     21  O   UNL     1       0.899   8.578  21.696  0.00  0.00    +0.000 OA
ENDBRANCH  14  21
BRANCH  19  22
ATOM     22  S   UNL     1       0.129  11.675  20.553  0.00  0.00    +0.000 S 
ATOM     23  C   UNL     1      -1.572  11.715  19.922  0.00  0.00    +0.000 C 
ENDBRANCH  19  22
ENDBRANCH  13  16
ENDBRANCH   1  13
TORSDOF 6
ENDMDL
MODEL 7
REMARK VINA RESULT:      -6.6      2.091      3.136
REMARK  Name = 
REMARK  8 active torsions:
REMARK  status: ('A' for Active; 'I' for Inactive)
REMARK    1  A    between atoms: C_1  and  O_2
REMARK    2  A    between atoms: O_2  and  C_3
REMARK    3  A    between atoms: C_5  and  C_6
REMARK    4  A    between atoms: C_6  and  S_7
REMARK    5  A    between atoms: S_7  and  C_8
REMARK    6  A    between atoms: N_13  and  C_14
REMARK    7  A    between atoms: C_19  and  S_20
REMARK    8  A    between atoms: S_20  and  C_21
REMARK                            x       y       z     vdW  Elec       q    Type
REMARK                         _______ _______ _______ _____ _____    ______ ____
ROOT
ATOM      1  S   UNL     1       2.240   5.641  18.301  0.00  0.00    +0.000 S 
ENDROOT
BRANCH   1   2
ATOM      2  C   UNL     1       3.598   4.726  18.905  0.00  0.00    +0.000 A 
ATOM      3  N   UNL     1       4.866   4.962  18.679  0.00  0.00    +0.000 NA
ATOM      4  N   UNL     1       5.583   3.891  19.177  0.00  0.00    +0.000 NA
ATOM      5  C   UNL     1       4.736   3.017  19.686  0.00  0.00    +0.000 A 
ATOM      6  N   UNL     1       5.051   1.841  20.248  0.00  0.00    +0.000 N 
ATOM      7  N   UNL     1       3.456   3.524  19.569  0.00  0.00    +0.000 N 
ATOM      8  H   UNL     1       6.038   1.669  20.440  0.00  0.00    +0.000 HD
ATOM      9  H   UNL     1       4.426   1.376  20.889  0.00  0.00    +0.000 HD
BRANCH   7  10
ATOM     10  C   UNL     1       2.167   2.926  19.875  0.00  0.00    +0.000 C 
ATOM     11  C   UNL     1       0.845   3.433  20.391  0.00  0.00    +0.000 C 
ATOM     12  C   UNL     1       1.804   2.833  21.354  0.00  0.00    +0.000 C 
ENDBRANCH   7  10
ENDBRANCH   1   2
BRANCH   1  13
ATOM     13  C   UNL     1       2.892   7.323  18.226  0.00  0.00    +0.000 C 
BRANCH  13  16
ATOM     14  C   UNL     1       0.838   9.555  20.620  0.00  0.00    +0.000 A 
ATOM     15  C   UNL     1       1.643   8.510  20.106  0.00  0.00    +0.000 A 
ATOM     16  C   UNL     1       1.907   8.363  18.734  0.00  0.00    +0.000 A 
ATOM     17  C   UNL     1       1.296   9.261  17.860  0.00  0.00    +0.000 A 
ATOM     18  C   UNL     1       0.495  10.300  18.349  0.00  0.00    +0.000 A 
ATOM     19  C   UNL     1       0.262  10.484  19.730  0.00  0.00    +0.000 A 
BRANCH  14  21
ATOM     20  C   UNL     1      -0.424   9.159  22.658  0.00  0.00    +0.000 C 
ATOM     21  O   UNL     1       0.781   9.471  21.986  0.00  0.00    +0.000 OA
ENDBRANCH  14  21
BRANCH  19  22
ATOM     22  S   UNL     1      -0.569  12.013  20.195  0.00  0.00    +0.000 S 
ATOM     23  C   UNL     1       0.731  12.947  21.051  0.00  0.00    +0.000 C 
ENDBRANCH  19  22
ENDBRANCH  13  16
ENDBRANCH   1  13
TORSDOF 6
ENDMDL
MODEL 8
REMARK VINA RESULT:      -6.4      2.418      4.095
REMARK  Name = 
REMARK  8 active torsions:
REMARK  status: ('A' for Active; 'I' for Inactive)
REMARK    1  A    between atoms: C_1  and  O_2
REMARK    2  A    between atoms: O_2  and  C_3
REMARK    3  A    between atoms: C_5  and  C_6
REMARK    4  A    between atoms: C_6  and  S_7
REMARK    5  A    between atoms: S_7  and  C_8
REMARK    6  A    between atoms: N_13  and  C_14
REMARK    7  A    between atoms: C_19  and  S_20
REMARK    8  A    between atoms: S_20  and  C_21
REMARK                            x       y       z     vdW  Elec       q    Type
REMARK                         _______ _______ _______ _____ _____    ______ ____
ROOT
ATOM      1  S   UNL     1       3.957   6.197  18.707  0.00  0.00    +0.000 S 
ENDROOT
BRANCH   1   2
ATOM      2  C   UNL     1       3.714   4.532  18.243  0.00  0.00    +0.000 A 
ATOM      3  N   UNL     1       3.990   3.992  17.083  0.00  0.00    +0.000 NA
ATOM      4  N   UNL     1       3.460   2.715  17.082  0.00  0.00    +0.000 NA
ATOM      5  C   UNL     1       2.861   2.507  18.238  0.00  0.00    +0.000 A 
ATOM      6  N   UNL     1       2.215   1.391  18.608  0.00  0.00    +0.000 N 
ATOM      7  N   UNL     1       3.028   3.627  19.029  0.00  0.00    +0.000 N 
ATOM      8  H   UNL     1       2.323   0.573  18.008  0.00  0.00    +0.000 HD
ATOM      9  H   UNL     1       2.062   1.165  19.580  0.00  0.00    +0.000 HD
BRANCH   7  10
ATOM     10  C   UNL     1       2.486   3.953  20.338  0.00  0.00    +0.000 C 
ATOM     11  C   UNL     1       1.623   3.244  21.348  0.00  0.00    +0.000 C 
ATOM     12  C   UNL     1       0.980   4.191  20.402  0.00  0.00    +0.000 C 
ENDBRANCH   7  10
ENDBRANCH   1   2
BRANCH   1  13
ATOM     13  C   UNL     1       2.471   7.008  18.078  0.00  0.00    +0.000 C 
BRANCH  13  16
ATOM     14  C   UNL     1       1.036  10.365  19.342  0.00  0.00    +0.000 A 
ATOM     15  C   UNL     1       1.650   9.378  18.534  0.00  0.00    +0.000 A 
ATOM     16  C   UNL     1       1.950   8.091  19.009  0.00  0.00    +0.000 A 
ATOM     17  C   UNL     1       1.673   7.816  20.347  0.00  0.00    +0.000 A 
ATOM     18  C   UNL     1       1.067   8.779  21.163  0.00  0.00    +0.000 A 
ATOM     19  C   UNL     1       0.720  10.061  20.682  0.00  0.00    +0.000 A 
BRANCH  14  21
ATOM     20  C   UNL     1       1.839  12.495  18.494  0.00  0.00    +0.000 C 
ATOM     21  O   UNL     1       0.835  11.507  18.613  0.00  0.00    +0.000 OA
ENDBRANCH  14  21
BRANCH  19  22
ATOM     22  S   UNL     1      -0.282  11.075  21.784  0.00  0.00    +0.000 S 
ATOM     23  C   UNL     1      -0.591   9.973  23.194  0.00  0.00    +0.000 C 
ENDBRANCH  19  22
ENDBRANCH  13  16
ENDBRANCH   1  13
TORSDOF 6
ENDMDL
MODEL 9
REMARK VINA RESULT:      -6.4      1.412      1.762
REMARK  Name = 
REMARK  8 active torsions:
REMARK  status: ('A' for Active; 'I' for Inactive)
REMARK    1  A    between atoms: C_1  and  O_2
REMARK    2  A    between atoms: O_2  and  C_3
REMARK    3  A    between atoms: C_5  and  C_6
REMARK    4  A    between atoms: C_6  and  S_7
REMARK    5  A    between atoms: S_7  and  C_8
REMARK    6  A    between atoms: N_13  and  C_14
REMARK    7  A    between atoms: C_19  and  S_20
REMARK    8  A    between atoms: S_20  and  C_21
REMARK                            x       y       z     vdW  Elec       q    Type
REMARK                         _______ _______ _______ _____ _____    ______ ____
ROOT
ATOM      1  S   UNL     1       3.639   3.408  18.794  0.00  0.00    +0.000 S 
ENDROOT
BRANCH   1   2
ATOM      2  C   UNL     1       5.182   4.218  18.881  0.00  0.00    +0.000 A 
ATOM      3  N   UNL     1       5.773   4.667  19.959  0.00  0.00    +0.000 NA
ATOM      4  N   UNL     1       6.868   5.408  19.556  0.00  0.00    +0.000 NA
ATOM      5  C   UNL     1       6.915   5.405  18.238  0.00  0.00    +0.000 A 
ATOM      6  N   UNL     1       7.826   6.029  17.475  0.00  0.00    +0.000 N 
ATOM      7  N   UNL     1       5.879   4.626  17.761  0.00  0.00    +0.000 N 
ATOM      8  H   UNL     1       8.642   6.413  17.950  0.00  0.00    +0.000 HD
ATOM      9  H   UNL     1       8.006   5.742  16.524  0.00  0.00    +0.000 HD
BRANCH   7  10
ATOM     10  C   UNL     1       5.425   4.379  16.402  0.00  0.00    +0.000 C 
ATOM     11  C   UNL     1       6.044   4.474  15.031  0.00  0.00    +0.000 C 
ATOM     12  C   UNL     1       5.227   5.613  15.525  0.00  0.00    +0.000 C 
ENDBRANCH   7  10
ENDBRANCH   1   2
BRANCH   1  13
ATOM     13  C   UNL     1       2.651   4.297  20.016  0.00  0.00    +0.000 C 
BRANCH  13  16
ATOM     14  C   UNL     1       1.616   8.017  20.146  0.00  0.00    +0.000 A 
ATOM     15  C   UNL     1       1.824   6.661  20.494  0.00  0.00    +0.000 A 
ATOM     16  C   UNL     1       2.296   5.709  19.577  0.00  0.00    +0.000 A 
ATOM     17  C   UNL     1       2.509   6.127  18.264  0.00  0.00    +0.000 A 
ATOM     18  C   UNL     1       2.307   7.463  17.900  0.00  0.00    +0.000 A 
ATOM     19  C   UNL     1       1.876   8.439  18.826  0.00  0.00    +0.000 A 
BRANCH  14  21
ATOM     20  C   UNL     1      -0.144   8.612  21.712  0.00  0.00    +0.000 C 
ATOM     21  O   UNL     1       1.185   8.720  21.240  0.00  0.00    +0.000 OA
ENDBRANCH  14  21
BRANCH  19  22
ATOM     22  S   UNL     1       1.922  10.147  18.255  0.00  0.00    +0.000 S 
ATOM     23  C   UNL     1       0.247  10.748  18.613  0.00  0.00    +0.000 C 
ENDBRANCH  19  22
ENDBRANCH  13  16
ENDBRANCH   1  13
TORSDOF 6
ENDMDL
