MODEL 1
REMARK VINA RESULT:      -7.6      0.000      0.000
REMARK  Name = 
REMARK  4 active torsions:
REMARK  status: ('A' for Active; 'I' for Inactive)
REMARK    1  A    between atoms: O_1  and  C_2
REMARK    2  A    between atoms: C_5  and  C_6
REMARK    3  A    between atoms: C_6  and  C_7
REMARK    4  A    between atoms: C_12  and  O_13
REMARK                            x       y       z     vdW  Elec       q    Type
REMARK                         _______ _______ _______ _____ _____    ______ ____
ROOT
ATOM      1  C   UNL     1       2.233   2.630  17.980  0.00  0.00    +0.000 C 
ATOM      2  C   UNL     1       1.713   2.362  19.410  0.00  0.00    +0.000 C 
ATOM      3  O   UNL     1       1.270   3.455  20.231  0.00  0.00    +0.000 OA
ATOM      4  C   UNL     1       1.615   4.718  19.859  0.00  0.00    +0.000 A 
ATOM      5  C   UNL     1       1.508   5.725  20.825  0.00  0.00    +0.000 A 
ATOM      6  C   UNL     1       1.901   7.022  20.506  0.00  0.00    +0.000 A 
ATOM      7  C   UNL     1       2.392   7.325  19.245  0.00  0.00    +0.000 A 
ATOM      8  C   UNL     1       2.430   6.333  18.266  0.00  0.00    +0.000 A 
ATOM      9  C   UNL     1       2.015   5.031  18.569  0.00  0.00    +0.000 A 
ATOM     10  C   UNL     1       1.844   4.016  17.489  0.00  0.00    +0.000 C 
ENDROOT
BRANCH   6  11
ATOM     11  O   UNL     1       1.810   8.046  21.405  0.00  0.00    +0.000 OA
ATOM     12  H   UNL     1       2.386   7.846  22.160  0.00  0.00    +0.000 HD
ENDBRANCH   6  11
BRANCH   1  13
ATOM     13  C   UNL     1       3.755   2.365  17.795  0.00  0.00    +0.000 C 
BRANCH  13  17
ATOM     14  C   UNL     1       6.051   5.979  17.068  0.00  0.00    +0.000 A 
ATOM     15  C   UNL     1       6.023   5.417  18.339  0.00  0.00    +0.000 A 
ATOM     16  C   UNL     1       5.294   4.240  18.563  0.00  0.00    +0.000 A 
ATOM     17  C   UNL     1       4.585   3.619  17.520  0.00  0.00    +0.000 A 
ATOM     18  C   UNL     1       4.658   4.196  16.240  0.00  0.00    +0.000 A 
ATOM     19  C   UNL     1       5.371   5.378  16.020  0.00  0.00    +0.000 A 
BRANCH  14  20
ATOM     20  O   UNL     1       6.741   7.126  16.804  0.00  0.00    +0.000 OA
ATOM     21  H   UNL     1       7.643   6.892  16.532  0.00  0.00    +0.000 HD
ENDBRANCH  14  20
ENDBRANCH  13  17
ENDBRANCH   1  13
TORSDOF 4
ENDMDL
MODEL 2
REMARK VINA RESULT:      -7.6      0.091      1.109
REMARK  Name = 
REMARK  4 active torsions:
REMARK  status: ('A' for Active; 'I' for Inactive)
REMARK    1  A    between atoms: O_1  and  C_2
REMARK    2  A    between atoms: C_5  and  C_6
REMARK    3  A    between atoms: C_6  and  C_7
REMARK    4  A    between atoms: C_12  and  O_13
REMARK                            x       y       z     vdW  Elec       q    Type
REMARK                         _______ _______ _______ _____ _____    ______ ____
ROOT
ATOM      1  C   UNL     1       2.243   2.606  18.016  0.00  0.00    +0.000 C 
ATOM      2  C   UNL     1       1.745   2.361  19.458  0.00  0.00    +0.000 C 
ATOM      3  O   UNL     1       1.308   3.465  20.265  0.00  0.00    +0.000 OA
ATOM      4  C   UNL     1       1.640   4.723  19.867  0.00  0.00    +0.000 A 
ATOM      5  C   UNL     1       1.541   5.747  20.816  0.00  0.00    +0.000 A 
ATOM      6  C   UNL     1       1.922   7.040  20.469  0.00  0.00    +0.000 A 
ATOM      7  C   UNL     1       2.393   7.323  19.195  0.00  0.00    +0.000 A 
ATOM      8  C   UNL     1       2.423   6.315  18.234  0.00  0.00    +0.000 A 
ATOM      9  C   UNL     1       2.020   5.016  18.565  0.00  0.00    +0.000 A 
ATOM     10  C   UNL     1       1.839   3.981  17.506  0.00  0.00    +0.000 C 
ENDROOT
BRANCH   6  11
ATOM     11  O   UNL     1       1.838   8.079  21.350  0.00  0.00    +0.000 OA
ATOM     12  H   UNL     1       1.938   8.910  20.859  0.00  0.00    +0.000 HD
ENDBRANCH   6  11
BRANCH   1  13
ATOM     13  C   UNL     1       3.764   2.346  17.813  0.00  0.00    +0.000 C 
BRANCH  13  17
ATOM     14  C   UNL     1       6.169   5.872  17.008  0.00  0.00    +0.000 A 
ATOM     15  C   UNL     1       5.445   5.276  15.983  0.00  0.00    +0.000 A 
ATOM     16  C   UNL     1       4.656   4.148  16.253  0.00  0.00    +0.000 A 
ATOM     17  C   UNL     1       4.589   3.606  17.547  0.00  0.00    +0.000 A 
ATOM     18  C   UNL     1       5.309   4.250  18.568  0.00  0.00    +0.000 A 
ATOM     19  C   UNL     1       6.109   5.365  18.296  0.00  0.00    +0.000 A 
BRANCH  14  20
ATOM     20  O   UNL     1       6.954   6.966  16.791  0.00  0.00    +0.000 OA
ATOM     21  H   UNL     1       6.804   7.284  15.886  0.00  0.00    +0.000 HD
ENDBRANCH  14  20
ENDBRANCH  13  17
ENDBRANCH   1  13
TORSDOF 4
ENDMDL
MODEL 3
REMARK VINA RESULT:      -7.5      2.104      3.097
REMARK  Name = 
REMARK  4 active torsions:
REMARK  status: ('A' for Active; 'I' for Inactive)
REMARK    1  A    between atoms: O_1  and  C_2
REMARK    2  A    between atoms: C_5  and  C_6
REMARK    3  A    between atoms: C_6  and  C_7
REMARK    4  A    between atoms: C_12  and  O_13
REMARK                            x       y       z     vdW  Elec       q    Type
REMARK                         _______ _______ _______ _____ _____    ______ ____
ROOT
ATOM      1  C   UNL     1       3.664   4.385  16.929  0.00  0.00    +0.000 C 
ATOM      2  C   UNL     1       2.681   3.221  16.670  0.00  0.00    +0.000 C 
ATOM      3  O   UNL     1       1.741   2.835  17.684  0.00  0.00    +0.000 OA
ATOM      4  C   UNL     1       1.947   3.279  18.954  0.00  0.00    +0.000 A 
ATOM      5  C   UNL     1       1.265   2.622  19.985  0.00  0.00    +0.000 A 
ATOM      6  C   UNL     1       1.487   3.007  21.305  0.00  0.00    +0.000 A 
ATOM      7  C   UNL     1       2.370   4.033  21.605  0.00  0.00    +0.000 A 
ATOM      8  C   UNL     1       2.992   4.730  20.571  0.00  0.00    +0.000 A 
ATOM      9  C   UNL     1       2.758   4.368  19.239  0.00  0.00    +0.000 A 
ATOM     10  C   UNL     1       3.237   5.229  18.120  0.00  0.00    +0.000 C 
ENDROOT
BRANCH   6  11
ATOM     11  O   UNL     1       0.844   2.408  22.349  0.00  0.00    +0.000 OA
ATOM     12  H   UNL     1      -0.047   2.788  22.422  0.00  0.00    +0.000 HD
ENDBRANCH   6  11
BRANCH   1  13
ATOM     13  C   UNL     1       5.154   3.948  17.044  0.00  0.00    +0.000 C 
BRANCH  13  17
ATOM     14  C   UNL     1       7.881   7.019  18.456  0.00  0.00    +0.000 A 
ATOM     15  C   UNL     1       7.224   7.178  17.242  0.00  0.00    +0.000 A 
ATOM     16  C   UNL     1       6.331   6.191  16.800  0.00  0.00    +0.000 A 
ATOM     17  C   UNL     1       6.092   5.037  17.565  0.00  0.00    +0.000 A 
ATOM     18  C   UNL     1       6.749   4.921  18.803  0.00  0.00    +0.000 A 
ATOM     19  C   UNL     1       7.652   5.897  19.237  0.00  0.00    +0.000 A 
BRANCH  14  20
ATOM     20  O   UNL     1       8.762   7.949  18.923  0.00  0.00    +0.000 OA
ATOM     21  H   UNL     1       9.563   7.494  19.229  0.00  0.00    +0.000 HD
ENDBRANCH  14  20
ENDBRANCH  13  17
ENDBRANCH   1  13
TORSDOF 4
ENDMDL
MODEL 4
REMARK VINA RESULT:      -7.4      2.206      6.344
REMARK  Name = 
REMARK  4 active torsions:
REMARK  status: ('A' for Active; 'I' for Inactive)
REMARK    1  A    between atoms: O_1  and  C_2
REMARK    2  A    between atoms: C_5  and  C_6
REMARK    3  A    between atoms: C_6  and  C_7
REMARK    4  A    between atoms: C_12  and  O_13
REMARK                            x       y       z     vdW  Elec       q    Type
REMARK                         _______ _______ _______ _____ _____    ______ ____
ROOT
ATOM      1  C   UNL     1       5.611   5.804  17.960  0.00  0.00    +0.000 C 
ATOM      2  C   UNL     1       7.075   6.167  17.623  0.00  0.00    +0.000 C 
ATOM      3  O   UNL     1       7.543   6.084  16.268  0.00  0.00    +0.000 OA
ATOM      4  C   UNL     1       6.794   5.387  15.371  0.00  0.00    +0.000 A 
ATOM      5  C   UNL     1       7.413   5.001  14.177  0.00  0.00    +0.000 A 
ATOM      6  C   UNL     1       6.701   4.240  13.253  0.00  0.00    +0.000 A 
ATOM      7  C   UNL     1       5.389   3.867  13.503  0.00  0.00    +0.000 A 
ATOM      8  C   UNL     1       4.755   4.314  14.661  0.00  0.00    +0.000 A 
ATOM      9  C   UNL     1       5.454   5.100  15.585  0.00  0.00    +0.000 A 
ATOM     10  C   UNL     1       4.740   5.764  16.713  0.00  0.00    +0.000 C 
ENDROOT
BRANCH   6  11
ATOM     11  O   UNL     1       7.251   3.842  12.069  0.00  0.00    +0.000 OA
ATOM     12  H   UNL     1       7.083   2.893  11.953  0.00  0.00    +0.000 HD
ENDBRANCH   6  11
BRANCH   1  13
ATOM     13  C   UNL     1       5.454   4.509  18.808  0.00  0.00    +0.000 C 
BRANCH  13  17
ATOM     14  C   UNL     1       1.477   2.778  18.586  0.00  0.00    +0.000 A 
ATOM     15  C   UNL     1       2.530   2.190  17.896  0.00  0.00    +0.000 A 
ATOM     16  C   UNL     1       3.816   2.744  17.986  0.00  0.00    +0.000 A 
ATOM     17  C   UNL     1       4.057   3.891  18.762  0.00  0.00    +0.000 A 
ATOM     18  C   UNL     1       2.976   4.443  19.472  0.00  0.00    +0.000 A 
ATOM     19  C   UNL     1       1.691   3.902  19.369  0.00  0.00    +0.000 A 
BRANCH  14  20
ATOM     20  O   UNL     1       0.209   2.279  18.523  0.00  0.00    +0.000 OA
ATOM     21  H   UNL     1       0.000   2.073  17.598  0.00  0.00    +0.000 HD
ENDBRANCH  14  20
ENDBRANCH  13  17
ENDBRANCH   1  13
TORSDOF 4
ENDMDL
MODEL 5
REMARK VINA RESULT:      -7.4      2.111      2.953
REMARK  Name = 
REMARK  4 active torsions:
REMARK  status: ('A' for Active; 'I' for Inactive)
REMARK    1  A    between atoms: O_1  and  C_2
REMARK    2  A    between atoms: C_5  and  C_6
REMARK    3  A    between atoms: C_6  and  C_7
REMARK    4  A    between atoms: C_12  and  O_13
REMARK                            x       y       z     vdW  Elec       q    Type
REMARK                         _______ _______ _______ _____ _____    ______ ____
ROOT
ATOM      1  C   UNL     1       3.733   4.441  16.941  0.00  0.00    +0.000 C 
ATOM      2  C   UNL     1       2.725   3.306  16.651  0.00  0.00    +0.000 C 
ATOM      3  O   UNL     1       1.769   2.920  17.650  0.00  0.00    +0.000 OA
ATOM      4  C   UNL     1       1.976   3.332  18.931  0.00  0.00    +0.000 A 
ATOM      5  C   UNL     1       1.273   2.670  19.943  0.00  0.00    +0.000 A 
ATOM      6  C   UNL     1       1.494   3.020  21.272  0.00  0.00    +0.000 A 
ATOM      7  C   UNL     1       2.398   4.020  21.600  0.00  0.00    +0.000 A 
ATOM      8  C   UNL     1       3.043   4.724  20.585  0.00  0.00    +0.000 A 
ATOM      9  C   UNL     1       2.810   4.396  19.244  0.00  0.00    +0.000 A 
ATOM     10  C   UNL     1       3.317   5.269  18.147  0.00  0.00    +0.000 C 
ENDROOT
BRANCH   6  11
ATOM     11  O   UNL     1       0.830   2.414  22.299  0.00  0.00    +0.000 OA
ATOM     12  H   UNL     1       1.482   1.999  22.886  0.00  0.00    +0.000 HD
ENDBRANCH   6  11
BRANCH   1  13
ATOM     13  C   UNL     1       5.211   3.968  17.056  0.00  0.00    +0.000 C 
BRANCH  13  17
ATOM     14  C   UNL     1       7.918   7.059  18.463  0.00  0.00    +0.000 A 
ATOM     15  C   UNL     1       7.760   5.888  19.194  0.00  0.00    +0.000 A 
ATOM     16  C   UNL     1       6.898   4.885  18.725  0.00  0.00    +0.000 A 
ATOM     17  C   UNL     1       6.184   5.049  17.526  0.00  0.00    +0.000 A 
ATOM     18  C   UNL     1       6.390   6.232  16.794  0.00  0.00    +0.000 A 
ATOM     19  C   UNL     1       7.237   7.238  17.269  0.00  0.00    +0.000 A 
BRANCH  14  20
ATOM     20  O   UNL     1       8.741   8.062  18.882  0.00  0.00    +0.000 OA
ATOM     21  H   UNL     1       8.197   8.824  19.141  0.00  0.00    +0.000 HD
ENDBRANCH  14  20
ENDBRANCH  13  17
ENDBRANCH   1  13
TORSDOF 4
ENDMDL
MODEL 6
REMARK VINA RESULT:      -7.4      2.281      6.298
REMARK  Name = 
REMARK  4 active torsions:
REMARK  status: ('A' for Active; 'I' for Inactive)
REMARK    1  A    between atoms: O_1  and  C_2
REMARK    2  A    between atoms: C_5  and  C_6
REMARK    3  A    between atoms: C_6  and  C_7
REMARK    4  A    between atoms: C_12  and  O_13
REMARK                            x       y       z     vdW  Elec       q    Type
REMARK                         _______ _______ _______ _____ _____    ______ ____
ROOT
ATOM      1  C   UNL     1       5.604   5.812  17.968  0.00  0.00    +0.000 C 
ATOM      2  C   UNL     1       7.072   6.170  17.644  0.00  0.00    +0.000 C 
ATOM      3  O   UNL     1       7.550   6.090  16.293  0.00  0.00    +0.000 OA
ATOM      4  C   UNL     1       6.805   5.400  15.387  0.00  0.00    +0.000 A 
ATOM      5  C   UNL     1       7.431   5.016  14.196  0.00  0.00    +0.000 A 
ATOM      6  C   UNL     1       6.723   4.261  13.264  0.00  0.00    +0.000 A 
ATOM      7  C   UNL     1       5.408   3.893  13.502  0.00  0.00    +0.000 A 
ATOM      8  C   UNL     1       4.767   4.338  14.657  0.00  0.00    +0.000 A 
ATOM      9  C   UNL     1       5.462   5.117  15.590  0.00  0.00    +0.000 A 
ATOM     10  C   UNL     1       4.742   5.780  16.715  0.00  0.00    +0.000 C 
ENDROOT
BRANCH   6  11
ATOM     11  O   UNL     1       7.280   3.867  12.082  0.00  0.00    +0.000 OA
ATOM     12  H   UNL     1       6.827   4.328  11.358  0.00  0.00    +0.000 HD
ENDBRANCH   6  11
BRANCH   1  13
ATOM     13  C   UNL     1       5.435   4.514  18.810  0.00  0.00    +0.000 C 
BRANCH  13  17
ATOM     14  C   UNL     1       1.542   2.609  18.536  0.00  0.00    +0.000 A 
ATOM     15  C   UNL     1       1.696   3.770  19.284  0.00  0.00    +0.000 A 
ATOM     16  C   UNL     1       2.953   4.390  19.354  0.00  0.00    +0.000 A 
ATOM     17  C   UNL     1       4.063   3.852  18.682  0.00  0.00    +0.000 A 
ATOM     18  C   UNL     1       3.867   2.694  17.909  0.00  0.00    +0.000 A 
ATOM     19  C   UNL     1       2.618   2.066  17.852  0.00  0.00    +0.000 A 
BRANCH  14  20
ATOM     20  O   UNL     1       0.342   1.968  18.444  0.00  0.00    +0.000 OA
ATOM     21  H   UNL     1      -0.134   2.075  19.284  0.00  0.00    +0.000 HD
ENDBRANCH  14  20
ENDBRANCH  13  17
ENDBRANCH   1  13
TORSDOF 4
ENDMDL
MODEL 7
REMARK VINA RESULT:      -7.2      2.131      5.682
REMARK  Name = 
REMARK  4 active torsions:
REMARK  status: ('A' for Active; 'I' for Inactive)
REMARK    1  A    between atoms: O_1  and  C_2
REMARK    2  A    between atoms: C_5  and  C_6
REMARK    3  A    between atoms: C_6  and  C_7
REMARK    4  A    between atoms: C_12  and  O_13
REMARK                            x       y       z     vdW  Elec       q    Type
REMARK                         _______ _______ _______ _____ _____    ______ ____
ROOT
ATOM      1  C   UNL     1       4.688   6.237  19.049  0.00  0.00    +0.000 C 
ATOM      2  C   UNL     1       5.148   4.788  19.333  0.00  0.00    +0.000 C 
ATOM      3  O   UNL     1       5.829   4.038  18.315  0.00  0.00    +0.000 OA
ATOM      4  C   UNL     1       5.770   4.493  17.034  0.00  0.00    +0.000 A 
ATOM      5  C   UNL     1       6.107   3.594  16.015  0.00  0.00    +0.000 A 
ATOM      6  C   UNL     1       6.009   3.999  14.686  0.00  0.00    +0.000 A 
ATOM      7  C   UNL     1       5.587   5.280  14.365  0.00  0.00    +0.000 A 
ATOM      8  C   UNL     1       5.321   6.192  15.384  0.00  0.00    +0.000 A 
ATOM      9  C   UNL     1       5.439   5.803  16.724  0.00  0.00    +0.000 A 
ATOM     10  C   UNL     1       5.371   6.814  17.818  0.00  0.00    +0.000 C 
ENDROOT
BRANCH   6  11
ATOM     11  O   UNL     1       6.333   3.168  13.653  0.00  0.00    +0.000 OA
ATOM     12  H   UNL     1       6.962   2.503  13.977  0.00  0.00    +0.000 HD
ENDBRANCH   6  11
BRANCH   1  13
ATOM     13  C   UNL     1       3.144   6.414  18.981  0.00  0.00    +0.000 C 
BRANCH  13  17
ATOM     14  C   UNL     1       0.985   2.648  18.843  0.00  0.00    +0.000 A 
ATOM     15  C   UNL     1       1.037   3.376  20.025  0.00  0.00    +0.000 A 
ATOM     16  C   UNL     1       1.721   4.601  20.058  0.00  0.00    +0.000 A 
ATOM     17  C   UNL     1       2.361   5.103  18.912  0.00  0.00    +0.000 A 
ATOM     18  C   UNL     1       2.264   4.357  17.725  0.00  0.00    +0.000 A 
ATOM     19  C   UNL     1       1.596   3.128  17.695  0.00  0.00    +0.000 A 
BRANCH  14  20
ATOM     20  O   UNL     1       0.338   1.450  18.765  0.00  0.00    +0.000 OA
ATOM     21  H   UNL     1      -0.613   1.600  18.891  0.00  0.00    +0.000 HD
ENDBRANCH  14  20
ENDBRANCH  13  17
ENDBRANCH   1  13
TORSDOF 4
ENDMDL
MODEL 8
REMARK VINA RESULT:      -7.1      2.135      5.787
REMARK  Name = 
REMARK  4 active torsions:
REMARK  status: ('A' for Active; 'I' for Inactive)
REMARK    1  A    between atoms: O_1  and  C_2
REMARK    2  A    between atoms: C_5  and  C_6
REMARK    3  A    between atoms: C_6  and  C_7
REMARK    4  A    between atoms: C_12  and  O_13
REMARK                            x       y       z     vdW  Elec       q    Type
REMARK                         _______ _______ _______ _____ _____    ______ ____
ROOT
ATOM      1  C   UNL     1       4.754   6.283  19.014  0.00  0.00    +0.000 C 
ATOM      2  C   UNL     1       5.253   4.852  19.314  0.00  0.00    +0.000 C 
ATOM      3  O   UNL     1       5.931   4.099  18.296  0.00  0.00    +0.000 OA
ATOM      4  C   UNL     1       5.836   4.529  17.008  0.00  0.00    +0.000 A 
ATOM      5  C   UNL     1       6.173   3.620  15.999  0.00  0.00    +0.000 A 
ATOM      6  C   UNL     1       6.039   3.998  14.666  0.00  0.00    +0.000 A 
ATOM      7  C   UNL     1       5.581   5.263  14.330  0.00  0.00    +0.000 A 
ATOM      8  C   UNL     1       5.313   6.187  15.339  0.00  0.00    +0.000 A 
ATOM      9  C   UNL     1       5.468   5.826  16.682  0.00  0.00    +0.000 A 
ATOM     10  C   UNL     1       5.398   6.854  17.760  0.00  0.00    +0.000 C 
ENDROOT
BRANCH   6  11
ATOM     11  O   UNL     1       6.362   3.156  13.641  0.00  0.00    +0.000 OA
ATOM     12  H   UNL     1       6.871   3.654  12.981  0.00  0.00    +0.000 HD
ENDBRANCH   6  11
BRANCH   1  13
ATOM     13  C   UNL     1       3.204   6.423  18.975  0.00  0.00    +0.000 C 
BRANCH  13  17
ATOM     14  C   UNL     1       1.001   2.685  18.780  0.00  0.00    +0.000 A 
ATOM     15  C   UNL     1       1.658   3.165  17.652  0.00  0.00    +0.000 A 
ATOM     16  C   UNL     1       2.383   4.364  17.727  0.00  0.00    +0.000 A 
ATOM     17  C   UNL     1       2.452   5.093  18.926  0.00  0.00    +0.000 A 
ATOM     18  C   UNL     1       1.802   4.566  20.055  0.00  0.00    +0.000 A 
ATOM     19  C   UNL     1       1.066   3.379  19.978  0.00  0.00    +0.000 A 
BRANCH  14  20
ATOM     20  O   UNL     1       0.280   1.528  18.753  0.00  0.00    +0.000 OA
ATOM     21  H   UNL     1       0.286   1.177  17.848  0.00  0.00    +0.000 HD
ENDBRANCH  14  20
ENDBRANCH  13  17
ENDBRANCH   1  13
TORSDOF 4
ENDMDL
MODEL 9
REMARK VINA RESULT:      -7.0      1.774      2.478
REMARK  Name = 
REMARK  4 active torsions:
REMARK  status: ('A' for Active; 'I' for Inactive)
REMARK    1  A    between atoms: O_1  and  C_2
REMARK    2  A    between atoms: C_5  and  C_6
REMARK    3  A    between atoms: C_6  and  C_7
REMARK    4  A    between atoms: C_12  and  O_13
REMARK                            x       y       z     vdW  Elec       q    Type
REMARK                         _______ _______ _______ _____ _____    ______ ____
ROOT
ATOM      1  C   UNL     1       3.299   4.795  19.324  0.00  0.00    +0.000 C 
ATOM      2  C   UNL     1       2.510   5.061  20.626  0.00  0.00    +0.000 C 
ATOM      3  O   UNL     1       1.662   6.216  20.729  0.00  0.00    +0.000 OA
ATOM      4  C   UNL     1       1.818   7.211  19.814  0.00  0.00    +0.000 A 
ATOM      5  C   UNL     1       1.269   8.461  20.122  0.00  0.00    +0.000 A 
ATOM      6  C   UNL     1       1.450   9.524  19.241  0.00  0.00    +0.000 A 
ATOM      7  C   UNL     1       2.163   9.354  18.063  0.00  0.00    +0.000 A 
ATOM      8  C   UNL     1       2.647   8.091  17.728  0.00  0.00    +0.000 A 
ATOM      9  C   UNL     1       2.449   7.010  18.596  0.00  0.00    +0.000 A 
ATOM     10  C   UNL     1       2.765   5.618  18.162  0.00  0.00    +0.000 C 
ENDROOT
BRANCH   6  11
ATOM     11  O   UNL     1       0.930  10.762  19.485  0.00  0.00    +0.000 OA
ATOM     12  H   UNL     1       1.326  11.107  20.302  0.00  0.00    +0.000 HD
ENDBRANCH   6  11
BRANCH   1  13
ATOM     13  C   UNL     1       4.841   4.948  19.470  0.00  0.00    +0.000 C 
BRANCH  13  17
ATOM     14  C   UNL     1       6.931   5.237  15.674  0.00  0.00    +0.000 A 
ATOM     15  C   UNL     1       7.100   6.224  16.637  0.00  0.00    +0.000 A 
ATOM     16  C   UNL     1       6.436   6.116  17.868  0.00  0.00    +0.000 A 
ATOM     17  C   UNL     1       5.596   5.024  18.143  0.00  0.00    +0.000 A 
ATOM     18  C   UNL     1       5.471   4.026  17.160  0.00  0.00    +0.000 A 
ATOM     19  C   UNL     1       6.119   4.142  15.926  0.00  0.00    +0.000 A 
BRANCH  14  20
ATOM     20  O   UNL     1       7.551   5.303  14.461  0.00  0.00    +0.000 OA
ATOM     21  H   UNL     1       8.368   4.780  14.499  0.00  0.00    +0.000 HD
ENDBRANCH  14  20
ENDBRANCH  13  17
ENDBRANCH   1  13
TORSDOF 4
ENDMDL
