MODEL 1
REMARK VINA RESULT:      -7.5      0.000      0.000
REMARK  Name = 
REMARK  1 active torsions:
REMARK  status: ('A' for Active; 'I' for Inactive)
REMARK    1  A    between atoms: C_11  and  C_12
REMARK                            x       y       z     vdW  Elec       q    Type
REMARK                         _______ _______ _______ _____ _____    ______ ____
ROOT
ATOM      1  O   UNL     1       6.105   5.263  17.775  0.00  0.00    +0.000 OA
ATOM      2  C   UNL     1       6.244   5.009  16.595  0.00  0.00    +0.000 C 
ATOM      3  N   UNL     1       7.218   5.529  15.760  0.00  0.00    +0.000 N 
ATOM      4  C   UNL     1       7.102   5.034  14.467  0.00  0.00    +0.000 A 
ATOM      5  C   UNL     1       7.904   5.358  13.392  0.00  0.00    +0.000 A 
ATOM      6  C   UNL     1       7.607   4.757  12.170  0.00  0.00    +0.000 A 
ATOM      7  C   UNL     1       6.527   3.860  12.055  0.00  0.00    +0.000 A 
ATOM      8  C   UNL     1       5.727   3.545  13.162  0.00  0.00    +0.000 A 
ATOM      9  C   UNL     1       6.029   4.141  14.374  0.00  0.00    +0.000 A 
ATOM     10  C   UNL     1       5.434   4.081  15.716  0.00  0.00    +0.000 C 
ATOM     11  C   UNL     1       4.367   3.360  16.094  0.00  0.00    +0.000 C 
ATOM     12  H   UNL     1       7.908   6.189  16.083  0.00  0.00    +0.000 HD
ENDROOT
BRANCH  11  13
ATOM     13  C   UNL     1       3.797   3.411  17.444  0.00  0.00    +0.000 A 
ATOM     14  C   UNL     1       4.219   2.485  18.406  0.00  0.00    +0.000 A 
ATOM     15  C   UNL     1       3.612   2.451  19.665  0.00  0.00    +0.000 A 
ATOM     16  C   UNL     1       2.588   3.347  19.962  0.00  0.00    +0.000 A 
ATOM     17 BR   UNL     1       1.735   3.269  21.646  0.00  0.00    +0.000 Br
ATOM     18  C   UNL     1       2.177   4.289  19.019  0.00  0.00    +0.000 A 
ATOM     19  C   UNL     1       2.783   4.321  17.760  0.00  0.00    +0.000 A 
ENDBRANCH  11  13
TORSDOF 1
ENDMDL
MODEL 2
REMARK VINA RESULT:      -7.1      0.164      1.152
REMARK  Name = 
REMARK  1 active torsions:
REMARK  status: ('A' for Active; 'I' for Inactive)
REMARK    1  A    between atoms: C_11  and  C_12
REMARK                            x       y       z     vdW  Elec       q    Type
REMARK                         _______ _______ _______ _____ _____    ______ ____
ROOT
ATOM      1  O   UNL     1       5.987   5.226  17.779  0.00  0.00    +0.000 OA
ATOM      2  C   UNL     1       6.173   5.000  16.600  0.00  0.00    +0.000 C 
ATOM      3  N   UNL     1       7.163   5.560  15.810  0.00  0.00    +0.000 N 
ATOM      4  C   UNL     1       7.104   5.089  14.504  0.00  0.00    +0.000 A 
ATOM      5  C   UNL     1       7.936   5.454  13.465  0.00  0.00    +0.000 A 
ATOM      6  C   UNL     1       7.696   4.871  12.221  0.00  0.00    +0.000 A 
ATOM      7  C   UNL     1       6.643   3.952  12.051  0.00  0.00    +0.000 A 
ATOM      8  C   UNL     1       5.812   3.596  13.121  0.00  0.00    +0.000 A 
ATOM      9  C   UNL     1       6.057   4.173  14.355  0.00  0.00    +0.000 A 
ATOM     10  C   UNL     1       5.417   4.072  15.673  0.00  0.00    +0.000 C 
ATOM     11  C   UNL     1       4.355   3.318  15.999  0.00  0.00    +0.000 C 
ATOM     12  H   UNL     1       7.826   6.228  16.171  0.00  0.00    +0.000 HD
ENDROOT
BRANCH  11  13
ATOM     13  C   UNL     1       3.737   3.329  17.329  0.00  0.00    +0.000 A 
ATOM     14  C   UNL     1       2.789   4.311  17.641  0.00  0.00    +0.000 A 
ATOM     15  C   UNL     1       2.267   4.401  18.934  0.00  0.00    +0.000 A 
ATOM     16  C   UNL     1       2.690   3.505  19.913  0.00  0.00    +0.000 A 
ATOM     17 BR   UNL     1       2.021   3.657  21.674  0.00  0.00    +0.000 Br
ATOM     18  C   UNL     1       3.615   2.508  19.607  0.00  0.00    +0.000 A 
ATOM     19  C   UNL     1       4.138   2.419  18.313  0.00  0.00    +0.000 A 
ENDBRANCH  11  13
TORSDOF 1
ENDMDL
MODEL 3
REMARK VINA RESULT:      -6.8      5.392      6.896
REMARK  Name = 
REMARK  1 active torsions:
REMARK  status: ('A' for Active; 'I' for Inactive)
REMARK    1  A    between atoms: C_11  and  C_12
REMARK                            x       y       z     vdW  Elec       q    Type
REMARK                         _______ _______ _______ _____ _____    ______ ____
ROOT
ATOM      1  O   UNL     1       1.336   7.946  20.514  0.00  0.00    +0.000 OA
ATOM      2  C   UNL     1       2.142   7.347  19.830  0.00  0.00    +0.000 C 
ATOM      3  N   UNL     1       2.849   6.218  20.206  0.00  0.00    +0.000 N 
ATOM      4  C   UNL     1       3.689   5.778  19.192  0.00  0.00    +0.000 A 
ATOM      5  C   UNL     1       4.537   4.690  19.245  0.00  0.00    +0.000 A 
ATOM      6  C   UNL     1       5.311   4.427  18.116  0.00  0.00    +0.000 A 
ATOM      7  C   UNL     1       5.219   5.250  16.976  0.00  0.00    +0.000 A 
ATOM      8  C   UNL     1       4.350   6.349  16.944  0.00  0.00    +0.000 A 
ATOM      9  C   UNL     1       3.581   6.603  18.067  0.00  0.00    +0.000 A 
ATOM     10  C   UNL     1       2.596   7.636  18.416  0.00  0.00    +0.000 C 
ATOM     11  C   UNL     1       2.186   8.653  17.643  0.00  0.00    +0.000 C 
ATOM     12  H   UNL     1       2.745   5.796  21.116  0.00  0.00    +0.000 HD
ENDROOT
BRANCH  11  13
ATOM     13  C   UNL     1       1.245   9.682  18.097  0.00  0.00    +0.000 A 
ATOM     14  C   UNL     1       1.732  10.824  18.746  0.00  0.00    +0.000 A 
ATOM     15  C   UNL     1       0.846  11.763  19.278  0.00  0.00    +0.000 A 
ATOM     16  C   UNL     1      -0.527  11.564  19.157  0.00  0.00    +0.000 A 
ATOM     17 BR   UNL     1      -1.726  12.810  19.920  0.00  0.00    +0.000 Br
ATOM     18  C   UNL     1      -1.023  10.443  18.492  0.00  0.00    +0.000 A 
ATOM     19  C   UNL     1      -0.136   9.502  17.961  0.00  0.00    +0.000 A 
ENDBRANCH  11  13
TORSDOF 1
ENDMDL
MODEL 4
REMARK VINA RESULT:      -6.8      3.200      6.742
REMARK  Name = 
REMARK  1 active torsions:
REMARK  status: ('A' for Active; 'I' for Inactive)
REMARK    1  A    between atoms: C_11  and  C_12
REMARK                            x       y       z     vdW  Elec       q    Type
REMARK                         _______ _______ _______ _____ _____    ______ ____
ROOT
ATOM      1  O   UNL     1       4.025   6.503  17.176  0.00  0.00    +0.000 OA
ATOM      2  C   UNL     1       3.523   5.691  17.927  0.00  0.00    +0.000 C 
ATOM      3  N   UNL     1       2.609   5.967  18.930  0.00  0.00    +0.000 N 
ATOM      4  C   UNL     1       2.228   4.815  19.607  0.00  0.00    +0.000 A 
ATOM      5  C   UNL     1       1.344   4.742  20.665  0.00  0.00    +0.000 A 
ATOM      6  C   UNL     1       1.109   3.483  21.215  0.00  0.00    +0.000 A 
ATOM      7  C   UNL     1       1.758   2.343  20.700  0.00  0.00    +0.000 A 
ATOM      8  C   UNL     1       2.651   2.442  19.624  0.00  0.00    +0.000 A 
ATOM      9  C   UNL     1       2.877   3.693  19.079  0.00  0.00    +0.000 A 
ATOM     10  C   UNL     1       3.728   4.193  17.991  0.00  0.00    +0.000 C 
ATOM     11  C   UNL     1       4.545   3.470  17.209  0.00  0.00    +0.000 C 
ATOM     12  H   UNL     1       2.285   6.902  19.121  0.00  0.00    +0.000 HD
ENDROOT
BRANCH  11  13
ATOM     13  C   UNL     1       5.412   4.062  16.186  0.00  0.00    +0.000 A 
ATOM     14  C   UNL     1       4.998   4.064  14.848  0.00  0.00    +0.000 A 
ATOM     15  C   UNL     1       5.855   4.528  13.846  0.00  0.00    +0.000 A 
ATOM     16  C   UNL     1       7.123   4.994  14.183  0.00  0.00    +0.000 A 
ATOM     17 BR   UNL     1       8.300   5.575  12.823  0.00  0.00    +0.000 Br
ATOM     18  C   UNL     1       7.537   5.018  15.515  0.00  0.00    +0.000 A 
ATOM     19  C   UNL     1       6.680   4.553  16.516  0.00  0.00    +0.000 A 
ENDBRANCH  11  13
TORSDOF 1
ENDMDL
MODEL 5
REMARK VINA RESULT:      -6.8      3.174      6.749
REMARK  Name = 
REMARK  1 active torsions:
REMARK  status: ('A' for Active; 'I' for Inactive)
REMARK    1  A    between atoms: C_11  and  C_12
REMARK                            x       y       z     vdW  Elec       q    Type
REMARK                         _______ _______ _______ _____ _____    ______ ____
ROOT
ATOM      1  O   UNL     1       6.230   3.881  18.608  0.00  0.00    +0.000 OA
ATOM      2  C   UNL     1       5.092   3.706  18.996  0.00  0.00    +0.000 C 
ATOM      3  N   UNL     1       4.720   3.294  20.265  0.00  0.00    +0.000 N 
ATOM      4  C   UNL     1       3.340   3.192  20.386  0.00  0.00    +0.000 A 
ATOM      5  C   UNL     1       2.644   2.797  21.511  0.00  0.00    +0.000 A 
ATOM      6  C   UNL     1       1.254   2.749  21.418  0.00  0.00    +0.000 A 
ATOM      7  C   UNL     1       0.604   3.090  20.216  0.00  0.00    +0.000 A 
ATOM      8  C   UNL     1       1.331   3.490  19.086  0.00  0.00    +0.000 A 
ATOM      9  C   UNL     1       2.711   3.540  19.186  0.00  0.00    +0.000 A 
ATOM     10  C   UNL     1       3.789   3.883  18.248  0.00  0.00    +0.000 C 
ATOM     11  C   UNL     1       3.654   4.263  16.968  0.00  0.00    +0.000 C 
ATOM     12  H   UNL     1       5.396   3.096  20.987  0.00  0.00    +0.000 HD
ENDROOT
BRANCH  11  13
ATOM     13  C   UNL     1       4.792   4.522  16.081  0.00  0.00    +0.000 A 
ATOM     14  C   UNL     1       5.295   5.824  15.965  0.00  0.00    +0.000 A 
ATOM     15  C   UNL     1       6.308   6.109  15.047  0.00  0.00    +0.000 A 
ATOM     16  C   UNL     1       6.823   5.091  14.249  0.00  0.00    +0.000 A 
ATOM     17 BR   UNL     1       8.160   5.486  12.972  0.00  0.00    +0.000 Br
ATOM     18  C   UNL     1       6.347   3.786  14.372  0.00  0.00    +0.000 A 
ATOM     19  C   UNL     1       5.331   3.502  15.289  0.00  0.00    +0.000 A 
ENDBRANCH  11  13
TORSDOF 1
ENDMDL
MODEL 6
REMARK VINA RESULT:      -6.7      5.355      6.805
REMARK  Name = 
REMARK  1 active torsions:
REMARK  status: ('A' for Active; 'I' for Inactive)
REMARK    1  A    between atoms: C_11  and  C_12
REMARK                            x       y       z     vdW  Elec       q    Type
REMARK                         _______ _______ _______ _____ _____    ______ ____
ROOT
ATOM      1  O   UNL     1       1.425   7.674  20.503  0.00  0.00    +0.000 OA
ATOM      2  C   UNL     1       2.250   7.209  19.743  0.00  0.00    +0.000 C 
ATOM      3  N   UNL     1       3.036   6.094  19.978  0.00  0.00    +0.000 N 
ATOM      4  C   UNL     1       3.877   5.824  18.905  0.00  0.00    +0.000 A 
ATOM      5  C   UNL     1       4.793   4.796  18.821  0.00  0.00    +0.000 A 
ATOM      6  C   UNL     1       5.553   4.711  17.656  0.00  0.00    +0.000 A 
ATOM      7  C   UNL     1       5.381   5.646  16.617  0.00  0.00    +0.000 A 
ATOM      8  C   UNL     1       4.443   6.682  16.724  0.00  0.00    +0.000 A 
ATOM      9  C   UNL     1       3.688   6.760  17.881  0.00  0.00    +0.000 A 
ATOM     10  C   UNL     1       2.649   7.681  18.361  0.00  0.00    +0.000 C 
ATOM     11  C   UNL     1       2.155   8.748  17.714  0.00  0.00    +0.000 C 
ATOM     12  H   UNL     1       2.983   5.568  20.836  0.00  0.00    +0.000 HD
ENDROOT
BRANCH  11  13
ATOM     13  C   UNL     1       1.163   9.656  18.298  0.00  0.00    +0.000 A 
ATOM     14  C   UNL     1      -0.193   9.486  17.991  0.00  0.00    +0.000 A 
ATOM     15  C   UNL     1      -1.140  10.404  18.452  0.00  0.00    +0.000 A 
ATOM     16  C   UNL     1      -0.732  11.488  19.225  0.00  0.00    +0.000 A 
ATOM     17 BR   UNL     1      -2.007  12.756  19.808  0.00  0.00    +0.000 Br
ATOM     18  C   UNL     1       0.612  11.654  19.557  0.00  0.00    +0.000 A 
ATOM     19  C   UNL     1       1.560  10.737  19.094  0.00  0.00    +0.000 A 
ENDBRANCH  11  13
TORSDOF 1
ENDMDL
MODEL 7
REMARK VINA RESULT:      -6.7      3.160      6.632
REMARK  Name = 
REMARK  1 active torsions:
REMARK  status: ('A' for Active; 'I' for Inactive)
REMARK    1  A    between atoms: C_11  and  C_12
REMARK                            x       y       z     vdW  Elec       q    Type
REMARK                         _______ _______ _______ _____ _____    ______ ____
ROOT
ATOM      1  O   UNL     1       4.237   6.363  16.876  0.00  0.00    +0.000 OA
ATOM      2  C   UNL     1       3.698   5.623  17.674  0.00  0.00    +0.000 C 
ATOM      3  N   UNL     1       2.788   5.999  18.647  0.00  0.00    +0.000 N 
ATOM      4  C   UNL     1       2.358   4.910  19.395  0.00  0.00    +0.000 A 
ATOM      5  C   UNL     1       1.464   4.941  20.446  0.00  0.00    +0.000 A 
ATOM      6  C   UNL     1       1.176   3.730  21.075  0.00  0.00    +0.000 A 
ATOM      7  C   UNL     1       1.784   2.535  20.643  0.00  0.00    +0.000 A 
ATOM      8  C   UNL     1       2.687   2.528  19.572  0.00  0.00    +0.000 A 
ATOM      9  C   UNL     1       2.967   3.732  18.948  0.00  0.00    +0.000 A 
ATOM     10  C   UNL     1       3.844   4.125  17.837  0.00  0.00    +0.000 C 
ATOM     11  C   UNL     1       4.638   3.322  17.113  0.00  0.00    +0.000 C 
ATOM     12  H   UNL     1       2.499   6.957  18.773  0.00  0.00    +0.000 HD
ENDROOT
BRANCH  11  13
ATOM     13  C   UNL     1       5.535   3.811  16.061  0.00  0.00    +0.000 A 
ATOM     14  C   UNL     1       6.751   4.410  16.415  0.00  0.00    +0.000 A 
ATOM     15  C   UNL     1       7.570   4.975  15.435  0.00  0.00    +0.000 A 
ATOM     16  C   UNL     1       7.175   4.936  14.099  0.00  0.00    +0.000 A 
ATOM     17 BR   UNL     1       8.259   5.744  12.779  0.00  0.00    +0.000 Br
ATOM     18  C   UNL     1       5.978   4.322  13.733  0.00  0.00    +0.000 A 
ATOM     19  C   UNL     1       5.159   3.758  14.715  0.00  0.00    +0.000 A 
ENDBRANCH  11  13
TORSDOF 1
ENDMDL
MODEL 8
REMARK VINA RESULT:      -6.6      4.972      8.007
REMARK  Name = 
REMARK  1 active torsions:
REMARK  status: ('A' for Active; 'I' for Inactive)
REMARK    1  A    between atoms: C_11  and  C_12
REMARK                            x       y       z     vdW  Elec       q    Type
REMARK                         _______ _______ _______ _____ _____    ______ ____
ROOT
ATOM      1  O   UNL     1       2.264   8.631  17.152  0.00  0.00    +0.000 OA
ATOM      2  C   UNL     1       1.802   8.849  18.255  0.00  0.00    +0.000 C 
ATOM      3  N   UNL     1       1.061   9.959  18.622  0.00  0.00    +0.000 N 
ATOM      4  C   UNL     1       0.681   9.902  19.957  0.00  0.00    +0.000 A 
ATOM      5  C   UNL     1      -0.051  10.851  20.641  0.00  0.00    +0.000 A 
ATOM      6  C   UNL     1      -0.314  10.607  21.988  0.00  0.00    +0.000 A 
ATOM      7  C   UNL     1       0.159   9.435  22.610  0.00  0.00    +0.000 A 
ATOM      8  C   UNL     1       0.900   8.484  21.895  0.00  0.00    +0.000 A 
ATOM      9  C   UNL     1       1.155   8.729  20.557  0.00  0.00    +0.000 A 
ATOM     10  C   UNL     1       1.886   8.006  19.509  0.00  0.00    +0.000 C 
ATOM     11  C   UNL     1       2.524   6.832  19.634  0.00  0.00    +0.000 C 
ATOM     12  H   UNL     1       0.847  10.702  17.975  0.00  0.00    +0.000 HD
ENDROOT
BRANCH  11  13
ATOM     13  C   UNL     1       3.290   6.210  18.549  0.00  0.00    +0.000 A 
ATOM     14  C   UNL     1       2.807   5.042  17.945  0.00  0.00    +0.000 A 
ATOM     15  C   UNL     1       3.573   4.378  16.983  0.00  0.00    +0.000 A 
ATOM     16  C   UNL     1       4.818   4.887  16.621  0.00  0.00    +0.000 A 
ATOM     17 BR   UNL     1       5.875   3.962  15.355  0.00  0.00    +0.000 Br
ATOM     18  C   UNL     1       5.298   6.062  17.198  0.00  0.00    +0.000 A 
ATOM     19  C   UNL     1       4.532   6.725  18.162  0.00  0.00    +0.000 A 
ENDBRANCH  11  13
TORSDOF 1
ENDMDL
MODEL 9
REMARK VINA RESULT:      -6.6      4.692      7.698
REMARK  Name = 
REMARK  1 active torsions:
REMARK  status: ('A' for Active; 'I' for Inactive)
REMARK    1  A    between atoms: C_11  and  C_12
REMARK                            x       y       z     vdW  Elec       q    Type
REMARK                         _______ _______ _______ _____ _____    ______ ____
ROOT
ATOM      1  O   UNL     1       2.727   8.178  17.083  0.00  0.00    +0.000 OA
ATOM      2  C   UNL     1       2.183   8.458  18.133  0.00  0.00    +0.000 C 
ATOM      3  N   UNL     1       1.473   9.616  18.398  0.00  0.00    +0.000 N 
ATOM      4  C   UNL     1       0.976   9.627  19.695  0.00  0.00    +0.000 A 
ATOM      5  C   UNL     1       0.238  10.635  20.281  0.00  0.00    +0.000 A 
ATOM      6  C   UNL     1      -0.154  10.453  21.606  0.00  0.00    +0.000 A 
ATOM      7  C   UNL     1       0.200   9.282  22.304  0.00  0.00    +0.000 A 
ATOM      8  C   UNL     1       0.949   8.270  21.689  0.00  0.00    +0.000 A 
ATOM      9  C   UNL     1       1.332   8.454  20.371  0.00  0.00    +0.000 A 
ATOM     10  C   UNL     1       2.113   7.657  19.416  0.00  0.00    +0.000 C 
ATOM     11  C   UNL     1       2.674   6.458  19.634  0.00  0.00    +0.000 C 
ATOM     12  H   UNL     1       1.356  10.345  17.712  0.00  0.00    +0.000 HD
ENDROOT
BRANCH  11  13
ATOM     13  C   UNL     1       3.497   5.761  18.641  0.00  0.00    +0.000 A 
ATOM     14  C   UNL     1       4.845   6.113  18.492  0.00  0.00    +0.000 A 
ATOM     15  C   UNL     1       5.616   5.534  17.481  0.00  0.00    +0.000 A 
ATOM     16  C   UNL     1       5.042   4.598  16.624  0.00  0.00    +0.000 A 
ATOM     17 BR   UNL     1       6.073   3.852  15.227  0.00  0.00    +0.000 Br
ATOM     18  C   UNL     1       3.708   4.222  16.779  0.00  0.00    +0.000 A 
ATOM     19  C   UNL     1       2.936   4.803  17.789  0.00  0.00    +0.000 A 
ENDBRANCH  11  13
TORSDOF 1
ENDMDL
