MODEL 1
REMARK VINA RESULT:      -7.2      0.000      0.000
REMARK  Name = 
REMARK  8 active torsions:
REMARK  status: ('A' for Active; 'I' for Inactive)
REMARK    1  A    between atoms: C_1  and  O_2
REMARK    2  A    between atoms: O_2  and  C_3
REMARK    3  A    between atoms: C_5  and  C_6
REMARK    4  A    between atoms: C_6  and  O_7
REMARK    5  A    between atoms: O_7  and  C_8
REMARK    6  A    between atoms: C_8  and  C_10
REMARK    7  A    between atoms: C_16  and  C_17
REMARK    8  A    between atoms: C_17  and  C_18
REMARK                            x       y       z     vdW  Elec       q    Type
REMARK                         _______ _______ _______ _____ _____    ______ ____
ROOT
ATOM      1  C   UNL     1       1.733   8.716  19.206  0.00  0.00    +0.000 A 
ATOM      2  C   UNL     1       1.611   7.741  20.199  0.00  0.00    +0.000 A 
ATOM      3  C   UNL     1       2.242   6.498  20.073  0.00  0.00    +0.000 A 
ATOM      4  C   UNL     1       3.009   6.239  18.930  0.00  0.00    +0.000 A 
ATOM      5  C   UNL     1       3.166   7.215  17.935  0.00  0.00    +0.000 A 
ATOM      6  C   UNL     1       2.496   8.443  18.070  0.00  0.00    +0.000 A 
ENDROOT
BRANCH   1   8
ATOM      7  C   UNL     1      -0.090   9.814  20.276  0.00  0.00    +0.000 C 
ATOM      8  O   UNL     1       1.087   9.889  19.484  0.00  0.00    +0.000 OA
ENDBRANCH   1   8
BRANCH   3   9
ATOM      9  C   UNL     1       2.111   5.462  21.161  0.00  0.00    +0.000 C 
BRANCH   9  10
ATOM     10  O   UNL     1       1.392   4.317  20.690  0.00  0.00    +0.000 OA
BRANCH  10  11
ATOM     11  C   UNL     1       2.010   3.123  20.923  0.00  0.00    +0.000 C 
ATOM     12  O   UNL     1       1.985   2.521  21.988  0.00  0.00    +0.000 OA
BRANCH  11  13
ATOM     13  C   UNL     1       2.729   2.634  19.767  0.00  0.00    +0.000 A 
ATOM     14  C   UNL     1       2.225   2.478  18.458  0.00  0.00    +0.000 A 
ATOM     15  N   UNL     1       3.132   1.986  17.610  0.00  0.00    +0.000 NA
ATOM     16  N   UNL     1       4.228   1.833  18.371  0.00  0.00    +0.000 N 
ATOM     17  C   UNL     1       4.037   2.204  19.673  0.00  0.00    +0.000 A 
ATOM     18  H   UNL     1       5.069   1.469  17.938  0.00  0.00    +0.000 HD
ENDBRANCH  11  13
ENDBRANCH  10  11
ENDBRANCH   9  10
ENDBRANCH   3   9
BRANCH   5  19
ATOM     19  C   UNL     1       4.066   6.956  16.749  0.00  0.00    +0.000 C 
BRANCH  19  20
ATOM     20  C   UNL     1       5.283   6.136  17.068  0.00  0.00    +0.000 A 
ATOM     21  C   UNL     1       6.394   6.694  17.706  0.00  0.00    +0.000 A 
ATOM     22  C   UNL     1       7.523   5.913  17.936  0.00  0.00    +0.000 A 
ATOM     23  C   UNL     1       7.500   4.590  17.525  0.00  0.00    +0.000 A 
ATOM     24  N   UNL     1       6.439   4.008  16.927  0.00  0.00    +0.000 NA
ATOM     25  C   UNL     1       5.361   4.794  16.709  0.00  0.00    +0.000 A 
ENDBRANCH  19  20
ENDBRANCH   5  19
TORSDOF 7
ENDMDL
MODEL 2
REMARK VINA RESULT:      -7.1      3.384      5.777
REMARK  Name = 
REMARK  8 active torsions:
REMARK  status: ('A' for Active; 'I' for Inactive)
REMARK    1  A    between atoms: C_1  and  O_2
REMARK    2  A    between atoms: O_2  and  C_3
REMARK    3  A    between atoms: C_5  and  C_6
REMARK    4  A    between atoms: C_6  and  O_7
REMARK    5  A    between atoms: O_7  and  C_8
REMARK    6  A    between atoms: C_8  and  C_10
REMARK    7  A    between atoms: C_16  and  C_17
REMARK    8  A    between atoms: C_17  and  C_18
REMARK                            x       y       z     vdW  Elec       q    Type
REMARK                         _______ _______ _______ _____ _____    ______ ____
ROOT
ATOM      1  C   UNL     1       2.512   4.368  20.462  0.00  0.00    +0.000 A 
ATOM      2  C   UNL     1       2.191   5.711  20.254  0.00  0.00    +0.000 A 
ATOM      3  C   UNL     1       2.468   6.341  19.035  0.00  0.00    +0.000 A 
ATOM      4  C   UNL     1       3.074   5.602  18.011  0.00  0.00    +0.000 A 
ATOM      5  C   UNL     1       3.379   4.245  18.191  0.00  0.00    +0.000 A 
ATOM      6  C   UNL     1       3.121   3.644  19.434  0.00  0.00    +0.000 A 
ENDROOT
BRANCH   1   8
ATOM      7  C   UNL     1       1.444   2.653  21.723  0.00  0.00    +0.000 C 
ATOM      8  O   UNL     1       2.154   3.884  21.689  0.00  0.00    +0.000 OA
ENDBRANCH   1   8
BRANCH   3   9
ATOM      9  C   UNL     1       2.102   7.788  18.824  0.00  0.00    +0.000 C 
BRANCH   9  10
ATOM     10  O   UNL     1       1.856   8.439  20.075  0.00  0.00    +0.000 OA
BRANCH  10  11
ATOM     11  C   UNL     1       0.949   9.458  20.018  0.00  0.00    +0.000 C 
ATOM     12  O   UNL     1       0.627  10.048  18.996  0.00  0.00    +0.000 OA
BRANCH  11  13
ATOM     13  C   UNL     1       0.407   9.792  21.317  0.00  0.00    +0.000 A 
ATOM     14  C   UNL     1       0.830   9.293  22.567  0.00  0.00    +0.000 A 
ATOM     15  N   UNL     1       0.117   9.781  23.587  0.00  0.00    +0.000 NA
ATOM     16  N   UNL     1      -0.762  10.605  22.993  0.00  0.00    +0.000 N 
ATOM     17  C   UNL     1      -0.631  10.644  21.632  0.00  0.00    +0.000 A 
ATOM     18  H   UNL     1      -1.422  11.106  23.576  0.00  0.00    +0.000 HD
ENDBRANCH  11  13
ENDBRANCH  10  11
ENDBRANCH   9  10
ENDBRANCH   3   9
BRANCH   5  19
ATOM     19  C   UNL     1       3.953   3.435  17.050  0.00  0.00    +0.000 C 
BRANCH  19  20
ATOM     20  C   UNL     1       5.179   4.036  16.426  0.00  0.00    +0.000 A 
ATOM     21  C   UNL     1       5.211   4.396  15.076  0.00  0.00    +0.000 A 
ATOM     22  C   UNL     1       6.385   4.901  14.524  0.00  0.00    +0.000 A 
ATOM     23  C   UNL     1       7.492   5.035  15.346  0.00  0.00    +0.000 A 
ATOM     24  N   UNL     1       7.495   4.721  16.659  0.00  0.00    +0.000 NA
ATOM     25  C   UNL     1       6.343   4.226  17.164  0.00  0.00    +0.000 A 
ENDBRANCH  19  20
ENDBRANCH   5  19
TORSDOF 7
ENDMDL
MODEL 3
REMARK VINA RESULT:      -7.1      0.860      1.207
REMARK  Name = 
REMARK  8 active torsions:
REMARK  status: ('A' for Active; 'I' for Inactive)
REMARK    1  A    between atoms: C_1  and  O_2
REMARK    2  A    between atoms: O_2  and  C_3
REMARK    3  A    between atoms: C_5  and  C_6
REMARK    4  A    between atoms: C_6  and  O_7
REMARK    5  A    between atoms: O_7  and  C_8
REMARK    6  A    between atoms: C_8  and  C_10
REMARK    7  A    between atoms: C_16  and  C_17
REMARK    8  A    between atoms: C_17  and  C_18
REMARK                            x       y       z     vdW  Elec       q    Type
REMARK                         _______ _______ _______ _____ _____    ______ ____
ROOT
ATOM      1  C   UNL     1       1.788   8.715  19.090  0.00  0.00    +0.000 A 
ATOM      2  C   UNL     1       1.766   7.673  20.020  0.00  0.00    +0.000 A 
ATOM      3  C   UNL     1       2.481   6.491  19.797  0.00  0.00    +0.000 A 
ATOM      4  C   UNL     1       3.228   6.361  18.620  0.00  0.00    +0.000 A 
ATOM      5  C   UNL     1       3.284   7.406  17.687  0.00  0.00    +0.000 A 
ATOM      6  C   UNL     1       2.534   8.571  17.919  0.00  0.00    +0.000 A 
ENDROOT
BRANCH   1   8
ATOM      7  C   UNL     1       0.062  10.271  18.564  0.00  0.00    +0.000 C 
ATOM      8  O   UNL     1       1.068   9.818  19.460  0.00  0.00    +0.000 OA
ENDBRANCH   1   8
BRANCH   3   9
ATOM      9  C   UNL     1       2.457   5.381  20.818  0.00  0.00    +0.000 C 
BRANCH   9  10
ATOM     10  O   UNL     1       1.237   4.637  20.733  0.00  0.00    +0.000 OA
BRANCH  10  11
ATOM     11  C   UNL     1       1.396   3.281  20.753  0.00  0.00    +0.000 C 
ATOM     12  O   UNL     1       1.108   2.559  21.698  0.00  0.00    +0.000 OA
BRANCH  11  13
ATOM     13  C   UNL     1       1.966   2.771  19.526  0.00  0.00    +0.000 A 
ATOM     14  C   UNL     1       1.498   2.996  18.213  0.00  0.00    +0.000 A 
ATOM     15  N   UNL     1       2.233   2.373  17.288  0.00  0.00    +0.000 NA
ATOM     16  N   UNL     1       3.184   1.751  18.004  0.00  0.00    +0.000 N 
ATOM     17  C   UNL     1       3.066   1.956  19.351  0.00  0.00    +0.000 A 
ATOM     18  H   UNL     1       3.879   1.204  17.510  0.00  0.00    +0.000 HD
ENDBRANCH  11  13
ENDBRANCH  10  11
ENDBRANCH   9  10
ENDBRANCH   3   9
BRANCH   5  19
ATOM     19  C   UNL     1       4.165   7.289  16.463  0.00  0.00    +0.000 C 
BRANCH  19  20
ATOM     20  C   UNL     1       5.301   6.319  16.614  0.00  0.00    +0.000 A 
ATOM     21  C   UNL     1       5.211   5.008  16.141  0.00  0.00    +0.000 A 
ATOM     22  C   UNL     1       6.267   4.125  16.347  0.00  0.00    +0.000 A 
ATOM     23  C   UNL     1       7.387   4.588  17.018  0.00  0.00    +0.000 A 
ATOM     24  N   UNL     1       7.523   5.853  17.470  0.00  0.00    +0.000 NA
ATOM     25  C   UNL     1       6.478   6.684  17.261  0.00  0.00    +0.000 A 
ENDBRANCH  19  20
ENDBRANCH   5  19
TORSDOF 7
ENDMDL
MODEL 4
REMARK VINA RESULT:      -7.0      3.298      6.066
REMARK  Name = 
REMARK  8 active torsions:
REMARK  status: ('A' for Active; 'I' for Inactive)
REMARK    1  A    between atoms: C_1  and  O_2
REMARK    2  A    between atoms: O_2  and  C_3
REMARK    3  A    between atoms: C_5  and  C_6
REMARK    4  A    between atoms: C_6  and  O_7
REMARK    5  A    between atoms: O_7  and  C_8
REMARK    6  A    between atoms: C_8  and  C_10
REMARK    7  A    between atoms: C_16  and  C_17
REMARK    8  A    between atoms: C_17  and  C_18
REMARK                            x       y       z     vdW  Elec       q    Type
REMARK                         _______ _______ _______ _____ _____    ______ ____
ROOT
ATOM      1  C   UNL     1       2.746   4.084  18.152  0.00  0.00    +0.000 A 
ATOM      2  C   UNL     1       4.110   4.041  18.454  0.00  0.00    +0.000 A 
ATOM      3  C   UNL     1       4.875   5.211  18.506  0.00  0.00    +0.000 A 
ATOM      4  C   UNL     1       4.255   6.441  18.253  0.00  0.00    +0.000 A 
ATOM      5  C   UNL     1       2.882   6.507  17.975  0.00  0.00    +0.000 A 
ATOM      6  C   UNL     1       2.141   5.315  17.898  0.00  0.00    +0.000 A 
ENDROOT
BRANCH   1   8
ATOM      7  C   UNL     1       1.538   2.450  19.395  0.00  0.00    +0.000 C 
ATOM      8  O   UNL     1       2.125   2.865  18.169  0.00  0.00    +0.000 OA
ENDBRANCH   1   8
BRANCH   3   9
ATOM      9  C   UNL     1       6.343   5.147  18.846  0.00  0.00    +0.000 C 
BRANCH   9  10
ATOM     10  O   UNL     1       7.093   4.589  17.762  0.00  0.00    +0.000 OA
BRANCH  10  11
ATOM     11  C   UNL     1       7.210   5.403  16.673  0.00  0.00    +0.000 C 
ATOM     12  O   UNL     1       7.560   6.574  16.712  0.00  0.00    +0.000 OA
BRANCH  11  13
ATOM     13  C   UNL     1       6.855   4.735  15.440  0.00  0.00    +0.000 A 
ATOM     14  C   UNL     1       7.295   5.063  14.139  0.00  0.00    +0.000 A 
ATOM     15  N   UNL     1       6.775   4.266  13.201  0.00  0.00    +0.000 NA
ATOM     16  N   UNL     1       6.006   3.414  13.900  0.00  0.00    +0.000 N 
ATOM     17  C   UNL     1       6.017   3.656  15.245  0.00  0.00    +0.000 A 
ATOM     18  H   UNL     1       5.501   2.696  13.394  0.00  0.00    +0.000 HD
ENDBRANCH  11  13
ENDBRANCH  10  11
ENDBRANCH   9  10
ENDBRANCH   3   9
BRANCH   5  19
ATOM     19  C   UNL     1       2.205   7.847  17.790  0.00  0.00    +0.000 C 
BRANCH  19  20
ATOM     20  C   UNL     1       1.710   8.466  19.065  0.00  0.00    +0.000 A 
ATOM     21  C   UNL     1       1.788   7.790  20.286  0.00  0.00    +0.000 A 
ATOM     22  C   UNL     1       1.269   8.378  21.435  0.00  0.00    +0.000 A 
ATOM     23  C   UNL     1       0.693   9.633  21.327  0.00  0.00    +0.000 A 
ATOM     24  N   UNL     1       0.620  10.329  20.173  0.00  0.00    +0.000 NA
ATOM     25  C   UNL     1       1.124   9.729  19.072  0.00  0.00    +0.000 A 
ENDBRANCH  19  20
ENDBRANCH   5  19
TORSDOF 7
ENDMDL
MODEL 5
REMARK VINA RESULT:      -7.0      3.520      6.532
REMARK  Name = 
REMARK  8 active torsions:
REMARK  status: ('A' for Active; 'I' for Inactive)
REMARK    1  A    between atoms: C_1  and  O_2
REMARK    2  A    between atoms: O_2  and  C_3
REMARK    3  A    between atoms: C_5  and  C_6
REMARK    4  A    between atoms: C_6  and  O_7
REMARK    5  A    between atoms: O_7  and  C_8
REMARK    6  A    between atoms: C_8  and  C_10
REMARK    7  A    between atoms: C_16  and  C_17
REMARK    8  A    between atoms: C_17  and  C_18
REMARK                            x       y       z     vdW  Elec       q    Type
REMARK                         _______ _______ _______ _____ _____    ______ ____
ROOT
ATOM      1  C   UNL     1       4.837   6.601  17.266  0.00  0.00    +0.000 A 
ATOM      2  C   UNL     1       4.046   7.727  17.510  0.00  0.00    +0.000 A 
ATOM      3  C   UNL     1       2.689   7.601  17.829  0.00  0.00    +0.000 A 
ATOM      4  C   UNL     1       2.125   6.321  17.905  0.00  0.00    +0.000 A 
ATOM      5  C   UNL     1       2.909   5.178  17.691  0.00  0.00    +0.000 A 
ATOM      6  C   UNL     1       4.262   5.332  17.341  0.00  0.00    +0.000 A 
ENDROOT
BRANCH   1   8
ATOM      7  C   UNL     1       6.964   5.807  16.546  0.00  0.00    +0.000 C 
ATOM      8  O   UNL     1       6.149   6.880  16.999  0.00  0.00    +0.000 OA
ENDBRANCH   1   8
BRANCH   3   9
ATOM      9  C   UNL     1       1.853   8.826  18.101  0.00  0.00    +0.000 C 
BRANCH   9  10
ATOM     10  O   UNL     1       1.386   8.833  19.454  0.00  0.00    +0.000 OA
BRANCH  10  11
ATOM     11  C   UNL     1       0.472   9.808  19.735  0.00  0.00    +0.000 C 
ATOM     12  O   UNL     1       0.036  10.610  18.921  0.00  0.00    +0.000 OA
BRANCH  11  13
ATOM     13  C   UNL     1       0.074   9.811  21.126  0.00  0.00    +0.000 A 
ATOM     14  C   UNL     1      -0.049  10.935  21.971  0.00  0.00    +0.000 A 
ATOM     15  N   UNL     1      -0.422  10.610  23.212  0.00  0.00    +0.000 NA
ATOM     16  N   UNL     1      -0.550   9.273  23.165  0.00  0.00    +0.000 N 
ATOM     17  C   UNL     1      -0.261   8.746  21.937  0.00  0.00    +0.000 A 
ATOM     18  H   UNL     1      -0.835   8.787  24.007  0.00  0.00    +0.000 HD
ENDBRANCH  11  13
ENDBRANCH  10  11
ENDBRANCH   9  10
ENDBRANCH   3   9
BRANCH   5  19
ATOM     19  C   UNL     1       2.311   3.800  17.862  0.00  0.00    +0.000 C 
BRANCH  19  20
ATOM     20  C   UNL     1       2.263   3.323  19.285  0.00  0.00    +0.000 A 
ATOM     21  C   UNL     1       1.078   3.345  20.025  0.00  0.00    +0.000 A 
ATOM     22  C   UNL     1       1.089   2.943  21.357  0.00  0.00    +0.000 A 
ATOM     23  C   UNL     1       2.289   2.525  21.907  0.00  0.00    +0.000 A 
ATOM     24  N   UNL     1       3.450   2.467  21.220  0.00  0.00    +0.000 NA
ATOM     25  C   UNL     1       3.410   2.871  19.931  0.00  0.00    +0.000 A 
ENDBRANCH  19  20
ENDBRANCH   5  19
TORSDOF 7
ENDMDL
MODEL 6
REMARK VINA RESULT:      -7.0      2.579      5.201
REMARK  Name = 
REMARK  8 active torsions:
REMARK  status: ('A' for Active; 'I' for Inactive)
REMARK    1  A    between atoms: C_1  and  O_2
REMARK    2  A    between atoms: O_2  and  C_3
REMARK    3  A    between atoms: C_5  and  C_6
REMARK    4  A    between atoms: C_6  and  O_7
REMARK    5  A    between atoms: O_7  and  C_8
REMARK    6  A    between atoms: C_8  and  C_10
REMARK    7  A    between atoms: C_16  and  C_17
REMARK    8  A    between atoms: C_17  and  C_18
REMARK                            x       y       z     vdW  Elec       q    Type
REMARK                         _______ _______ _______ _____ _____    ______ ____
ROOT
ATOM      1  C   UNL     1       4.155   6.311  17.930  0.00  0.00    +0.000 A 
ATOM      2  C   UNL     1       3.501   5.645  18.970  0.00  0.00    +0.000 A 
ATOM      3  C   UNL     1       2.401   6.219  19.617  0.00  0.00    +0.000 A 
ATOM      4  C   UNL     1       1.955   7.481  19.207  0.00  0.00    +0.000 A 
ATOM      5  C   UNL     1       2.580   8.154  18.147  0.00  0.00    +0.000 A 
ATOM      6  C   UNL     1       3.702   7.571  17.534  0.00  0.00    +0.000 A 
ENDROOT
BRANCH   1   8
ATOM      7  C   UNL     1       4.862   4.472  16.591  0.00  0.00    +0.000 C 
ATOM      8  O   UNL     1       5.191   5.612  17.374  0.00  0.00    +0.000 OA
ENDBRANCH   1   8
BRANCH   3   9
ATOM      9  C   UNL     1       1.700   5.480  20.729  0.00  0.00    +0.000 C 
BRANCH   9  10
ATOM     10  O   UNL     1       2.559   4.490  21.304  0.00  0.00    +0.000 OA
BRANCH  10  11
ATOM     11  C   UNL     1       2.063   3.219  21.272  0.00  0.00    +0.000 C 
ATOM     12  O   UNL     1       1.487   2.672  22.202  0.00  0.00    +0.000 OA
BRANCH  11  13
ATOM     13  C   UNL     1       2.305   2.560  20.007  0.00  0.00    +0.000 A 
ATOM     14  C   UNL     1       3.549   2.127  19.500  0.00  0.00    +0.000 A 
ATOM     15  N   UNL     1       3.448   1.566  18.291  0.00  0.00    +0.000 NA
ATOM     16  N   UNL     1       2.133   1.628  18.023  0.00  0.00    +0.000 N 
ATOM     17  C   UNL     1       1.406   2.218  19.019  0.00  0.00    +0.000 A 
ATOM     18  H   UNL     1       1.804   1.250  17.142  0.00  0.00    +0.000 HD
ENDBRANCH  11  13
ENDBRANCH  10  11
ENDBRANCH   9  10
ENDBRANCH   3   9
BRANCH   5  19
ATOM     19  C   UNL     1       2.035   9.476  17.656  0.00  0.00    +0.000 C 
BRANCH  19  20
ATOM     20  C   UNL     1       0.879  10.000  18.457  0.00  0.00    +0.000 A 
ATOM     21  C   UNL     1      -0.438   9.879  18.007  0.00  0.00    +0.000 A 
ATOM     22  C   UNL     1      -1.477  10.426  18.755  0.00  0.00    +0.000 A 
ATOM     23  C   UNL     1      -1.162  11.073  19.939  0.00  0.00    +0.000 A 
ATOM     24  N   UNL     1       0.094  11.191  20.420  0.00  0.00    +0.000 NA
ATOM     25  C   UNL     1       1.082  10.658  19.668  0.00  0.00    +0.000 A 
ENDBRANCH  19  20
ENDBRANCH   5  19
TORSDOF 7
ENDMDL
MODEL 7
REMARK VINA RESULT:      -6.9      0.968      1.276
REMARK  Name = 
REMARK  8 active torsions:
REMARK  status: ('A' for Active; 'I' for Inactive)
REMARK    1  A    between atoms: C_1  and  O_2
REMARK    2  A    between atoms: O_2  and  C_3
REMARK    3  A    between atoms: C_5  and  C_6
REMARK    4  A    between atoms: C_6  and  O_7
REMARK    5  A    between atoms: O_7  and  C_8
REMARK    6  A    between atoms: C_8  and  C_10
REMARK    7  A    between atoms: C_16  and  C_17
REMARK    8  A    between atoms: C_17  and  C_18
REMARK                            x       y       z     vdW  Elec       q    Type
REMARK                         _______ _______ _______ _____ _____    ______ ____
ROOT
ATOM      1  C   UNL     1       2.383   8.518  18.262  0.00  0.00    +0.000 A 
ATOM      2  C   UNL     1       1.910   7.888  19.415  0.00  0.00    +0.000 A 
ATOM      3  C   UNL     1       2.238   6.557  19.697  0.00  0.00    +0.000 A 
ATOM      4  C   UNL     1       3.058   5.855  18.804  0.00  0.00    +0.000 A 
ATOM      5  C   UNL     1       3.565   6.479  17.655  0.00  0.00    +0.000 A 
ATOM      6  C   UNL     1       3.196   7.806  17.377  0.00  0.00    +0.000 A 
ENDROOT
BRANCH   1   8
ATOM      7  C   UNL     1       0.798  10.220  18.774  0.00  0.00    +0.000 C 
ATOM      8  O   UNL     1       2.005   9.827  18.137  0.00  0.00    +0.000 OA
ENDBRANCH   1   8
BRANCH   3   9
ATOM      9  C   UNL     1       1.729   5.896  20.953  0.00  0.00    +0.000 C 
BRANCH   9  10
ATOM     10  O   UNL     1       1.110   4.641  20.654  0.00  0.00    +0.000 OA
BRANCH  10  11
ATOM     11  C   UNL     1       1.841   3.546  21.013  0.00  0.00    +0.000 C 
ATOM     12  O   UNL     1       2.153   3.262  22.161  0.00  0.00    +0.000 OA
BRANCH  11  13
ATOM     13  C   UNL     1       2.234   2.743  19.876  0.00  0.00    +0.000 A 
ATOM     14  C   UNL     1       3.515   2.212  19.614  0.00  0.00    +0.000 A 
ATOM     15  N   UNL     1       3.566   1.525  18.469  0.00  0.00    +0.000 NA
ATOM     16  N   UNL     1       2.311   1.604  17.996  0.00  0.00    +0.000 N 
ATOM     17  C   UNL     1       1.476   2.327  18.801  0.00  0.00    +0.000 A 
ATOM     18  H   UNL     1       2.098   1.144  17.119  0.00  0.00    +0.000 HD
ENDBRANCH  11  13
ENDBRANCH  10  11
ENDBRANCH   9  10
ENDBRANCH   3   9
BRANCH   5  19
ATOM     19  C   UNL     1       4.519   5.740  16.745  0.00  0.00    +0.000 C 
BRANCH  19  20
ATOM     20  C   UNL     1       5.836   5.397  17.381  0.00  0.00    +0.000 A 
ATOM     21  C   UNL     1       6.210   5.930  18.618  0.00  0.00    +0.000 A 
ATOM     22  C   UNL     1       7.461   5.629  19.148  0.00  0.00    +0.000 A 
ATOM     23  C   UNL     1       8.298   4.796  18.424  0.00  0.00    +0.000 A 
ATOM     24  N   UNL     1       7.964   4.243  17.238  0.00  0.00    +0.000 NA
ATOM     25  C   UNL     1       6.747   4.560  16.744  0.00  0.00    +0.000 A 
ENDBRANCH  19  20
ENDBRANCH   5  19
TORSDOF 7
ENDMDL
MODEL 8
REMARK VINA RESULT:      -6.9      2.262      4.756
REMARK  Name = 
REMARK  8 active torsions:
REMARK  status: ('A' for Active; 'I' for Inactive)
REMARK    1  A    between atoms: C_1  and  O_2
REMARK    2  A    between atoms: O_2  and  C_3
REMARK    3  A    between atoms: C_5  and  C_6
REMARK    4  A    between atoms: C_6  and  O_7
REMARK    5  A    between atoms: O_7  and  C_8
REMARK    6  A    between atoms: C_8  and  C_10
REMARK    7  A    between atoms: C_16  and  C_17
REMARK    8  A    between atoms: C_17  and  C_18
REMARK                            x       y       z     vdW  Elec       q    Type
REMARK                         _______ _______ _______ _____ _____    ______ ____
ROOT
ATOM      1  C   UNL     1       1.280   8.021  20.647  0.00  0.00    +0.000 A 
ATOM      2  C   UNL     1       2.084   8.286  19.536  0.00  0.00    +0.000 A 
ATOM      3  C   UNL     1       2.730   7.252  18.848  0.00  0.00    +0.000 A 
ATOM      4  C   UNL     1       2.558   5.934  19.286  0.00  0.00    +0.000 A 
ATOM      5  C   UNL     1       1.733   5.645  20.383  0.00  0.00    +0.000 A 
ATOM      6  C   UNL     1       1.121   6.702  21.076  0.00  0.00    +0.000 A 
ENDROOT
BRANCH   1   8
ATOM      7  C   UNL     1       1.065   9.475  22.521  0.00  0.00    +0.000 C 
ATOM      8  O   UNL     1       0.690   9.127  21.195  0.00  0.00    +0.000 OA
ENDBRANCH   1   8
BRANCH   3   9
ATOM      9  C   UNL     1       3.584   7.556  17.643  0.00  0.00    +0.000 C 
BRANCH   9  10
ATOM     10  O   UNL     1       4.116   6.352  17.080  0.00  0.00    +0.000 OA
BRANCH  10  11
ATOM     11  C   UNL     1       5.426   6.432  16.703  0.00  0.00    +0.000 C 
ATOM     12  O   UNL     1       5.812   6.659  15.564  0.00  0.00    +0.000 OA
BRANCH  11  13
ATOM     13  C   UNL     1       6.336   6.201  17.804  0.00  0.00    +0.000 A 
ATOM     14  C   UNL     1       6.130   5.350  18.911  0.00  0.00    +0.000 A 
ATOM     15  N   UNL     1       7.152   5.364  19.771  0.00  0.00    +0.000 NA
ATOM     16  N   UNL     1       8.025   6.219  19.212  0.00  0.00    +0.000 N 
ATOM     17  C   UNL     1       7.581   6.750  18.033  0.00  0.00    +0.000 A 
ATOM     18  H   UNL     1       8.901   6.393  19.690  0.00  0.00    +0.000 HD
ENDBRANCH  11  13
ENDBRANCH  10  11
ENDBRANCH   9  10
ENDBRANCH   3   9
BRANCH   5  19
ATOM     19  C   UNL     1       1.485   4.210  20.793  0.00  0.00    +0.000 C 
BRANCH  19  20
ATOM     20  C   UNL     1       2.236   3.199  19.976  0.00  0.00    +0.000 A 
ATOM     21  C   UNL     1       3.511   2.762  20.345  0.00  0.00    +0.000 A 
ATOM     22  C   UNL     1       4.195   1.863  19.532  0.00  0.00    +0.000 A 
ATOM     23  C   UNL     1       3.575   1.423  18.374  0.00  0.00    +0.000 A 
ATOM     24  N   UNL     1       2.336   1.802  17.995  0.00  0.00    +0.000 NA
ATOM     25  C   UNL     1       1.700   2.682  18.801  0.00  0.00    +0.000 A 
ENDBRANCH  19  20
ENDBRANCH   5  19
TORSDOF 7
ENDMDL
MODEL 9
REMARK VINA RESULT:      -6.9      2.383      4.940
REMARK  Name = 
REMARK  8 active torsions:
REMARK  status: ('A' for Active; 'I' for Inactive)
REMARK    1  A    between atoms: C_1  and  O_2
REMARK    2  A    between atoms: O_2  and  C_3
REMARK    3  A    between atoms: C_5  and  C_6
REMARK    4  A    between atoms: C_6  and  O_7
REMARK    5  A    between atoms: O_7  and  C_8
REMARK    6  A    between atoms: C_8  and  C_10
REMARK    7  A    between atoms: C_16  and  C_17
REMARK    8  A    between atoms: C_17  and  C_18
REMARK                            x       y       z     vdW  Elec       q    Type
REMARK                         _______ _______ _______ _____ _____    ______ ____
ROOT
ATOM      1  C   UNL     1       1.727   8.933  18.966  0.00  0.00    +0.000 A 
ATOM      2  C   UNL     1       2.593   8.717  17.891  0.00  0.00    +0.000 A 
ATOM      3  C   UNL     1       3.301   7.516  17.763  0.00  0.00    +0.000 A 
ATOM      4  C   UNL     1       3.128   6.520  18.731  0.00  0.00    +0.000 A 
ATOM      5  C   UNL     1       2.243   6.707  19.803  0.00  0.00    +0.000 A 
ATOM      6  C   UNL     1       1.568   7.933  19.927  0.00  0.00    +0.000 A 
ENDROOT
BRANCH   1   8
ATOM      7  C   UNL     1      -0.304  10.144  19.248  0.00  0.00    +0.000 C 
ATOM      8  O   UNL     1       1.083  10.139  18.940  0.00  0.00    +0.000 OA
ENDBRANCH   1   8
BRANCH   3   9
ATOM      9  C   UNL     1       4.221   7.295  16.589  0.00  0.00    +0.000 C 
BRANCH   9  10
ATOM     10  O   UNL     1       4.695   5.945  16.560  0.00  0.00    +0.000 OA
BRANCH  10  11
ATOM     11  C   UNL     1       6.047   5.820  16.413  0.00  0.00    +0.000 C 
ATOM     12  O   UNL     1       6.620   5.662  15.345  0.00  0.00    +0.000 OA
BRANCH  11  13
ATOM     13  C   UNL     1       6.750   5.877  17.676  0.00  0.00    +0.000 A 
ATOM     14  C   UNL     1       6.507   5.086  18.820  0.00  0.00    +0.000 A 
ATOM     15  N   UNL     1       7.316   5.389  19.839  0.00  0.00    +0.000 NA
ATOM     16  N   UNL     1       8.090   6.372  19.349  0.00  0.00    +0.000 N 
ATOM     17  C   UNL     1       7.788   6.703  18.057  0.00  0.00    +0.000 A 
ATOM     18  H   UNL     1       8.801   6.770  19.951  0.00  0.00    +0.000 HD
ENDBRANCH  11  13
ENDBRANCH  10  11
ENDBRANCH   9  10
ENDBRANCH   3   9
BRANCH   5  19
ATOM     19  C   UNL     1       1.999   5.591  20.794  0.00  0.00    +0.000 C 
BRANCH  19  20
ATOM     20  C   UNL     1       2.016   4.216  20.189  0.00  0.00    +0.000 A 
ATOM     21  C   UNL     1       3.196   3.473  20.096  0.00  0.00    +0.000 A 
ATOM     22  C   UNL     1       3.179   2.225  19.480  0.00  0.00    +0.000 A 
ATOM     23  C   UNL     1       1.974   1.756  18.981  0.00  0.00    +0.000 A 
ATOM     24  N   UNL     1       0.809   2.433  19.072  0.00  0.00    +0.000 NA
ATOM     25  C   UNL     1       0.859   3.645  19.667  0.00  0.00    +0.000 A 
ENDBRANCH  19  20
ENDBRANCH   5  19
TORSDOF 7
ENDMDL
