MODEL 1
REMARK VINA RESULT:      -7.9      0.000      0.000
REMARK  Name = 
REMARK  4 active torsions:
REMARK  status: ('A' for Active; 'I' for Inactive)
REMARK    1  A    between atoms: C_1  and  C_2
REMARK    2  A    between atoms: N_4  and  C_5
REMARK    3  A    between atoms: C_7  and  C_8
REMARK    4  A    between atoms: C_10  and  C_11
REMARK                            x       y       z     vdW  Elec       q    Type
REMARK                         _______ _______ _______ _____ _____    ______ ____
ROOT
ATOM      1  C   UNL     1       5.978   5.462  18.665  0.00  0.00    +0.000 C 
ATOM      2  O   UNL     1       6.761   5.450  19.616  0.00  0.00    +0.000 OA
ATOM      3  N   UNL     1       4.597   5.501  18.866  0.00  0.00    +0.000 N 
ATOM      4  C   UNL     1       3.578   5.723  17.841  0.00  0.00    +0.000 C 
ATOM      5  C   UNL     1       2.817   4.426  17.611  0.00  0.00    +0.000 C 
ATOM      6  C   UNL     1       2.303   3.888  18.925  0.00  0.00    +0.000 A 
ATOM      7  N   UNL     1       1.259   3.024  18.851  0.00  0.00    +0.000 NA
ATOM      8  C   UNL     1       0.800   2.508  20.015  0.00  0.00    +0.000 A 
ATOM      9  C   UNL     1       1.327   2.815  21.257  0.00  0.00    +0.000 A 
ATOM     10 CL   UNL     1       0.677   2.130  22.689  0.00  0.00    +0.000 Cl
ATOM     11  C   UNL     1       2.398   3.701  21.320  0.00  0.00    +0.000 A 
ATOM     12  C   UNL     1       2.913   4.244  20.138  0.00  0.00    +0.000 A 
ATOM     13  C   UNL     1       4.064   5.225  20.191  0.00  0.00    +0.000 C 
ENDROOT
BRANCH   1  16
ATOM     14  C   UNL     1       6.848   4.992  15.159  0.00  0.00    +0.000 A 
ATOM     15  C   UNL     1       6.052   4.655  16.228  0.00  0.00    +0.000 A 
ATOM     16  C   UNL     1       6.495   5.476  17.293  0.00  0.00    +0.000 A 
ATOM     17  N   UNL     1       7.440   6.329  16.860  0.00  0.00    +0.000 NA
ATOM     18  O   UNL     1       7.683   5.998  15.544  0.00  0.00    +0.000 OA
BRANCH  14  25
ATOM     19  C   UNL     1       8.452   5.921  12.457  0.00  0.00    +0.000 C 
ATOM     20  C   UNL     1       7.490   4.803  12.635  0.00  0.00    +0.000 A 
ATOM     21  N   UNL     1       7.164   4.021  11.595  0.00  0.00    +0.000 NA
ATOM     22  N   UNL     1       6.295   3.135  12.111  0.00  0.00    +0.000 N 
ATOM     23  C   UNL     1       5.641   2.172  11.260  0.00  0.00    +0.000 C 
ATOM     24  C   UNL     1       6.087   3.287  13.448  0.00  0.00    +0.000 A 
ATOM     25  C   UNL     1       6.817   4.394  13.811  0.00  0.00    +0.000 A 
ENDBRANCH  14  25
ENDBRANCH   1  16
TORSDOF 2
ENDMDL
MODEL 2
REMARK VINA RESULT:      -7.8      6.285      8.902
REMARK  Name = 
REMARK  4 active torsions:
REMARK  status: ('A' for Active; 'I' for Inactive)
REMARK    1  A    between atoms: C_1  and  C_2
REMARK    2  A    between atoms: N_4  and  C_5
REMARK    3  A    between atoms: C_7  and  C_8
REMARK    4  A    between atoms: C_10  and  C_11
REMARK                            x       y       z     vdW  Elec       q    Type
REMARK                         _______ _______ _______ _____ _____    ______ ____
ROOT
ATOM      1  C   UNL     1       1.999   8.718  18.131  0.00  0.00    +0.000 C 
ATOM      2  O   UNL     1       2.586   8.811  17.053  0.00  0.00    +0.000 OA
ATOM      3  N   UNL     1       2.360   7.752  19.071  0.00  0.00    +0.000 N 
ATOM      4  C   UNL     1       1.889   7.667  20.453  0.00  0.00    +0.000 C 
ATOM      5  C   UNL     1       0.966   6.465  20.588  0.00  0.00    +0.000 C 
ATOM      6  C   UNL     1       1.652   5.226  20.064  0.00  0.00    +0.000 A 
ATOM      7  N   UNL     1       1.170   4.040  20.512  0.00  0.00    +0.000 NA
ATOM      8  C   UNL     1       1.751   2.915  20.034  0.00  0.00    +0.000 A 
ATOM      9  C   UNL     1       2.800   2.912  19.131  0.00  0.00    +0.000 A 
ATOM     10 CL   UNL     1       3.493   1.442  18.585  0.00  0.00    +0.000 Cl
ATOM     11  C   UNL     1       3.285   4.135  18.677  0.00  0.00    +0.000 A 
ATOM     12  C   UNL     1       2.700   5.320  19.134  0.00  0.00    +0.000 A 
ATOM     13  C   UNL     1       3.230   6.658  18.667  0.00  0.00    +0.000 C 
ENDROOT
BRANCH   1  16
ATOM     14  C   UNL     1      -1.022  10.721  18.503  0.00  0.00    +0.000 A 
ATOM     15  C   UNL     1      -0.396   9.631  17.948  0.00  0.00    +0.000 A 
ATOM     16  C   UNL     1       0.924   9.661  18.461  0.00  0.00    +0.000 A 
ATOM     17  N   UNL     1       1.053  10.658  19.352  0.00  0.00    +0.000 NA
ATOM     18  O   UNL     1      -0.147  11.338  19.345  0.00  0.00    +0.000 OA
BRANCH  14  25
ATOM     19  C   UNL     1      -2.754  10.620  15.724  0.00  0.00    +0.000 C 
ATOM     20  C   UNL     1      -3.154  11.141  17.056  0.00  0.00    +0.000 A 
ATOM     21  N   UNL     1      -4.372  11.676  17.233  0.00  0.00    +0.000 NA
ATOM     22  N   UNL     1      -4.388  12.032  18.529  0.00  0.00    +0.000 N 
ATOM     23  C   UNL     1      -5.518  12.738  19.080  0.00  0.00    +0.000 C 
ATOM     24  C   UNL     1      -3.249  11.703  19.201  0.00  0.00    +0.000 A 
ATOM     25  C   UNL     1      -2.408  11.163  18.258  0.00  0.00    +0.000 A 
ENDBRANCH  14  25
ENDBRANCH   1  16
TORSDOF 2
ENDMDL
MODEL 3
REMARK VINA RESULT:      -7.7      4.596      5.579
REMARK  Name = 
REMARK  4 active torsions:
REMARK  status: ('A' for Active; 'I' for Inactive)
REMARK    1  A    between atoms: C_1  and  C_2
REMARK    2  A    between atoms: N_4  and  C_5
REMARK    3  A    between atoms: C_7  and  C_8
REMARK    4  A    between atoms: C_10  and  C_11
REMARK                            x       y       z     vdW  Elec       q    Type
REMARK                         _______ _______ _______ _____ _____    ______ ____
ROOT
ATOM      1  C   UNL     1       2.170   6.545  19.839  0.00  0.00    +0.000 C 
ATOM      2  O   UNL     1       1.806   6.005  20.884  0.00  0.00    +0.000 OA
ATOM      3  N   UNL     1       2.087   7.928  19.672  0.00  0.00    +0.000 N 
ATOM      4  C   UNL     1       2.667   8.706  18.577  0.00  0.00    +0.000 C 
ATOM      5  C   UNL     1       1.545   9.222  17.689  0.00  0.00    +0.000 C 
ATOM      6  C   UNL     1       0.518   9.950  18.523  0.00  0.00    +0.000 A 
ATOM      7  N   UNL     1      -0.275  10.829  17.862  0.00  0.00    +0.000 NA
ATOM      8  C   UNL     1      -1.222  11.473  18.584  0.00  0.00    +0.000 A 
ATOM      9  C   UNL     1      -1.415  11.287  19.942  0.00  0.00    +0.000 A 
ATOM     10 CL   UNL     1      -2.628  12.154  20.790  0.00  0.00    +0.000 Cl
ATOM     11  C   UNL     1      -0.597  10.381  20.609  0.00  0.00    +0.000 A 
ATOM     12  C   UNL     1       0.383   9.683  19.895  0.00  0.00    +0.000 A 
ATOM     13  C   UNL     1       1.295   8.711  20.609  0.00  0.00    +0.000 C 
ENDROOT
BRANCH   1  16
ATOM     14  C   UNL     1       4.104   4.934  17.205  0.00  0.00    +0.000 A 
ATOM     15  C   UNL     1       4.037   5.873  18.207  0.00  0.00    +0.000 A 
ATOM     16  C   UNL     1       2.740   5.734  18.757  0.00  0.00    +0.000 A 
ATOM     17  N   UNL     1       2.099   4.702  18.182  0.00  0.00    +0.000 NA
ATOM     18  O   UNL     1       2.936   4.233  17.192  0.00  0.00    +0.000 OA
BRANCH  14  25
ATOM     19  C   UNL     1       7.316   5.054  17.842  0.00  0.00    +0.000 C 
ATOM     20  C   UNL     1       6.628   4.766  16.557  0.00  0.00    +0.000 A 
ATOM     21  N   UNL     1       7.344   4.522  15.449  0.00  0.00    +0.000 NA
ATOM     22  N   UNL     1       6.416   4.305  14.502  0.00  0.00    +0.000 N 
ATOM     23  C   UNL     1       6.806   4.098  13.128  0.00  0.00    +0.000 C 
ATOM     24  C   UNL     1       5.136   4.352  14.967  0.00  0.00    +0.000 A 
ATOM     25  C   UNL     1       5.239   4.695  16.294  0.00  0.00    +0.000 A 
ENDBRANCH  14  25
ENDBRANCH   1  16
TORSDOF 2
ENDMDL
MODEL 4
REMARK VINA RESULT:      -7.6      6.356      9.622
REMARK  Name = 
REMARK  4 active torsions:
REMARK  status: ('A' for Active; 'I' for Inactive)
REMARK    1  A    between atoms: C_1  and  C_2
REMARK    2  A    between atoms: N_4  and  C_5
REMARK    3  A    between atoms: C_7  and  C_8
REMARK    4  A    between atoms: C_10  and  C_11
REMARK                            x       y       z     vdW  Elec       q    Type
REMARK                         _______ _______ _______ _____ _____    ______ ____
ROOT
ATOM      1  C   UNL     1       1.840   8.716  18.302  0.00  0.00    +0.000 C 
ATOM      2  O   UNL     1       2.337   8.885  17.189  0.00  0.00    +0.000 OA
ATOM      3  N   UNL     1       2.299   7.712  19.156  0.00  0.00    +0.000 N 
ATOM      4  C   UNL     1       1.940   7.538  20.563  0.00  0.00    +0.000 C 
ATOM      5  C   UNL     1       1.063   6.302  20.700  0.00  0.00    +0.000 C 
ATOM      6  C   UNL     1       1.738   5.115  20.056  0.00  0.00    +0.000 A 
ATOM      7  N   UNL     1       1.324   3.892  20.472  0.00  0.00    +0.000 NA
ATOM      8  C   UNL     1       1.894   2.813  19.888  0.00  0.00    +0.000 A 
ATOM      9  C   UNL     1       2.869   2.891  18.908  0.00  0.00    +0.000 A 
ATOM     10 CL   UNL     1       3.555   1.474  18.228  0.00  0.00    +0.000 Cl
ATOM     11  C   UNL     1       3.285   4.151  18.488  0.00  0.00    +0.000 A 
ATOM     12  C   UNL     1       2.707   5.292  19.055  0.00  0.00    +0.000 A 
ATOM     13  C   UNL     1       3.162   6.668  18.624  0.00  0.00    +0.000 C 
ENDROOT
BRANCH   1  16
ATOM     14  C   UNL     1      -0.461  10.967  20.009  0.00  0.00    +0.000 A 
ATOM     15  C   UNL     1       0.743  10.304  19.998  0.00  0.00    +0.000 A 
ATOM     16  C   UNL     1       0.769   9.605  18.767  0.00  0.00    +0.000 A 
ATOM     17  N   UNL     1      -0.317   9.911  18.036  0.00  0.00    +0.000 NA
ATOM     18  O   UNL     1      -1.097  10.726  18.829  0.00  0.00    +0.000 OA
BRANCH  14  25
ATOM     19  C   UNL     1      -0.794  10.264  23.192  0.00  0.00    +0.000 C 
ATOM     20  C   UNL     1      -1.160  11.508  22.466  0.00  0.00    +0.000 A 
ATOM     21  N   UNL     1      -1.723  12.533  23.125  0.00  0.00    +0.000 NA
ATOM     22  N   UNL     1      -1.910  13.467  22.177  0.00  0.00    +0.000 N 
ATOM     23  C   UNL     1      -2.591  14.700  22.490  0.00  0.00    +0.000 C 
ATOM     24  C   UNL     1      -1.447  13.102  20.949  0.00  0.00    +0.000 A 
ATOM     25  C   UNL     1      -0.994  11.812  21.094  0.00  0.00    +0.000 A 
ENDBRANCH  14  25
ENDBRANCH   1  16
TORSDOF 2
ENDMDL
MODEL 5
REMARK VINA RESULT:      -7.6      6.600      9.365
REMARK  Name = 
REMARK  4 active torsions:
REMARK  status: ('A' for Active; 'I' for Inactive)
REMARK    1  A    between atoms: C_1  and  C_2
REMARK    2  A    between atoms: N_4  and  C_5
REMARK    3  A    between atoms: C_7  and  C_8
REMARK    4  A    between atoms: C_10  and  C_11
REMARK                            x       y       z     vdW  Elec       q    Type
REMARK                         _______ _______ _______ _____ _____    ______ ____
ROOT
ATOM      1  C   UNL     1       1.757   9.014  18.243  0.00  0.00    +0.000 C 
ATOM      2  O   UNL     1       2.210   9.116  17.103  0.00  0.00    +0.000 OA
ATOM      3  N   UNL     1       2.203   8.017  19.112  0.00  0.00    +0.000 N 
ATOM      4  C   UNL     1       1.901   7.912  20.540  0.00  0.00    +0.000 C 
ATOM      5  C   UNL     1       0.968   6.731  20.763  0.00  0.00    +0.000 C 
ATOM      6  C   UNL     1       1.549   5.487  20.134  0.00  0.00    +0.000 A 
ATOM      7  N   UNL     1       1.091   4.304  20.614  0.00  0.00    +0.000 NA
ATOM      8  C   UNL     1       1.577   3.175  20.046  0.00  0.00    +0.000 A 
ATOM      9  C   UNL     1       2.507   3.167  19.021  0.00  0.00    +0.000 A 
ATOM     10 CL   UNL     1       3.086   1.692  18.364  0.00  0.00    +0.000 Cl
ATOM     11  C   UNL     1       2.968   4.386  18.535  0.00  0.00    +0.000 A 
ATOM     12  C   UNL     1       2.478   5.576  19.084  0.00  0.00    +0.000 A 
ATOM     13  C   UNL     1       2.984   6.910  18.582  0.00  0.00    +0.000 C 
ENDROOT
BRANCH   1  16
ATOM     14  C   UNL     1      -1.136  11.088  19.018  0.00  0.00    +0.000 A 
ATOM     15  C   UNL     1      -0.613   9.999  18.365  0.00  0.00    +0.000 A 
ATOM     16  C   UNL     1       0.757   9.975  18.721  0.00  0.00    +0.000 A 
ATOM     17  N   UNL     1       1.020  10.941  19.618  0.00  0.00    +0.000 NA
ATOM     18  O   UNL     1      -0.150  11.654  19.770  0.00  0.00    +0.000 OA
BRANCH  14  25
ATOM     19  C   UNL     1      -2.807  12.864  21.208  0.00  0.00    +0.000 C 
ATOM     20  C   UNL     1      -3.260  12.326  19.899  0.00  0.00    +0.000 A 
ATOM     21  N   UNL     1      -4.517  12.538  19.482  0.00  0.00    +0.000 NA
ATOM     22  N   UNL     1      -4.572  11.927  18.286  0.00  0.00    +0.000 N 
ATOM     23  C   UNL     1      -5.815  11.856  17.557  0.00  0.00    +0.000 C 
ATOM     24  C   UNL     1      -3.389  11.374  17.899  0.00  0.00    +0.000 A 
ATOM     25  C   UNL     1      -2.526  11.577  18.948  0.00  0.00    +0.000 A 
ENDBRANCH  14  25
ENDBRANCH   1  16
TORSDOF 2
ENDMDL
MODEL 6
REMARK VINA RESULT:      -7.5      6.723      9.991
REMARK  Name = 
REMARK  4 active torsions:
REMARK  status: ('A' for Active; 'I' for Inactive)
REMARK    1  A    between atoms: C_1  and  C_2
REMARK    2  A    between atoms: N_4  and  C_5
REMARK    3  A    between atoms: C_7  and  C_8
REMARK    4  A    between atoms: C_10  and  C_11
REMARK                            x       y       z     vdW  Elec       q    Type
REMARK                         _______ _______ _______ _____ _____    ______ ____
ROOT
ATOM      1  C   UNL     1       1.566   9.152  18.518  0.00  0.00    +0.000 C 
ATOM      2  O   UNL     1       1.857   9.367  17.341  0.00  0.00    +0.000 OA
ATOM      3  N   UNL     1       2.109   8.070  19.212  0.00  0.00    +0.000 N 
ATOM      4  C   UNL     1       2.009   7.823  20.650  0.00  0.00    +0.000 C 
ATOM      5  C   UNL     1       1.093   6.632  20.885  0.00  0.00    +0.000 C 
ATOM      6  C   UNL     1       1.554   5.454  20.060  0.00  0.00    +0.000 A 
ATOM      7  N   UNL     1       1.145   4.231  20.480  0.00  0.00    +0.000 NA
ATOM      8  C   UNL     1       1.522   3.163  19.740  0.00  0.00    +0.000 A 
ATOM      9  C   UNL     1       2.299   3.252  18.597  0.00  0.00    +0.000 A 
ATOM     10 CL   UNL     1       2.750   1.848  17.722  0.00  0.00    +0.000 Cl
ATOM     11  C   UNL     1       2.712   4.512  18.175  0.00  0.00    +0.000 A 
ATOM     12  C   UNL     1       2.328   5.643  18.903  0.00  0.00    +0.000 A 
ATOM     13  C   UNL     1       2.786   7.017  18.469  0.00  0.00    +0.000 C 
ENDROOT
BRANCH   1  16
ATOM     14  C   UNL     1      -0.128  11.630  20.582  0.00  0.00    +0.000 A 
ATOM     15  C   UNL     1       1.048  11.060  20.158  0.00  0.00    +0.000 A 
ATOM     16  C   UNL     1       0.663  10.067  19.226  0.00  0.00    +0.000 A 
ATOM     17  N   UNL     1      -0.666  10.106  19.028  0.00  0.00    +0.000 NA
ATOM     18  O   UNL     1      -1.157  11.052  19.902  0.00  0.00    +0.000 OA
BRANCH  14  25
ATOM     19  C   UNL     1      -1.970  11.655  23.292  0.00  0.00    +0.000 C 
ATOM     20  C   UNL     1      -1.090  12.722  22.751  0.00  0.00    +0.000 A 
ATOM     21  N   UNL     1      -0.984  13.897  23.389  0.00  0.00    +0.000 NA
ATOM     22  N   UNL     1      -0.122  14.601  22.636  0.00  0.00    +0.000 N 
ATOM     23  C   UNL     1       0.177  15.976  22.958  0.00  0.00    +0.000 C 
ATOM     24  C   UNL     1       0.366  13.909  21.570  0.00  0.00    +0.000 A 
ATOM     25  C   UNL     1      -0.280  12.696  21.590  0.00  0.00    +0.000 A 
ENDBRANCH  14  25
ENDBRANCH   1  16
TORSDOF 2
ENDMDL
MODEL 7
REMARK VINA RESULT:      -7.4      5.905      7.265
REMARK  Name = 
REMARK  4 active torsions:
REMARK  status: ('A' for Active; 'I' for Inactive)
REMARK    1  A    between atoms: C_1  and  C_2
REMARK    2  A    between atoms: N_4  and  C_5
REMARK    3  A    between atoms: C_7  and  C_8
REMARK    4  A    between atoms: C_10  and  C_11
REMARK                            x       y       z     vdW  Elec       q    Type
REMARK                         _______ _______ _______ _____ _____    ______ ____
ROOT
ATOM      1  C   UNL     1       1.388   8.725  20.839  0.00  0.00    +0.000 C 
ATOM      2  O   UNL     1       1.459   8.860  22.061  0.00  0.00    +0.000 OA
ATOM      3  N   UNL     1       0.905   9.749  20.024  0.00  0.00    +0.000 N 
ATOM      4  C   UNL     1       0.960   9.794  18.563  0.00  0.00    +0.000 C 
ATOM      5  C   UNL     1      -0.447   9.622  18.010  0.00  0.00    +0.000 C 
ATOM      6  C   UNL     1      -1.380  10.622  18.651  0.00  0.00    +0.000 A 
ATOM      7  N   UNL     1      -2.518  10.902  17.969  0.00  0.00    +0.000 NA
ATOM      8  C   UNL     1      -3.383  11.775  18.538  0.00  0.00    +0.000 A 
ATOM      9  C   UNL     1      -3.165  12.391  19.758  0.00  0.00    +0.000 A 
ATOM     10 CL   UNL     1      -4.304  13.500  20.404  0.00  0.00    +0.000 Cl
ATOM     11  C   UNL     1      -1.995  12.096  20.449  0.00  0.00    +0.000 A 
ATOM     12  C   UNL     1      -1.083  11.186  19.903  0.00  0.00    +0.000 A 
ATOM     13  C   UNL     1       0.204  10.870  20.632  0.00  0.00    +0.000 C 
ENDROOT
BRANCH   1  16
ATOM     14  C   UNL     1       2.857   6.038  18.866  0.00  0.00    +0.000 A 
ATOM     15  C   UNL     1       2.754   7.383  19.127  0.00  0.00    +0.000 A 
ATOM     16  C   UNL     1       1.854   7.481  20.214  0.00  0.00    +0.000 A 
ATOM     17  N   UNL     1       1.511   6.256  20.646  0.00  0.00    +0.000 NA
ATOM     18  O   UNL     1       2.107   5.363  19.780  0.00  0.00    +0.000 OA
BRANCH  14  25
ATOM     19  C   UNL     1       2.528   3.053  17.554  0.00  0.00    +0.000 C 
ATOM     20  C   UNL     1       3.525   4.108  17.238  0.00  0.00    +0.000 A 
ATOM     21  N   UNL     1       4.468   3.888  16.309  0.00  0.00    +0.000 NA
ATOM     22  N   UNL     1       5.175   5.031  16.285  0.00  0.00    +0.000 N 
ATOM     23  C   UNL     1       6.353   5.145  15.459  0.00  0.00    +0.000 C 
ATOM     24  C   UNL     1       4.696   5.990  17.125  0.00  0.00    +0.000 A 
ATOM     25  C   UNL     1       3.649   5.403  17.795  0.00  0.00    +0.000 A 
ENDBRANCH  14  25
ENDBRANCH   1  16
TORSDOF 2
ENDMDL
MODEL 8
REMARK VINA RESULT:      -7.4      6.512      7.977
REMARK  Name = 
REMARK  4 active torsions:
REMARK  status: ('A' for Active; 'I' for Inactive)
REMARK    1  A    between atoms: C_1  and  C_2
REMARK    2  A    between atoms: N_4  and  C_5
REMARK    3  A    between atoms: C_7  and  C_8
REMARK    4  A    between atoms: C_10  and  C_11
REMARK                            x       y       z     vdW  Elec       q    Type
REMARK                         _______ _______ _______ _____ _____    ______ ____
ROOT
ATOM      1  C   UNL     1       0.847   9.766  20.704  0.00  0.00    +0.000 C 
ATOM      2  O   UNL     1       1.029  10.197  21.843  0.00  0.00    +0.000 OA
ATOM      3  N   UNL     1       0.152  10.512  19.751  0.00  0.00    +0.000 N 
ATOM      4  C   UNL     1       0.046  10.211  18.323  0.00  0.00    +0.000 C 
ATOM      5  C   UNL     1      -1.378   9.772  18.016  0.00  0.00    +0.000 C 
ATOM      6  C   UNL     1      -2.358  10.798  18.533  0.00  0.00    +0.000 A 
ATOM      7  N   UNL     1      -3.589  10.791  17.963  0.00  0.00    +0.000 NA
ATOM      8  C   UNL     1      -4.493  11.683  18.430  0.00  0.00    +0.000 A 
ATOM      9  C   UNL     1      -4.229  12.593  19.440  0.00  0.00    +0.000 A 
ATOM     10 CL   UNL     1      -5.425  13.704  19.965  0.00  0.00    +0.000 Cl
ATOM     11  C   UNL     1      -2.963  12.590  20.018  0.00  0.00    +0.000 A 
ATOM     12  C   UNL     1      -2.006  11.672  19.574  0.00  0.00    +0.000 A 
ATOM     13  C   UNL     1      -0.619  11.669  20.178  0.00  0.00    +0.000 C 
ENDROOT
BRANCH   1  16
ATOM     14  C   UNL     1       2.433   6.846  19.211  0.00  0.00    +0.000 A 
ATOM     15  C   UNL     1       2.188   8.198  19.174  0.00  0.00    +0.000 A 
ATOM     16  C   UNL     1       1.399   8.462  20.319  0.00  0.00    +0.000 A 
ATOM     17  N   UNL     1       1.261   7.347  21.056  0.00  0.00    +0.000 NA
ATOM     18  O   UNL     1       1.873   6.337  20.343  0.00  0.00    +0.000 OA
BRANCH  14  25
ATOM     19  C   UNL     1       1.725   3.902  17.959  0.00  0.00    +0.000 C 
ATOM     20  C   UNL     1       2.895   4.777  17.687  0.00  0.00    +0.000 A 
ATOM     21  N   UNL     1       3.850   4.379  16.833  0.00  0.00    +0.000 NA
ATOM     22  N   UNL     1       4.729   5.396  16.829  0.00  0.00    +0.000 N 
ATOM     23  C   UNL     1       5.961   5.294  16.086  0.00  0.00    +0.000 C 
ATOM     24  C   UNL     1       4.353   6.448  17.607  0.00  0.00    +0.000 A 
ATOM     25  C   UNL     1       3.184   6.057  18.216  0.00  0.00    +0.000 A 
ENDBRANCH  14  25
ENDBRANCH   1  16
TORSDOF 2
ENDMDL
MODEL 9
REMARK VINA RESULT:      -7.3      7.508      9.416
REMARK  Name = 
REMARK  4 active torsions:
REMARK  status: ('A' for Active; 'I' for Inactive)
REMARK    1  A    between atoms: C_1  and  C_2
REMARK    2  A    between atoms: N_4  and  C_5
REMARK    3  A    between atoms: C_7  and  C_8
REMARK    4  A    between atoms: C_10  and  C_11
REMARK                            x       y       z     vdW  Elec       q    Type
REMARK                         _______ _______ _______ _____ _____    ______ ____
ROOT
ATOM      1  C   UNL     1      -0.109  10.776  18.815  0.00  0.00    +0.000 C 
ATOM      2  O   UNL     1      -1.070  10.681  18.051  0.00  0.00    +0.000 OA
ATOM      3  N   UNL     1       0.122  11.942  19.546  0.00  0.00    +0.000 N 
ATOM      4  C   UNL     1       1.094  12.110  20.626  0.00  0.00    +0.000 C 
ATOM      5  C   UNL     1       2.220  13.011  20.141  0.00  0.00    +0.000 C 
ATOM      6  C   UNL     1       1.651  14.293  19.581  0.00  0.00    +0.000 A 
ATOM      7  N   UNL     1       2.497  15.352  19.531  0.00  0.00    +0.000 NA
ATOM      8  C   UNL     1       2.018  16.504  19.005  0.00  0.00    +0.000 A 
ATOM      9  C   UNL     1       0.727  16.656  18.530  0.00  0.00    +0.000 A 
ATOM     10 CL   UNL     1       0.190  18.155  17.893  0.00  0.00    +0.000 Cl
ATOM     11  C   UNL     1      -0.132  15.563  18.585  0.00  0.00    +0.000 A 
ATOM     12  C   UNL     1       0.331  14.349  19.105  0.00  0.00    +0.000 A 
ATOM     13  C   UNL     1      -0.596  13.157  19.191  0.00  0.00    +0.000 C 
ENDROOT
BRANCH   1  16
ATOM     14  C   UNL     1       2.212   7.976  18.608  0.00  0.00    +0.000 A 
ATOM     15  C   UNL     1       1.559   9.009  17.980  0.00  0.00    +0.000 A 
ATOM     16  C   UNL     1       0.796   9.635  18.995  0.00  0.00    +0.000 A 
ATOM     17  N   UNL     1       1.055   9.070  20.187  0.00  0.00    +0.000 NA
ATOM     18  O   UNL     1       1.906   8.014  19.934  0.00  0.00    +0.000 OA
BRANCH  14  25
ATOM     19  C   UNL     1       1.896   4.718  18.445  0.00  0.00    +0.000 C 
ATOM     20  C   UNL     1       2.990   5.578  17.925  0.00  0.00    +0.000 A 
ATOM     21  N   UNL     1       4.041   5.027  17.299  0.00  0.00    +0.000 NA
ATOM     22  N   UNL     1       4.812   6.077  16.969  0.00  0.00    +0.000 N 
ATOM     23  C   UNL     1       6.101   5.874  16.353  0.00  0.00    +0.000 C 
ATOM     24  C   UNL     1       4.276   7.281  17.315  0.00  0.00    +0.000 A 
ATOM     25  C   UNL     1       3.110   6.987  17.980  0.00  0.00    +0.000 A 
ENDBRANCH  14  25
ENDBRANCH   1  16
TORSDOF 2
ENDMDL
