MODEL 1
REMARK VINA RESULT:      -7.2      0.000      0.000
REMARK  Name = 
REMARK  6 active torsions:
REMARK  status: ('A' for Active; 'I' for Inactive)
REMARK    1  A    between atoms: C_1  and  C_2
REMARK    2  A    between atoms: C_2  and  N_3
REMARK    3  A    between atoms: C_2  and  C_14
REMARK    4  A    between atoms: N_3  and  S_4
REMARK    5  A    between atoms: S_4  and  N_7
REMARK    6  A    between atoms: C_12  and  C_13
REMARK                            x       y       z     vdW  Elec       q    Type
REMARK                         _______ _______ _______ _____ _____    ______ ____
ROOT
ATOM      1  S   UNL     1       4.281   2.769  18.949  0.00  0.00    +0.000 S 
ATOM      2  O   UNL     1       3.889   1.814  17.935  0.00  0.00    +0.000 OA
ATOM      3  O   UNL     1       4.550   2.352  20.301  0.00  0.00    +0.000 OA
ENDROOT
BRANCH   1   4
ATOM      4  N   UNL     1       3.128   4.014  18.972  0.00  0.00    +0.000 NA
ATOM      5  C   UNL     1       1.843   3.631  18.311  0.00  0.00    +0.000 C 
ATOM      6  C   UNL     1       1.006   2.726  19.209  0.00  0.00    +0.000 C 
ATOM      7  C   UNL     1       0.801   3.298  20.611  0.00  0.00    +0.000 C 
ATOM      8  C   UNL     1       2.074   3.869  21.235  0.00  0.00    +0.000 C 
ATOM      9  C   UNL     1       2.895   4.728  20.270  0.00  0.00    +0.000 C 
ATOM     10  C   UNL     1       2.223   6.087  20.019  0.00  0.00    +0.000 C 
ENDBRANCH   1   4
BRANCH   1  11
ATOM     11  N   UNL     1       5.618   3.582  18.353  0.00  0.00    +0.000 NA
ATOM     12  H   UNL     1       6.107   3.964  19.163  0.00  0.00    +0.000 HD
BRANCH  11  14
ATOM     13  C   UNL     1       5.307   4.290  15.948  0.00  0.00    +0.000 C 
ATOM     14  C   UNL     1       5.299   4.701  17.420  0.00  0.00    +0.000 C 
BRANCH  14  15
ATOM     15  C   UNL     1       6.340   5.778  17.645  0.00  0.00    +0.000 A 
ATOM     16  C   UNL     1       6.502   6.982  16.981  0.00  0.00    +0.000 A 
ATOM     17  C   UNL     1       7.546   7.775  17.536  0.00  0.00    +0.000 A 
ATOM     18  C   UNL     1       8.166   7.144  18.590  0.00  0.00    +0.000 A 
ATOM     19  S   UNL     1       7.495   5.604  18.902  0.00  0.00    +0.000 S 
ENDBRANCH  14  15
ENDBRANCH  11  14
ENDBRANCH   1  11
TORSDOF 4
ENDMDL
MODEL 2
REMARK VINA RESULT:      -7.0      1.005      1.205
REMARK  Name = 
REMARK  6 active torsions:
REMARK  status: ('A' for Active; 'I' for Inactive)
REMARK    1  A    between atoms: C_1  and  C_2
REMARK    2  A    between atoms: C_2  and  N_3
REMARK    3  A    between atoms: C_2  and  C_14
REMARK    4  A    between atoms: N_3  and  S_4
REMARK    5  A    between atoms: S_4  and  N_7
REMARK    6  A    between atoms: C_12  and  C_13
REMARK                            x       y       z     vdW  Elec       q    Type
REMARK                         _______ _______ _______ _____ _____    ______ ____
ROOT
ATOM      1  S   UNL     1       4.055   2.881  18.481  0.00  0.00    +0.000 S 
ATOM      2  O   UNL     1       3.280   1.754  18.011  0.00  0.00    +0.000 OA
ATOM      3  O   UNL     1       4.760   2.830  19.736  0.00  0.00    +0.000 OA
ENDROOT
BRANCH   1   4
ATOM      4  N   UNL     1       3.052   4.251  18.466  0.00  0.00    +0.000 NA
ATOM      5  C   UNL     1       1.647   3.939  18.058  0.00  0.00    +0.000 C 
ATOM      6  C   UNL     1       0.873   3.283  19.197  0.00  0.00    +0.000 C 
ATOM      7  C   UNL     1       0.949   4.070  20.505  0.00  0.00    +0.000 C 
ATOM      8  C   UNL     1       2.355   4.562  20.847  0.00  0.00    +0.000 C 
ATOM      9  C   UNL     1       3.098   5.166  19.653  0.00  0.00    +0.000 C 
ATOM     10  C   UNL     1       2.536   6.548  19.283  0.00  0.00    +0.000 C 
ENDBRANCH   1   4
BRANCH   1  11
ATOM     11  N   UNL     1       5.138   3.264  17.262  0.00  0.00    +0.000 NA
ATOM     12  H   UNL     1       6.069   3.095  17.642  0.00  0.00    +0.000 HD
BRANCH  11  14
ATOM     13  C   UNL     1       5.249   4.826  15.280  0.00  0.00    +0.000 C 
ATOM     14  C   UNL     1       5.066   4.677  16.790  0.00  0.00    +0.000 C 
BRANCH  14  15
ATOM     15  C   UNL     1       6.162   5.440  17.505  0.00  0.00    +0.000 A 
ATOM     16  C   UNL     1       7.059   4.986  18.456  0.00  0.00    +0.000 A 
ATOM     17  C   UNL     1       8.004   5.981  18.835  0.00  0.00    +0.000 A 
ATOM     18  C   UNL     1       7.786   7.172  18.181  0.00  0.00    +0.000 A 
ATOM     19  S   UNL     1       6.446   7.089  17.124  0.00  0.00    +0.000 S 
ENDBRANCH  14  15
ENDBRANCH  11  14
ENDBRANCH   1  11
TORSDOF 4
ENDMDL
MODEL 3
REMARK VINA RESULT:      -6.8      1.595      2.355
REMARK  Name = 
REMARK  6 active torsions:
REMARK  status: ('A' for Active; 'I' for Inactive)
REMARK    1  A    between atoms: C_1  and  C_2
REMARK    2  A    between atoms: C_2  and  N_3
REMARK    3  A    between atoms: C_2  and  C_14
REMARK    4  A    between atoms: N_3  and  S_4
REMARK    5  A    between atoms: S_4  and  N_7
REMARK    6  A    between atoms: C_12  and  C_13
REMARK                            x       y       z     vdW  Elec       q    Type
REMARK                         _______ _______ _______ _____ _____    ______ ____
ROOT
ATOM      1  S   UNL     1       3.060   3.342  17.706  0.00  0.00    +0.000 S 
ATOM      2  O   UNL     1       2.638   4.652  17.261  0.00  0.00    +0.000 OA
ATOM      3  O   UNL     1       2.329   2.157  17.335  0.00  0.00    +0.000 OA
ENDROOT
BRANCH   1   4
ATOM      4  N   UNL     1       3.221   3.387  19.395  0.00  0.00    +0.000 NA
ATOM      5  C   UNL     1       3.795   4.676  19.890  0.00  0.00    +0.000 C 
ATOM      6  C   UNL     1       2.752   5.789  19.876  0.00  0.00    +0.000 C 
ATOM      7  C   UNL     1       1.457   5.405  20.591  0.00  0.00    +0.000 C 
ATOM      8  C   UNL     1       0.950   4.007  20.239  0.00  0.00    +0.000 C 
ATOM      9  C   UNL     1       2.052   2.944  20.222  0.00  0.00    +0.000 C 
ATOM     10  C   UNL     1       2.509   2.588  21.645  0.00  0.00    +0.000 C 
ENDBRANCH   1   4
BRANCH   1  11
ATOM     11  N   UNL     1       4.658   3.165  17.237  0.00  0.00    +0.000 NA
ATOM     12  H   UNL     1       5.211   3.162  18.095  0.00  0.00    +0.000 HD
BRANCH  11  14
ATOM     13  C   UNL     1       5.892   3.732  15.107  0.00  0.00    +0.000 C 
ATOM     14  C   UNL     1       5.168   4.250  16.349  0.00  0.00    +0.000 C 
BRANCH  14  15
ATOM     15  C   UNL     1       6.123   5.087  17.174  0.00  0.00    +0.000 A 
ATOM     16  C   UNL     1       7.080   4.671  18.084  0.00  0.00    +0.000 A 
ATOM     17  C   UNL     1       7.850   5.752  18.599  0.00  0.00    +0.000 A 
ATOM     18  C   UNL     1       7.444   6.963  18.086  0.00  0.00    +0.000 A 
ATOM     19  S   UNL     1       6.138   6.794  16.996  0.00  0.00    +0.000 S 
ENDBRANCH  14  15
ENDBRANCH  11  14
ENDBRANCH   1  11
TORSDOF 4
ENDMDL
MODEL 4
REMARK VINA RESULT:      -6.8      1.488      2.185
REMARK  Name = 
REMARK  6 active torsions:
REMARK  status: ('A' for Active; 'I' for Inactive)
REMARK    1  A    between atoms: C_1  and  C_2
REMARK    2  A    between atoms: C_2  and  N_3
REMARK    3  A    between atoms: C_2  and  C_14
REMARK    4  A    between atoms: N_3  and  S_4
REMARK    5  A    between atoms: S_4  and  N_7
REMARK    6  A    between atoms: C_12  and  C_13
REMARK                            x       y       z     vdW  Elec       q    Type
REMARK                         _______ _______ _______ _____ _____    ______ ____
ROOT
ATOM      1  S   UNL     1       3.096   3.371  17.656  0.00  0.00    +0.000 S 
ATOM      2  O   UNL     1       2.595   4.659  17.231  0.00  0.00    +0.000 OA
ATOM      3  O   UNL     1       2.424   2.151  17.286  0.00  0.00    +0.000 OA
ENDROOT
BRANCH   1   4
ATOM      4  N   UNL     1       3.284   3.410  19.342  0.00  0.00    +0.000 NA
ATOM      5  C   UNL     1       3.907   4.680  19.829  0.00  0.00    +0.000 C 
ATOM      6  C   UNL     1       2.900   5.826  19.830  0.00  0.00    +0.000 C 
ATOM      7  C   UNL     1       1.604   5.483  20.565  0.00  0.00    +0.000 C 
ATOM      8  C   UNL     1       1.047   4.102  20.220  0.00  0.00    +0.000 C 
ATOM      9  C   UNL     1       2.113   3.005  20.187  0.00  0.00    +0.000 C 
ATOM     10  C   UNL     1       2.580   2.633  21.603  0.00  0.00    +0.000 C 
ENDBRANCH   1   4
BRANCH   1  11
ATOM     11  N   UNL     1       4.693   3.287  17.158  0.00  0.00    +0.000 NA
ATOM     12  H   UNL     1       5.262   3.448  17.990  0.00  0.00    +0.000 HD
BRANCH  11  14
ATOM     13  C   UNL     1       5.811   3.684  14.928  0.00  0.00    +0.000 C 
ATOM     14  C   UNL     1       5.073   4.290  16.122  0.00  0.00    +0.000 C 
BRANCH  14  15
ATOM     15  C   UNL     1       5.966   5.310  16.797  0.00  0.00    +0.000 A 
ATOM     16  C   UNL     1       5.883   6.691  16.769  0.00  0.00    +0.000 A 
ATOM     17  C   UNL     1       6.854   7.314  17.603  0.00  0.00    +0.000 A 
ATOM     18  C   UNL     1       7.665   6.391  18.225  0.00  0.00    +0.000 A 
ATOM     19  S   UNL     1       7.259   4.788  17.798  0.00  0.00    +0.000 S 
ENDBRANCH  14  15
ENDBRANCH  11  14
ENDBRANCH   1  11
TORSDOF 4
ENDMDL
MODEL 5
REMARK VINA RESULT:      -6.7      1.770      2.307
REMARK  Name = 
REMARK  6 active torsions:
REMARK  status: ('A' for Active; 'I' for Inactive)
REMARK    1  A    between atoms: C_1  and  C_2
REMARK    2  A    between atoms: C_2  and  N_3
REMARK    3  A    between atoms: C_2  and  C_14
REMARK    4  A    between atoms: N_3  and  S_4
REMARK    5  A    between atoms: S_4  and  N_7
REMARK    6  A    between atoms: C_12  and  C_13
REMARK                            x       y       z     vdW  Elec       q    Type
REMARK                         _______ _______ _______ _____ _____    ______ ____
ROOT
ATOM      1  S   UNL     1       3.116   4.408  17.596  0.00  0.00    +0.000 S 
ATOM      2  O   UNL     1       2.963   5.846  17.585  0.00  0.00    +0.000 OA
ATOM      3  O   UNL     1       2.077   3.543  17.099  0.00  0.00    +0.000 OA
ENDROOT
BRANCH   1   4
ATOM      4  N   UNL     1       3.522   3.935  19.175  0.00  0.00    +0.000 NA
ATOM      5  C   UNL     1       3.010   4.880  20.215  0.00  0.00    +0.000 C 
ATOM      6  C   UNL     1       1.516   4.687  20.452  0.00  0.00    +0.000 C 
ATOM      7  C   UNL     1       1.138   3.234  20.736  0.00  0.00    +0.000 C 
ATOM      8  C   UNL     1       1.803   2.229  19.795  0.00  0.00    +0.000 C 
ATOM      9  C   UNL     1       3.290   2.505  19.559  0.00  0.00    +0.000 C 
ATOM     10  C   UNL     1       4.130   2.140  20.793  0.00  0.00    +0.000 C 
ENDBRANCH   1   4
BRANCH   1  11
ATOM     11  N   UNL     1       4.542   4.069  16.785  0.00  0.00    +0.000 NA
ATOM     12  H   UNL     1       5.202   3.738  17.490  0.00  0.00    +0.000 HD
BRANCH  11  14
ATOM     13  C   UNL     1       5.741   4.883  14.716  0.00  0.00    +0.000 C 
ATOM     14  C   UNL     1       5.147   5.236  16.080  0.00  0.00    +0.000 C 
BRANCH  14  15
ATOM     15  C   UNL     1       6.239   5.780  16.976  0.00  0.00    +0.000 A 
ATOM     16  C   UNL     1       6.706   7.078  17.087  0.00  0.00    +0.000 A 
ATOM     17  C   UNL     1       7.688   7.220  18.108  0.00  0.00    +0.000 A 
ATOM     18  C   UNL     1       7.960   6.023  18.729  0.00  0.00    +0.000 A 
ATOM     19  S   UNL     1       7.040   4.738  18.080  0.00  0.00    +0.000 S 
ENDBRANCH  14  15
ENDBRANCH  11  14
ENDBRANCH   1  11
TORSDOF 4
ENDMDL
MODEL 6
REMARK VINA RESULT:      -6.7      1.988      2.547
REMARK  Name = 
REMARK  6 active torsions:
REMARK  status: ('A' for Active; 'I' for Inactive)
REMARK    1  A    between atoms: C_1  and  C_2
REMARK    2  A    between atoms: C_2  and  N_3
REMARK    3  A    between atoms: C_2  and  C_14
REMARK    4  A    between atoms: N_3  and  S_4
REMARK    5  A    between atoms: S_4  and  N_7
REMARK    6  A    between atoms: C_12  and  C_13
REMARK                            x       y       z     vdW  Elec       q    Type
REMARK                         _______ _______ _______ _____ _____    ______ ____
ROOT
ATOM      1  S   UNL     1       2.894   4.765  17.772  0.00  0.00    +0.000 S 
ATOM      2  O   UNL     1       2.835   6.207  17.878  0.00  0.00    +0.000 OA
ATOM      3  O   UNL     1       1.779   4.009  17.263  0.00  0.00    +0.000 OA
ENDROOT
BRANCH   1   4
ATOM      4  N   UNL     1       3.337   4.145  19.289  0.00  0.00    +0.000 NA
ATOM      5  C   UNL     1       2.689   4.869  20.426  0.00  0.00    +0.000 C 
ATOM      6  C   UNL     1       1.231   4.453  20.589  0.00  0.00    +0.000 C 
ATOM      7  C   UNL     1       1.046   2.938  20.670  0.00  0.00    +0.000 C 
ATOM      8  C   UNL     1       1.852   2.162  19.629  0.00  0.00    +0.000 C 
ATOM      9  C   UNL     1       3.292   2.658  19.477  0.00  0.00    +0.000 C 
ATOM     10  C   UNL     1       4.156   2.245  20.679  0.00  0.00    +0.000 C 
ENDBRANCH   1   4
BRANCH   1  11
ATOM     11  N   UNL     1       4.257   4.403  16.868  0.00  0.00    +0.000 NA
ATOM     12  H   UNL     1       4.867   3.856  17.476  0.00  0.00    +0.000 HD
BRANCH  11  14
ATOM     13  C   UNL     1       5.615   5.407  14.990  0.00  0.00    +0.000 C 
ATOM     14  C   UNL     1       5.013   5.593  16.383  0.00  0.00    +0.000 C 
BRANCH  14  15
ATOM     15  C   UNL     1       6.125   5.850  17.379  0.00  0.00    +0.000 A 
ATOM     16  C   UNL     1       6.602   5.023  18.381  0.00  0.00    +0.000 A 
ATOM     17  C   UNL     1       7.722   5.579  19.061  0.00  0.00    +0.000 A 
ATOM     18  C   UNL     1       8.052   6.824  18.575  0.00  0.00    +0.000 A 
ATOM     19  S   UNL     1       7.012   7.318  17.313  0.00  0.00    +0.000 S 
ENDBRANCH  14  15
ENDBRANCH  11  14
ENDBRANCH   1  11
TORSDOF 4
ENDMDL
MODEL 7
REMARK VINA RESULT:      -6.7      1.611      5.688
REMARK  Name = 
REMARK  6 active torsions:
REMARK  status: ('A' for Active; 'I' for Inactive)
REMARK    1  A    between atoms: C_1  and  C_2
REMARK    2  A    between atoms: C_2  and  N_3
REMARK    3  A    between atoms: C_2  and  C_14
REMARK    4  A    between atoms: N_3  and  S_4
REMARK    5  A    between atoms: S_4  and  N_7
REMARK    6  A    between atoms: C_12  and  C_13
REMARK                            x       y       z     vdW  Elec       q    Type
REMARK                         _______ _______ _______ _____ _____    ______ ____
ROOT
ATOM      1  S   UNL     1       5.020   4.395  18.569  0.00  0.00    +0.000 S 
ATOM      2  O   UNL     1       5.522   3.423  19.515  0.00  0.00    +0.000 OA
ATOM      3  O   UNL     1       4.162   4.002  17.480  0.00  0.00    +0.000 OA
ENDROOT
BRANCH   1   4
ATOM      4  N   UNL     1       6.344   5.257  17.947  0.00  0.00    +0.000 NA
ATOM      5  C   UNL     1       7.208   4.428  17.051  0.00  0.00    +0.000 C 
ATOM      6  C   UNL     1       6.571   4.251  15.676  0.00  0.00    +0.000 C 
ATOM      7  C   UNL     1       6.152   5.574  15.036  0.00  0.00    +0.000 C 
ATOM      8  C   UNL     1       5.427   6.519  15.993  0.00  0.00    +0.000 C 
ATOM      9  C   UNL     1       6.086   6.617  17.371  0.00  0.00    +0.000 C 
ATOM     10  C   UNL     1       7.390   7.428  17.313  0.00  0.00    +0.000 C 
ENDBRANCH   1   4
BRANCH   1  11
ATOM     11  N   UNL     1       4.254   5.587  19.463  0.00  0.00    +0.000 NA
ATOM     12  H   UNL     1       4.323   5.301  20.440  0.00  0.00    +0.000 HD
BRANCH  11  14
ATOM     13  C   UNL     1       2.231   7.081  19.693  0.00  0.00    +0.000 C 
ATOM     14  C   UNL     1       2.815   5.787  19.127  0.00  0.00    +0.000 C 
BRANCH  14  15
ATOM     15  C   UNL     1       2.058   4.605  19.694  0.00  0.00    +0.000 A 
ATOM     16  C   UNL     1       1.185   3.744  19.052  0.00  0.00    +0.000 A 
ATOM     17  C   UNL     1       0.733   2.692  19.900  0.00  0.00    +0.000 A 
ATOM     18  C   UNL     1       1.254   2.796  21.169  0.00  0.00    +0.000 A 
ATOM     19  S   UNL     1       2.275   4.156  21.336  0.00  0.00    +0.000 S 
ENDBRANCH  14  15
ENDBRANCH  11  14
ENDBRANCH   1  11
TORSDOF 4
ENDMDL
MODEL 8
REMARK VINA RESULT:      -6.6      2.510      5.403
REMARK  Name = 
REMARK  6 active torsions:
REMARK  status: ('A' for Active; 'I' for Inactive)
REMARK    1  A    between atoms: C_1  and  C_2
REMARK    2  A    between atoms: C_2  and  N_3
REMARK    3  A    between atoms: C_2  and  C_14
REMARK    4  A    between atoms: N_3  and  S_4
REMARK    5  A    between atoms: S_4  and  N_7
REMARK    6  A    between atoms: C_12  and  C_13
REMARK                            x       y       z     vdW  Elec       q    Type
REMARK                         _______ _______ _______ _____ _____    ______ ____
ROOT
ATOM      1  S   UNL     1       4.172   4.311  18.140  0.00  0.00    +0.000 S 
ATOM      2  O   UNL     1       5.086   4.659  19.206  0.00  0.00    +0.000 OA
ATOM      3  O   UNL     1       3.637   2.979  18.021  0.00  0.00    +0.000 OA
ENDROOT
BRANCH   1   4
ATOM      4  N   UNL     1       4.890   4.753  16.666  0.00  0.00    +0.000 NA
ATOM      5  C   UNL     1       4.878   6.231  16.434  0.00  0.00    +0.000 C 
ATOM      6  C   UNL     1       5.951   6.930  17.263  0.00  0.00    +0.000 C 
ATOM      7  C   UNL     1       7.339   6.314  17.088  0.00  0.00    +0.000 C 
ATOM      8  C   UNL     1       7.345   4.787  17.135  0.00  0.00    +0.000 C 
ATOM      9  C   UNL     1       6.217   4.146  16.324  0.00  0.00    +0.000 C 
ATOM     10  C   UNL     1       6.480   4.254  14.814  0.00  0.00    +0.000 C 
ENDBRANCH   1   4
BRANCH   1  11
ATOM     11  N   UNL     1       2.904   5.403  18.217  0.00  0.00    +0.000 NA
ATOM     12  H   UNL     1       3.076   6.096  17.488  0.00  0.00    +0.000 HD
BRANCH  11  14
ATOM     13  C   UNL     1       1.857   5.396  20.516  0.00  0.00    +0.000 C 
ATOM     14  C   UNL     1       2.773   6.111  19.523  0.00  0.00    +0.000 C 
BRANCH  14  15
ATOM     15  C   UNL     1       2.216   7.488  19.229  0.00  0.00    +0.000 A 
ATOM     16  C   UNL     1       2.212   8.186  18.034  0.00  0.00    +0.000 A 
ATOM     17  C   UNL     1       1.514   9.424  18.127  0.00  0.00    +0.000 A 
ATOM     18  C   UNL     1       1.027   9.645  19.395  0.00  0.00    +0.000 A 
ATOM     19  S   UNL     1       1.416   8.371  20.465  0.00  0.00    +0.000 S 
ENDBRANCH  14  15
ENDBRANCH  11  14
ENDBRANCH   1  11
TORSDOF 4
ENDMDL
MODEL 9
REMARK VINA RESULT:      -6.6      1.520      2.181
REMARK  Name = 
REMARK  6 active torsions:
REMARK  status: ('A' for Active; 'I' for Inactive)
REMARK    1  A    between atoms: C_1  and  C_2
REMARK    2  A    between atoms: C_2  and  N_3
REMARK    3  A    between atoms: C_2  and  C_14
REMARK    4  A    between atoms: N_3  and  S_4
REMARK    5  A    between atoms: S_4  and  N_7
REMARK    6  A    between atoms: C_12  and  C_13
REMARK                            x       y       z     vdW  Elec       q    Type
REMARK                         _______ _______ _______ _____ _____    ______ ____
ROOT
ATOM      1  S   UNL     1       3.718   4.567  18.458  0.00  0.00    +0.000 S 
ATOM      2  O   UNL     1       4.262   4.981  19.733  0.00  0.00    +0.000 OA
ATOM      3  O   UNL     1       3.023   5.497  17.606  0.00  0.00    +0.000 OA
ENDROOT
BRANCH   1   4
ATOM      4  N   UNL     1       2.729   3.213  18.724  0.00  0.00    +0.000 NA
ATOM      5  C   UNL     1       3.311   2.251  19.710  0.00  0.00    +0.000 C 
ATOM      6  C   UNL     1       3.147   2.757  21.140  0.00  0.00    +0.000 C 
ATOM      7  C   UNL     1       1.709   3.149  21.475  0.00  0.00    +0.000 C 
ATOM      8  C   UNL     1       1.028   3.980  20.388  0.00  0.00    +0.000 C 
ATOM      9  C   UNL     1       1.270   3.451  18.973  0.00  0.00    +0.000 C 
ATOM     10  C   UNL     1       0.467   2.167  18.709  0.00  0.00    +0.000 C 
ENDBRANCH   1   4
BRANCH   1  11
ATOM     11  N   UNL     1       4.979   3.876  17.598  0.00  0.00    +0.000 NA
ATOM     12  H   UNL     1       5.730   3.712  18.270  0.00  0.00    +0.000 HD
BRANCH  11  14
ATOM     13  C   UNL     1       6.247   3.925  15.414  0.00  0.00    +0.000 C 
ATOM     14  C   UNL     1       5.511   4.722  16.490  0.00  0.00    +0.000 C 
BRANCH  14  15
ATOM     15  C   UNL     1       6.462   5.723  17.112  0.00  0.00    +0.000 A 
ATOM     16  C   UNL     1       6.585   7.078  16.858  0.00  0.00    +0.000 A 
ATOM     17  C   UNL     1       7.538   7.708  17.709  0.00  0.00    +0.000 A 
ATOM     18  C   UNL     1       8.131   6.812  18.568  0.00  0.00    +0.000 A 
ATOM     19  S   UNL     1       7.545   5.223  18.346  0.00  0.00    +0.000 S 
ENDBRANCH  14  15
ENDBRANCH  11  14
ENDBRANCH   1  11
TORSDOF 4
ENDMDL
