MODEL 1
REMARK VINA RESULT:      -7.0      0.000      0.000
REMARK  Name = 
REMARK  2 active torsions:
REMARK  status: ('A' for Active; 'I' for Inactive)
REMARK    1  A    between atoms: C_9  and  C_10
REMARK    2  A    between atoms: C_10  and  N_11
REMARK                            x       y       z     vdW  Elec       q    Type
REMARK                         _______ _______ _______ _____ _____    ______ ____
ROOT
ATOM      1  C   UNL     1       8.316   6.961  18.910  0.00  0.00    +0.000 A 
ATOM      2  C   UNL     1       7.913   7.850  17.911  0.00  0.00    +0.000 A 
ATOM      3  C   UNL     1       6.822   7.539  17.097  0.00  0.00    +0.000 A 
ATOM      4  C   UNL     1       6.141   6.339  17.281  0.00  0.00    +0.000 A 
ATOM      5  C   UNL     1       6.580   5.424  18.244  0.00  0.00    +0.000 A 
ATOM      6  C   UNL     1       7.649   5.746  19.077  0.00  0.00    +0.000 A 
ATOM      7  O   UNL     1       5.985   4.203  18.442  0.00  0.00    +0.000 OA
ATOM      8  C   UNL     1       5.153   3.859  17.330  0.00  0.00    +0.000 C 
ATOM      9  C   UNL     1       4.239   5.022  16.932  0.00  0.00    +0.000 C 
ATOM     10  O   UNL     1       5.041   6.132  16.489  0.00  0.00    +0.000 OA
ENDROOT
BRANCH   9  11
ATOM     11  C   UNL     1       3.285   5.425  18.090  0.00  0.00    +0.000 C 
BRANCH  11  12
ATOM     12  N   UNL     1       2.812   4.319  18.959  0.00  0.00    +0.000 NA
ATOM     13  C   UNL     1       2.748   4.714  20.372  0.00  0.00    +0.000 C 
ATOM     14  C   UNL     1       2.238   3.577  21.258  0.00  0.00    +0.000 C 
ATOM     15  C   UNL     1       0.880   3.079  20.786  0.00  0.00    +0.000 C 
ATOM     16  C   UNL     1       0.955   2.692  19.315  0.00  0.00    +0.000 C 
ATOM     17  C   UNL     1       1.506   3.841  18.471  0.00  0.00    +0.000 C 
ENDBRANCH  11  12
ENDBRANCH   9  11
TORSDOF 2
ENDMDL
MODEL 2
REMARK VINA RESULT:      -6.9      1.734      5.977
REMARK  Name = 
REMARK  2 active torsions:
REMARK  status: ('A' for Active; 'I' for Inactive)
REMARK    1  A    between atoms: C_9  and  C_10
REMARK    2  A    between atoms: C_10  and  N_11
REMARK                            x       y       z     vdW  Elec       q    Type
REMARK                         _______ _______ _______ _____ _____    ______ ____
ROOT
ATOM      1  C   UNL     1       0.763   3.148  20.797  0.00  0.00    +0.000 A 
ATOM      2  C   UNL     1       1.925   2.665  21.403  0.00  0.00    +0.000 A 
ATOM      3  C   UNL     1       3.103   2.549  20.663  0.00  0.00    +0.000 A 
ATOM      4  C   UNL     1       3.116   2.912  19.320  0.00  0.00    +0.000 A 
ATOM      5  C   UNL     1       1.938   3.344  18.699  0.00  0.00    +0.000 A 
ATOM      6  C   UNL     1       0.770   3.488  19.443  0.00  0.00    +0.000 A 
ATOM      7  O   UNL     1       1.870   3.668  17.367  0.00  0.00    +0.000 OA
ATOM      8  C   UNL     1       3.008   3.161  16.663  0.00  0.00    +0.000 C 
ATOM      9  C   UNL     1       4.313   3.491  17.395  0.00  0.00    +0.000 C 
ATOM     10  O   UNL     1       4.324   2.834  18.676  0.00  0.00    +0.000 OA
ENDROOT
BRANCH   9  11
ATOM     11  C   UNL     1       4.525   5.024  17.529  0.00  0.00    +0.000 C 
BRANCH  11  12
ATOM     12  N   UNL     1       5.935   5.484  17.581  0.00  0.00    +0.000 NA
ATOM     13  C   UNL     1       6.089   6.852  17.070  0.00  0.00    +0.000 C 
ATOM     14  C   UNL     1       7.541   7.327  17.148  0.00  0.00    +0.000 C 
ATOM     15  C   UNL     1       8.075   7.231  18.571  0.00  0.00    +0.000 C 
ATOM     16  C   UNL     1       7.890   5.814  19.096  0.00  0.00    +0.000 C 
ATOM     17  C   UNL     1       6.436   5.363  18.962  0.00  0.00    +0.000 C 
ENDBRANCH  11  12
ENDBRANCH   9  11
TORSDOF 2
ENDMDL
MODEL 3
REMARK VINA RESULT:      -6.9      2.888      4.003
REMARK  Name = 
REMARK  2 active torsions:
REMARK  status: ('A' for Active; 'I' for Inactive)
REMARK    1  A    between atoms: C_9  and  C_10
REMARK    2  A    between atoms: C_10  and  N_11
REMARK                            x       y       z     vdW  Elec       q    Type
REMARK                         _______ _______ _______ _____ _____    ______ ____
ROOT
ATOM      1  C   UNL     1       7.451   4.840  12.200  0.00  0.00    +0.000 A 
ATOM      2  C   UNL     1       6.545   3.778  12.156  0.00  0.00    +0.000 A 
ATOM      3  C   UNL     1       5.938   3.327  13.330  0.00  0.00    +0.000 A 
ATOM      4  C   UNL     1       6.240   3.936  14.544  0.00  0.00    +0.000 A 
ATOM      5  C   UNL     1       7.190   4.963  14.596  0.00  0.00    +0.000 A 
ATOM      6  C   UNL     1       7.774   5.433  13.422  0.00  0.00    +0.000 A 
ATOM      7  O   UNL     1       7.572   5.571  15.766  0.00  0.00    +0.000 OA
ATOM      8  C   UNL     1       7.175   4.788  16.896  0.00  0.00    +0.000 C 
ATOM      9  C   UNL     1       5.712   4.345  16.786  0.00  0.00    +0.000 C 
ATOM     10  O   UNL     1       5.556   3.484  15.643  0.00  0.00    +0.000 OA
ENDROOT
BRANCH   9  11
ATOM     11  C   UNL     1       4.746   5.560  16.730  0.00  0.00    +0.000 C 
BRANCH  11  12
ATOM     12  N   UNL     1       3.518   5.455  17.556  0.00  0.00    +0.000 NA
ATOM     13  C   UNL     1       2.848   4.159  17.388  0.00  0.00    +0.000 C 
ATOM     14  C   UNL     1       1.596   4.050  18.261  0.00  0.00    +0.000 C 
ATOM     15  C   UNL     1       1.926   4.289  19.727  0.00  0.00    +0.000 C 
ATOM     16  C   UNL     1       2.638   5.625  19.885  0.00  0.00    +0.000 C 
ATOM     17  C   UNL     1       3.858   5.710  18.967  0.00  0.00    +0.000 C 
ENDBRANCH  11  12
ENDBRANCH   9  11
TORSDOF 2
ENDMDL
MODEL 4
REMARK VINA RESULT:      -6.7      2.101      5.881
REMARK  Name = 
REMARK  2 active torsions:
REMARK  status: ('A' for Active; 'I' for Inactive)
REMARK    1  A    between atoms: C_9  and  C_10
REMARK    2  A    between atoms: C_10  and  N_11
REMARK                            x       y       z     vdW  Elec       q    Type
REMARK                         _______ _______ _______ _____ _____    ______ ____
ROOT
ATOM      1  C   UNL     1       1.350   2.606  20.706  0.00  0.00    +0.000 A 
ATOM      2  C   UNL     1       1.174   2.303  19.354  0.00  0.00    +0.000 A 
ATOM      3  C   UNL     1       1.454   3.263  18.380  0.00  0.00    +0.000 A 
ATOM      4  C   UNL     1       1.905   4.524  18.760  0.00  0.00    +0.000 A 
ATOM      5  C   UNL     1       2.027   4.845  20.117  0.00  0.00    +0.000 A 
ATOM      6  C   UNL     1       1.777   3.879  21.088  0.00  0.00    +0.000 A 
ATOM      7  O   UNL     1       2.416   6.085  20.560  0.00  0.00    +0.000 OA
ATOM      8  C   UNL     1       2.307   7.055  19.513  0.00  0.00    +0.000 C 
ATOM      9  C   UNL     1       2.941   6.549  18.213  0.00  0.00    +0.000 C 
ATOM     10  O   UNL     1       2.221   5.392  17.747  0.00  0.00    +0.000 OA
ENDROOT
BRANCH   9  11
ATOM     11  C   UNL     1       4.456   6.256  18.387  0.00  0.00    +0.000 C 
BRANCH  11  12
ATOM     12  N   UNL     1       5.090   5.445  17.319  0.00  0.00    +0.000 NA
ATOM     13  C   UNL     1       5.084   6.135  16.022  0.00  0.00    +0.000 C 
ATOM     14  C   UNL     1       5.759   5.302  14.932  0.00  0.00    +0.000 C 
ATOM     15  C   UNL     1       7.182   4.931  15.326  0.00  0.00    +0.000 C 
ATOM     16  C   UNL     1       7.177   4.235  16.680  0.00  0.00    +0.000 C 
ATOM     17  C   UNL     1       6.457   5.081  17.731  0.00  0.00    +0.000 C 
ENDBRANCH  11  12
ENDBRANCH   9  11
TORSDOF 2
ENDMDL
MODEL 5
REMARK VINA RESULT:      -6.7      0.534      1.292
REMARK  Name = 
REMARK  2 active torsions:
REMARK  status: ('A' for Active; 'I' for Inactive)
REMARK    1  A    between atoms: C_9  and  C_10
REMARK    2  A    between atoms: C_10  and  N_11
REMARK                            x       y       z     vdW  Elec       q    Type
REMARK                         _______ _______ _______ _____ _____    ______ ____
ROOT
ATOM      1  C   UNL     1       8.266   6.940  18.806  0.00  0.00    +0.000 A 
ATOM      2  C   UNL     1       7.833   7.710  17.724  0.00  0.00    +0.000 A 
ATOM      3  C   UNL     1       6.662   7.368  17.046  0.00  0.00    +0.000 A 
ATOM      4  C   UNL     1       5.929   6.256  17.447  0.00  0.00    +0.000 A 
ATOM      5  C   UNL     1       6.392   5.451  18.495  0.00  0.00    +0.000 A 
ATOM      6  C   UNL     1       7.544   5.808  19.192  0.00  0.00    +0.000 A 
ATOM      7  O   UNL     1       5.745   4.313  18.907  0.00  0.00    +0.000 OA
ATOM      8  C   UNL     1       4.804   3.880  17.920  0.00  0.00    +0.000 C 
ATOM      9  C   UNL     1       3.930   5.040  17.432  0.00  0.00    +0.000 C 
ATOM     10  O   UNL     1       4.756   6.020  16.777  0.00  0.00    +0.000 OA
ENDROOT
BRANCH   9  11
ATOM     11  C   UNL     1       3.101   5.661  18.589  0.00  0.00    +0.000 C 
BRANCH  11  12
ATOM     12  N   UNL     1       2.064   4.788  19.189  0.00  0.00    +0.000 NA
ATOM     13  C   UNL     1       1.737   3.644  18.328  0.00  0.00    +0.000 C 
ATOM     14  C   UNL     1       0.684   2.736  18.965  0.00  0.00    +0.000 C 
ATOM     15  C   UNL     1       1.131   2.254  20.338  0.00  0.00    +0.000 C 
ATOM     16  C   UNL     1       1.486   3.448  21.213  0.00  0.00    +0.000 C 
ATOM     17  C   UNL     1       2.509   4.350  20.525  0.00  0.00    +0.000 C 
ENDBRANCH  11  12
ENDBRANCH   9  11
TORSDOF 2
ENDMDL
MODEL 6
REMARK VINA RESULT:      -6.6      3.095      4.283
REMARK  Name = 
REMARK  2 active torsions:
REMARK  status: ('A' for Active; 'I' for Inactive)
REMARK    1  A    between atoms: C_9  and  C_10
REMARK    2  A    between atoms: C_10  and  N_11
REMARK                            x       y       z     vdW  Elec       q    Type
REMARK                         _______ _______ _______ _____ _____    ______ ____
ROOT
ATOM      1  C   UNL     1       7.521   4.716  12.118  0.00  0.00    +0.000 A 
ATOM      2  C   UNL     1       6.487   3.777  12.097  0.00  0.00    +0.000 A 
ATOM      3  C   UNL     1       5.799   3.467  13.271  0.00  0.00    +0.000 A 
ATOM      4  C   UNL     1       6.148   4.094  14.464  0.00  0.00    +0.000 A 
ATOM      5  C   UNL     1       7.221   4.993  14.495  0.00  0.00    +0.000 A 
ATOM      6  C   UNL     1       7.888   5.325  13.319  0.00  0.00    +0.000 A 
ATOM      7  O   UNL     1       7.649   5.606  15.647  0.00  0.00    +0.000 OA
ATOM      8  C   UNL     1       7.128   4.938  16.800  0.00  0.00    +0.000 C 
ATOM      9  C   UNL     1       5.624   4.680  16.667  0.00  0.00    +0.000 C 
ATOM     10  O   UNL     1       5.386   3.789  15.562  0.00  0.00    +0.000 OA
ENDROOT
BRANCH   9  11
ATOM     11  C   UNL     1       4.824   6.004  16.524  0.00  0.00    +0.000 C 
BRANCH  11  12
ATOM     12  N   UNL     1       3.643   6.150  17.410  0.00  0.00    +0.000 NA
ATOM     13  C   UNL     1       3.778   5.369  18.646  0.00  0.00    +0.000 C 
ATOM     14  C   UNL     1       2.567   5.544  19.564  0.00  0.00    +0.000 C 
ATOM     15  C   UNL     1       2.332   7.012  19.890  0.00  0.00    +0.000 C 
ATOM     16  C   UNL     1       2.214   7.814  18.601  0.00  0.00    +0.000 C 
ATOM     17  C   UNL     1       3.422   7.580  17.695  0.00  0.00    +0.000 C 
ENDBRANCH  11  12
ENDBRANCH   9  11
TORSDOF 2
ENDMDL
MODEL 7
REMARK VINA RESULT:      -6.6      1.669      5.768
REMARK  Name = 
REMARK  2 active torsions:
REMARK  status: ('A' for Active; 'I' for Inactive)
REMARK    1  A    between atoms: C_9  and  C_10
REMARK    2  A    between atoms: C_10  and  N_11
REMARK                            x       y       z     vdW  Elec       q    Type
REMARK                         _______ _______ _______ _____ _____    ______ ____
ROOT
ATOM      1  C   UNL     1       1.736   3.015  21.624  0.00  0.00    +0.000 A 
ATOM      2  C   UNL     1       1.012   2.446  20.574  0.00  0.00    +0.000 A 
ATOM      3  C   UNL     1       1.000   3.058  19.319  0.00  0.00    +0.000 A 
ATOM      4  C   UNL     1       1.709   4.239  19.119  0.00  0.00    +0.000 A 
ATOM      5  C   UNL     1       2.388   4.839  20.185  0.00  0.00    +0.000 A 
ATOM      6  C   UNL     1       2.425   4.214  21.429  0.00  0.00    +0.000 A 
ATOM      7  O   UNL     1       3.063   6.029  20.068  0.00  0.00    +0.000 OA
ATOM      8  C   UNL     1       2.669   6.720  18.878  0.00  0.00    +0.000 C 
ATOM      9  C   UNL     1       2.680   5.790  17.661  0.00  0.00    +0.000 C 
ATOM     10  O   UNL     1       1.705   4.747  17.845  0.00  0.00    +0.000 OA
ENDROOT
BRANCH   9  11
ATOM     11  C   UNL     1       4.097   5.215  17.389  0.00  0.00    +0.000 C 
BRANCH  11  12
ATOM     12  N   UNL     1       5.226   5.940  18.022  0.00  0.00    +0.000 NA
ATOM     13  C   UNL     1       6.110   5.040  18.774  0.00  0.00    +0.000 C 
ATOM     14  C   UNL     1       7.283   5.791  19.404  0.00  0.00    +0.000 C 
ATOM     15  C   UNL     1       8.077   6.553  18.353  0.00  0.00    +0.000 C 
ATOM     16  C   UNL     1       7.146   7.467  17.567  0.00  0.00    +0.000 C 
ATOM     17  C   UNL     1       5.967   6.686  16.989  0.00  0.00    +0.000 C 
ENDBRANCH  11  12
ENDBRANCH   9  11
TORSDOF 2
ENDMDL
MODEL 8
REMARK VINA RESULT:      -6.5      3.130      6.115
REMARK  Name = 
REMARK  2 active torsions:
REMARK  status: ('A' for Active; 'I' for Inactive)
REMARK    1  A    between atoms: C_9  and  C_10
REMARK    2  A    between atoms: C_10  and  N_11
REMARK                            x       y       z     vdW  Elec       q    Type
REMARK                         _______ _______ _______ _____ _____    ______ ____
ROOT
ATOM      1  C   UNL     1       3.214   1.798  18.910  0.00  0.00    +0.000 A 
ATOM      2  C   UNL     1       2.394   2.293  17.894  0.00  0.00    +0.000 A 
ATOM      3  C   UNL     1       2.755   3.452  17.205  0.00  0.00    +0.000 A 
ATOM      4  C   UNL     1       3.933   4.115  17.536  0.00  0.00    +0.000 A 
ATOM      5  C   UNL     1       4.726   3.650  18.591  0.00  0.00    +0.000 A 
ATOM      6  C   UNL     1       4.383   2.477  19.259  0.00  0.00    +0.000 A 
ATOM      7  O   UNL     1       5.872   4.285  19.002  0.00  0.00    +0.000 OA
ATOM      8  C   UNL     1       5.924   5.620  18.487  0.00  0.00    +0.000 C 
ATOM      9  C   UNL     1       5.607   5.655  16.988  0.00  0.00    +0.000 C 
ATOM     10  O   UNL     1       4.256   5.208  16.773  0.00  0.00    +0.000 OA
ENDROOT
BRANCH   9  11
ATOM     11  C   UNL     1       6.629   4.824  16.165  0.00  0.00    +0.000 C 
BRANCH  11  12
ATOM     12  N   UNL     1       6.484   4.890  14.690  0.00  0.00    +0.000 NA
ATOM     13  C   UNL     1       7.765   5.148  14.019  0.00  0.00    +0.000 C 
ATOM     14  C   UNL     1       7.612   5.191  12.498  0.00  0.00    +0.000 C 
ATOM     15  C   UNL     1       6.988   3.907  11.971  0.00  0.00    +0.000 C 
ATOM     16  C   UNL     1       5.672   3.641  12.689  0.00  0.00    +0.000 C 
ATOM     17  C   UNL     1       5.861   3.646  14.205  0.00  0.00    +0.000 C 
ENDBRANCH  11  12
ENDBRANCH   9  11
TORSDOF 2
ENDMDL
MODEL 9
REMARK VINA RESULT:      -6.5      2.983      4.103
REMARK  Name = 
REMARK  2 active torsions:
REMARK  status: ('A' for Active; 'I' for Inactive)
REMARK    1  A    between atoms: C_9  and  C_10
REMARK    2  A    between atoms: C_10  and  N_11
REMARK                            x       y       z     vdW  Elec       q    Type
REMARK                         _______ _______ _______ _____ _____    ______ ____
ROOT
ATOM      1  C   UNL     1       7.456   4.895  12.159  0.00  0.00    +0.000 A 
ATOM      2  C   UNL     1       6.542   3.840  12.107  0.00  0.00    +0.000 A 
ATOM      3  C   UNL     1       5.958   3.362  13.281  0.00  0.00    +0.000 A 
ATOM      4  C   UNL     1       6.291   3.936  14.504  0.00  0.00    +0.000 A 
ATOM      5  C   UNL     1       7.249   4.955  14.562  0.00  0.00    +0.000 A 
ATOM      6  C   UNL     1       7.810   5.454  13.389  0.00  0.00    +0.000 A 
ATOM      7  O   UNL     1       7.661   5.529  15.739  0.00  0.00    +0.000 OA
ATOM      8  C   UNL     1       7.284   4.718  16.857  0.00  0.00    +0.000 C 
ATOM      9  C   UNL     1       5.816   4.288  16.768  0.00  0.00    +0.000 C 
ATOM     10  O   UNL     1       5.629   3.459  15.606  0.00  0.00    +0.000 OA
ENDROOT
BRANCH   9  11
ATOM     11  C   UNL     1       4.857   5.510  16.766  0.00  0.00    +0.000 C 
BRANCH  11  12
ATOM     12  N   UNL     1       4.234   5.851  18.068  0.00  0.00    +0.000 NA
ATOM     13  C   UNL     1       3.107   6.781  17.916  0.00  0.00    +0.000 C 
ATOM     14  C   UNL     1       2.456   7.108  19.260  0.00  0.00    +0.000 C 
ATOM     15  C   UNL     1       2.004   5.843  19.975  0.00  0.00    +0.000 C 
ATOM     16  C   UNL     1       3.176   4.879  20.108  0.00  0.00    +0.000 C 
ATOM     17  C   UNL     1       3.824   4.611  18.750  0.00  0.00    +0.000 C 
ENDBRANCH  11  12
ENDBRANCH   9  11
TORSDOF 2
ENDMDL
