MODEL 1
REMARK VINA RESULT:      -7.3      0.000      0.000
REMARK  Name = 
REMARK  11 active torsions:
REMARK  status: ('A' for Active; 'I' for Inactive)
REMARK    1  A    between atoms: C_1  and  C_2
REMARK    2  A    between atoms: C_2  and  O_3
REMARK    3  A    between atoms: O_3  and  C_4
REMARK    4  A    between atoms: C_4  and  C_6
REMARK    5  A    between atoms: C_6  and  C_7
REMARK    6  A    between atoms: C_9  and  N_10
REMARK    7  A    between atoms: N_10  and  C_11
REMARK    8  A    between atoms: C_14  and  O_15
REMARK    9  A    between atoms: O_15  and  C_16
REMARK   10  A    between atoms: C_16  and  C_17
REMARK   11  A    between atoms: N_22  and  C_23
REMARK                            x       y       z     vdW  Elec       q    Type
REMARK                         _______ _______ _______ _____ _____    ______ ____
ROOT
ATOM      1  C   UNL     1       2.739   4.482  18.460  0.00  0.00    +0.000 C 
ATOM      2  C   UNL     1       1.614   4.009  17.533  0.00  0.00    +0.000 C 
ATOM      3  C   UNL     1       2.097   5.404  19.472  0.00  0.00    +0.000 C 
ATOM      4  C   UNL     1       2.513   6.668  19.386  0.00  0.00    +0.000 C 
ATOM      5  C   UNL     1       3.529   6.701  18.297  0.00  0.00    +0.000 C 
ATOM      6  O   UNL     1       4.074   7.736  17.950  0.00  0.00    +0.000 OA
ATOM      7  N   UNL     1       3.695   5.394  17.834  0.00  0.00    +0.000 N 
ENDROOT
BRANCH   7   8
ATOM      8  C   UNL     1       4.814   4.963  17.063  0.00  0.00    +0.000 A 
ATOM      9  C   UNL     1       4.655   4.614  15.712  0.00  0.00    +0.000 A 
ATOM     10  C   UNL     1       5.750   4.260  14.917  0.00  0.00    +0.000 A 
ATOM     11  C   UNL     1       7.026   4.219  15.466  0.00  0.00    +0.000 A 
ATOM     12  C   UNL     1       7.205   4.555  16.803  0.00  0.00    +0.000 A 
ATOM     13  C   UNL     1       6.112   4.942  17.588  0.00  0.00    +0.000 A 
ENDBRANCH   7   8
BRANCH   1  14
ATOM     14  C   UNL     1       3.317   3.318  19.308  0.00  0.00    +0.000 C 
ATOM     15  O   UNL     1       3.646   2.234  18.835  0.00  0.00    +0.000 OA
BRANCH  14  16
ATOM     16  O   UNL     1       3.257   3.580  20.645  0.00  0.00    +0.000 OA
BRANCH  16  18
ATOM     17  C   UNL     1       1.302   2.630  21.648  0.00  0.00    +0.000 C 
ATOM     18  C   UNL     1       2.804   2.504  21.479  0.00  0.00    +0.000 C 
ENDBRANCH  16  18
ENDBRANCH  14  16
ENDBRANCH   1  14
BRANCH   4  19
ATOM     19  N   UNL     1       2.178   7.789  20.105  0.00  0.00    +0.000 N 
ATOM     20  H   UNL     1       1.932   7.531  21.065  0.00  0.00    +0.000 HD
BRANCH  19  21
ATOM     21  C   UNL     1       1.248   8.757  19.644  0.00  0.00    +0.000 A 
ATOM     22  C   UNL     1       1.157   9.156  18.309  0.00  0.00    +0.000 A 
ATOM     23  C   UNL     1       0.233  10.123  17.904  0.00  0.00    +0.000 A 
ATOM     24  C   UNL     1      -0.622  10.713  18.835  0.00  0.00    +0.000 A 
ATOM     25  C   UNL     1      -0.521  10.352  20.176  0.00  0.00    +0.000 A 
ATOM     26  C   UNL     1       0.411   9.385  20.579  0.00  0.00    +0.000 A 
BRANCH  24  27
ATOM     27  O   UNL     1      -1.466  11.659  18.324  0.00  0.00    +0.000 OA
BRANCH  27  28
ATOM     28  C   UNL     1      -2.857  11.427  18.536  0.00  0.00    +0.000 C 
ATOM     29  C   UNL     1      -3.370  10.609  17.364  0.00  0.00    +0.000 C 
ENDBRANCH  27  28
ENDBRANCH  24  27
ENDBRANCH  19  21
ENDBRANCH   4  19
TORSDOF 8
ENDMDL
MODEL 2
REMARK VINA RESULT:      -7.2      0.770      1.334
REMARK  Name = 
REMARK  11 active torsions:
REMARK  status: ('A' for Active; 'I' for Inactive)
REMARK    1  A    between atoms: C_1  and  C_2
REMARK    2  A    between atoms: C_2  and  O_3
REMARK    3  A    between atoms: O_3  and  C_4
REMARK    4  A    between atoms: C_4  and  C_6
REMARK    5  A    between atoms: C_6  and  C_7
REMARK    6  A    between atoms: C_9  and  N_10
REMARK    7  A    between atoms: N_10  and  C_11
REMARK    8  A    between atoms: C_14  and  O_15
REMARK    9  A    between atoms: O_15  and  C_16
REMARK   10  A    between atoms: C_16  and  C_17
REMARK   11  A    between atoms: N_22  and  C_23
REMARK                            x       y       z     vdW  Elec       q    Type
REMARK                         _______ _______ _______ _____ _____    ______ ____
ROOT
ATOM      1  C   UNL     1       2.756   4.489  18.420  0.00  0.00    +0.000 C 
ATOM      2  C   UNL     1       1.603   4.063  17.505  0.00  0.00    +0.000 C 
ATOM      3  C   UNL     1       2.148   5.367  19.490  0.00  0.00    +0.000 C 
ATOM      4  C   UNL     1       2.567   6.632  19.449  0.00  0.00    +0.000 C 
ATOM      5  C   UNL     1       3.552   6.711  18.334  0.00  0.00    +0.000 C 
ATOM      6  O   UNL     1       4.091   7.758  18.018  0.00  0.00    +0.000 OA
ATOM      7  N   UNL     1       3.697   5.425  17.807  0.00  0.00    +0.000 N 
ENDROOT
BRANCH   7   8
ATOM      8  C   UNL     1       4.792   5.026  16.986  0.00  0.00    +0.000 A 
ATOM      9  C   UNL     1       6.098   5.011  17.499  0.00  0.00    +0.000 A 
ATOM     10  C   UNL     1       7.177   4.553  16.734  0.00  0.00    +0.000 A 
ATOM     11  C   UNL     1       6.973   4.127  15.428  0.00  0.00    +0.000 A 
ATOM     12  C   UNL     1       5.689   4.138  14.897  0.00  0.00    +0.000 A 
ATOM     13  C   UNL     1       4.606   4.565  15.676  0.00  0.00    +0.000 A 
ENDBRANCH   7   8
BRANCH   1  14
ATOM     14  C   UNL     1       3.353   3.287  19.197  0.00  0.00    +0.000 C 
ATOM     15  O   UNL     1       3.646   2.217  18.670  0.00  0.00    +0.000 OA
BRANCH  14  16
ATOM     16  O   UNL     1       3.354   3.498  20.545  0.00  0.00    +0.000 OA
BRANCH  16  18
ATOM     17  C   UNL     1       1.412   2.617  21.634  0.00  0.00    +0.000 C 
ATOM     18  C   UNL     1       2.889   2.409  21.354  0.00  0.00    +0.000 C 
ENDBRANCH  16  18
ENDBRANCH  14  16
ENDBRANCH   1  14
BRANCH   4  19
ATOM     19  N   UNL     1       2.258   7.721  20.227  0.00  0.00    +0.000 N 
ATOM     20  H   UNL     1       2.086   7.426  21.192  0.00  0.00    +0.000 HD
BRANCH  19  21
ATOM     21  C   UNL     1       1.276   8.680  19.865  0.00  0.00    +0.000 A 
ATOM     22  C   UNL     1       1.125   9.166  18.564  0.00  0.00    +0.000 A 
ATOM     23  C   UNL     1       0.151  10.121  18.258  0.00  0.00    +0.000 A 
ATOM     24  C   UNL     1      -0.694  10.609  19.253  0.00  0.00    +0.000 A 
ATOM     25  C   UNL     1      -0.534  10.161  20.562  0.00  0.00    +0.000 A 
ATOM     26  C   UNL     1       0.448   9.207  20.866  0.00  0.00    +0.000 A 
BRANCH  24  27
ATOM     27  O   UNL     1      -1.590  11.554  18.837  0.00  0.00    +0.000 OA
BRANCH  27  28
ATOM     28  C   UNL     1      -1.035  12.673  18.149  0.00  0.00    +0.000 C 
ATOM     29  C   UNL     1      -0.576  13.674  19.194  0.00  0.00    +0.000 C 
ENDBRANCH  27  28
ENDBRANCH  24  27
ENDBRANCH  19  21
ENDBRANCH   4  19
TORSDOF 8
ENDMDL
MODEL 3
REMARK VINA RESULT:      -7.1      0.649      1.402
REMARK  Name = 
REMARK  11 active torsions:
REMARK  status: ('A' for Active; 'I' for Inactive)
REMARK    1  A    between atoms: C_1  and  C_2
REMARK    2  A    between atoms: C_2  and  O_3
REMARK    3  A    between atoms: O_3  and  C_4
REMARK    4  A    between atoms: C_4  and  C_6
REMARK    5  A    between atoms: C_6  and  C_7
REMARK    6  A    between atoms: C_9  and  N_10
REMARK    7  A    between atoms: N_10  and  C_11
REMARK    8  A    between atoms: C_14  and  O_15
REMARK    9  A    between atoms: O_15  and  C_16
REMARK   10  A    between atoms: C_16  and  C_17
REMARK   11  A    between atoms: N_22  and  C_23
REMARK                            x       y       z     vdW  Elec       q    Type
REMARK                         _______ _______ _______ _____ _____    ______ ____
ROOT
ATOM      1  C   UNL     1       2.975   4.669  18.566  0.00  0.00    +0.000 C 
ATOM      2  C   UNL     1       1.805   4.038  17.803  0.00  0.00    +0.000 C 
ATOM      3  C   UNL     1       2.363   5.563  19.620  0.00  0.00    +0.000 C 
ATOM      4  C   UNL     1       2.622   6.859  19.443  0.00  0.00    +0.000 C 
ATOM      5  C   UNL     1       3.489   6.950  18.233  0.00  0.00    +0.000 C 
ATOM      6  O   UNL     1       3.869   8.019  17.788  0.00  0.00    +0.000 OA
ATOM      7  N   UNL     1       3.740   5.647  17.795  0.00  0.00    +0.000 N 
ENDROOT
BRANCH   7   8
ATOM      8  C   UNL     1       4.798   5.302  16.904  0.00  0.00    +0.000 A 
ATOM      9  C   UNL     1       6.078   5.854  17.071  0.00  0.00    +0.000 A 
ATOM     10  C   UNL     1       7.149   5.474  16.254  0.00  0.00    +0.000 A 
ATOM     11  C   UNL     1       6.952   4.554  15.232  0.00  0.00    +0.000 A 
ATOM     12  C   UNL     1       5.692   4.000  15.044  0.00  0.00    +0.000 A 
ATOM     13  C   UNL     1       4.630   4.356  15.884  0.00  0.00    +0.000 A 
ENDBRANCH   7   8
BRANCH   1  14
ATOM     14  C   UNL     1       3.778   3.613  19.371  0.00  0.00    +0.000 C 
ATOM     15  O   UNL     1       5.001   3.622  19.468  0.00  0.00    +0.000 OA
BRANCH  14  16
ATOM     16  O   UNL     1       2.986   2.592  19.808  0.00  0.00    +0.000 OA
BRANCH  16  18
ATOM     17  C   UNL     1       1.408   2.666  21.607  0.00  0.00    +0.000 C 
ATOM     18  C   UNL     1       2.862   2.453  21.230  0.00  0.00    +0.000 C 
ENDBRANCH  16  18
ENDBRANCH  14  16
ENDBRANCH   1  14
BRANCH   4  19
ATOM     19  N   UNL     1       2.256   7.970  20.161  0.00  0.00    +0.000 N 
ATOM     20  H   UNL     1       2.125   7.723  21.147  0.00  0.00    +0.000 HD
BRANCH  19  21
ATOM     21  C   UNL     1       1.202   8.835  19.767  0.00  0.00    +0.000 A 
ATOM     22  C   UNL     1       0.271   9.364  20.664  0.00  0.00    +0.000 A 
ATOM     23  C   UNL     1      -0.759  10.202  20.226  0.00  0.00    +0.000 A 
ATOM     24  C   UNL     1      -0.876  10.527  18.876  0.00  0.00    +0.000 A 
ATOM     25  C   UNL     1       0.023   9.981  17.964  0.00  0.00    +0.000 A 
ATOM     26  C   UNL     1       1.052   9.136  18.406  0.00  0.00    +0.000 A 
BRANCH  24  27
ATOM     27  O   UNL     1      -1.934  11.336  18.566  0.00  0.00    +0.000 OA
BRANCH  27  28
ATOM     28  C   UNL     1      -2.398  11.260  17.220  0.00  0.00    +0.000 C 
ATOM     29  C   UNL     1      -3.566  10.289  17.191  0.00  0.00    +0.000 C 
ENDBRANCH  27  28
ENDBRANCH  24  27
ENDBRANCH  19  21
ENDBRANCH   4  19
TORSDOF 8
ENDMDL
MODEL 4
REMARK VINA RESULT:      -7.0      1.775      2.468
REMARK  Name = 
REMARK  11 active torsions:
REMARK  status: ('A' for Active; 'I' for Inactive)
REMARK    1  A    between atoms: C_1  and  C_2
REMARK    2  A    between atoms: C_2  and  O_3
REMARK    3  A    between atoms: O_3  and  C_4
REMARK    4  A    between atoms: C_4  and  C_6
REMARK    5  A    between atoms: C_6  and  C_7
REMARK    6  A    between atoms: C_9  and  N_10
REMARK    7  A    between atoms: N_10  and  C_11
REMARK    8  A    between atoms: C_14  and  O_15
REMARK    9  A    between atoms: O_15  and  C_16
REMARK   10  A    between atoms: C_16  and  C_17
REMARK   11  A    between atoms: N_22  and  C_23
REMARK                            x       y       z     vdW  Elec       q    Type
REMARK                         _______ _______ _______ _____ _____    ______ ____
ROOT
ATOM      1  C   UNL     1       2.724   5.328  18.486  0.00  0.00    +0.000 C 
ATOM      2  C   UNL     1       1.742   4.414  17.746  0.00  0.00    +0.000 C 
ATOM      3  C   UNL     1       1.913   6.497  18.998  0.00  0.00    +0.000 C 
ATOM      4  C   UNL     1       2.246   7.664  18.446  0.00  0.00    +0.000 C 
ATOM      5  C   UNL     1       3.370   7.379  17.510  0.00  0.00    +0.000 C 
ATOM      6  O   UNL     1       3.875   8.249  16.820  0.00  0.00    +0.000 OA
ATOM      7  N   UNL     1       3.675   6.020  17.619  0.00  0.00    +0.000 N 
ENDROOT
BRANCH   7   8
ATOM      8  C   UNL     1       4.899   5.446  17.166  0.00  0.00    +0.000 A 
ATOM      9  C   UNL     1       6.116   5.795  17.771  0.00  0.00    +0.000 A 
ATOM     10  C   UNL     1       7.320   5.190  17.393  0.00  0.00    +0.000 A 
ATOM     11  C   UNL     1       7.333   4.241  16.378  0.00  0.00    +0.000 A 
ATOM     12  C   UNL     1       6.140   3.884  15.760  0.00  0.00    +0.000 A 
ATOM     13  C   UNL     1       4.932   4.467  16.164  0.00  0.00    +0.000 A 
ENDBRANCH   7   8
BRANCH   1  14
ATOM     14  C   UNL     1       3.287   4.657  19.766  0.00  0.00    +0.000 C 
ATOM     15  O   UNL     1       4.257   3.905  19.766  0.00  0.00    +0.000 OA
BRANCH  14  16
ATOM     16  O   UNL     1       2.483   4.863  20.849  0.00  0.00    +0.000 OA
BRANCH  16  18
ATOM     17  C   UNL     1       1.123   2.899  21.004  0.00  0.00    +0.000 C 
ATOM     18  C   UNL     1       2.218   3.714  21.666  0.00  0.00    +0.000 C 
ENDBRANCH  16  18
ENDBRANCH  14  16
ENDBRANCH   1  14
BRANCH   4  19
ATOM     19  N   UNL     1       1.757   8.935  18.633  0.00  0.00    +0.000 N 
ATOM     20  H   UNL     1       2.500   9.623  18.478  0.00  0.00    +0.000 HD
BRANCH  19  21
ATOM     21  C   UNL     1       1.016   9.319  19.781  0.00  0.00    +0.000 A 
ATOM     22  C   UNL     1       0.047  10.325  19.765  0.00  0.00    +0.000 A 
ATOM     23  C   UNL     1      -0.648  10.678  20.924  0.00  0.00    +0.000 A 
ATOM     24  C   UNL     1      -0.383  10.028  22.129  0.00  0.00    +0.000 A 
ATOM     25  C   UNL     1       0.604   9.048  22.171  0.00  0.00    +0.000 A 
ATOM     26  C   UNL     1       1.303   8.699  21.006  0.00  0.00    +0.000 A 
BRANCH  24  27
ATOM     27  O   UNL     1      -1.110  10.475  23.197  0.00  0.00    +0.000 OA
BRANCH  27  28
ATOM     28  C   UNL     1      -1.441  11.862  23.184  0.00  0.00    +0.000 C 
ATOM     29  C   UNL     1      -2.920  11.985  23.505  0.00  0.00    +0.000 C 
ENDBRANCH  27  28
ENDBRANCH  24  27
ENDBRANCH  19  21
ENDBRANCH   4  19
TORSDOF 8
ENDMDL
MODEL 5
REMARK VINA RESULT:      -6.9      0.815      1.336
REMARK  Name = 
REMARK  11 active torsions:
REMARK  status: ('A' for Active; 'I' for Inactive)
REMARK    1  A    between atoms: C_1  and  C_2
REMARK    2  A    between atoms: C_2  and  O_3
REMARK    3  A    between atoms: O_3  and  C_4
REMARK    4  A    between atoms: C_4  and  C_6
REMARK    5  A    between atoms: C_6  and  C_7
REMARK    6  A    between atoms: C_9  and  N_10
REMARK    7  A    between atoms: N_10  and  C_11
REMARK    8  A    between atoms: C_14  and  O_15
REMARK    9  A    between atoms: O_15  and  C_16
REMARK   10  A    between atoms: C_16  and  C_17
REMARK   11  A    between atoms: N_22  and  C_23
REMARK                            x       y       z     vdW  Elec       q    Type
REMARK                         _______ _______ _______ _____ _____    ______ ____
ROOT
ATOM      1  C   UNL     1       3.006   4.432  18.558  0.00  0.00    +0.000 C 
ATOM      2  C   UNL     1       1.831   3.863  17.756  0.00  0.00    +0.000 C 
ATOM      3  C   UNL     1       2.407   5.348  19.601  0.00  0.00    +0.000 C 
ATOM      4  C   UNL     1       2.734   6.630  19.441  0.00  0.00    +0.000 C 
ATOM      5  C   UNL     1       3.639   6.687  18.259  0.00  0.00    +0.000 C 
ATOM      6  O   UNL     1       4.084   7.740  17.834  0.00  0.00    +0.000 OA
ATOM      7  N   UNL     1       3.841   5.377  17.818  0.00  0.00    +0.000 N 
ENDROOT
BRANCH   7   8
ATOM      8  C   UNL     1       4.907   4.987  16.956  0.00  0.00    +0.000 A 
ATOM      9  C   UNL     1       4.637   4.486  15.673  0.00  0.00    +0.000 A 
ATOM     10  C   UNL     1       5.668   4.167  14.782  0.00  0.00    +0.000 A 
ATOM     11  C   UNL     1       6.994   4.317  15.169  0.00  0.00    +0.000 A 
ATOM     12  C   UNL     1       7.284   4.806  16.437  0.00  0.00    +0.000 A 
ATOM     13  C   UNL     1       6.251   5.157  17.314  0.00  0.00    +0.000 A 
ENDBRANCH   7   8
BRANCH   1  14
ATOM     14  C   UNL     1       3.733   3.333  19.378  0.00  0.00    +0.000 C 
ATOM     15  O   UNL     1       4.954   3.208  19.411  0.00  0.00    +0.000 OA
BRANCH  14  16
ATOM     16  O   UNL     1       2.860   2.431  19.912  0.00  0.00    +0.000 OA
BRANCH  16  18
ATOM     17  C   UNL     1       1.327   2.655  21.737  0.00  0.00    +0.000 C 
ATOM     18  C   UNL     1       2.772   2.409  21.343  0.00  0.00    +0.000 C 
ENDBRANCH  16  18
ENDBRANCH  14  16
ENDBRANCH   1  14
BRANCH   4  19
ATOM     19  N   UNL     1       2.400   7.753  20.158  0.00  0.00    +0.000 N 
ATOM     20  H   UNL     1       2.248   7.510  21.141  0.00  0.00    +0.000 HD
BRANCH  19  21
ATOM     21  C   UNL     1       1.383   8.657  19.753  0.00  0.00    +0.000 A 
ATOM     22  C   UNL     1       0.456   9.212  20.638  0.00  0.00    +0.000 A 
ATOM     23  C   UNL     1      -0.537  10.088  20.190  0.00  0.00    +0.000 A 
ATOM     24  C   UNL     1      -0.620  10.427  18.840  0.00  0.00    +0.000 A 
ATOM     25  C   UNL     1       0.276   9.856  17.939  0.00  0.00    +0.000 A 
ATOM     26  C   UNL     1       1.267   8.973  18.392  0.00  0.00    +0.000 A 
BRANCH  24  27
ATOM     27  O   UNL     1      -1.643  11.274  18.519  0.00  0.00    +0.000 OA
BRANCH  27  28
ATOM     28  C   UNL     1      -1.605  12.555  19.145  0.00  0.00    +0.000 C 
ATOM     29  C   UNL     1      -0.526  13.371  18.456  0.00  0.00    +0.000 C 
ENDBRANCH  27  28
ENDBRANCH  24  27
ENDBRANCH  19  21
ENDBRANCH   4  19
TORSDOF 8
ENDMDL
MODEL 6
REMARK VINA RESULT:      -6.8      3.061      7.529
REMARK  Name = 
REMARK  11 active torsions:
REMARK  status: ('A' for Active; 'I' for Inactive)
REMARK    1  A    between atoms: C_1  and  C_2
REMARK    2  A    between atoms: C_2  and  O_3
REMARK    3  A    between atoms: O_3  and  C_4
REMARK    4  A    between atoms: C_4  and  C_6
REMARK    5  A    between atoms: C_6  and  C_7
REMARK    6  A    between atoms: C_9  and  N_10
REMARK    7  A    between atoms: N_10  and  C_11
REMARK    8  A    between atoms: C_14  and  O_15
REMARK    9  A    between atoms: O_15  and  C_16
REMARK   10  A    between atoms: C_16  and  C_17
REMARK   11  A    between atoms: N_22  and  C_23
REMARK                            x       y       z     vdW  Elec       q    Type
REMARK                         _______ _______ _______ _____ _____    ______ ____
ROOT
ATOM      1  C   UNL     1       5.879   4.988  18.465  0.00  0.00    +0.000 C 
ATOM      2  C   UNL     1       6.845   5.450  19.561  0.00  0.00    +0.000 C 
ATOM      3  C   UNL     1       6.737   4.453  17.340  0.00  0.00    +0.000 C 
ATOM      4  C   UNL     1       6.653   5.165  16.216  0.00  0.00    +0.000 C 
ATOM      5  C   UNL     1       5.673   6.255  16.483  0.00  0.00    +0.000 C 
ATOM      6  O   UNL     1       5.405   7.105  15.649  0.00  0.00    +0.000 OA
ATOM      7  N   UNL     1       5.182   6.074  17.778  0.00  0.00    +0.000 N 
ENDROOT
BRANCH   7   8
ATOM      8  C   UNL     1       3.987   6.682  18.263  0.00  0.00    +0.000 A 
ATOM      9  C   UNL     1       3.402   6.243  19.462  0.00  0.00    +0.000 A 
ATOM     10  C   UNL     1       2.272   6.873  19.995  0.00  0.00    +0.000 A 
ATOM     11  C   UNL     1       1.687   7.939  19.324  0.00  0.00    +0.000 A 
ATOM     12  C   UNL     1       2.246   8.386  18.132  0.00  0.00    +0.000 A 
ATOM     13  C   UNL     1       3.396   7.776  17.618  0.00  0.00    +0.000 A 
ENDBRANCH   7   8
BRANCH   1  14
ATOM     14  C   UNL     1       5.030   3.771  18.917  0.00  0.00    +0.000 C 
ATOM     15  O   UNL     1       5.119   3.259  20.029  0.00  0.00    +0.000 OA
BRANCH  14  16
ATOM     16  O   UNL     1       4.307   3.241  17.889  0.00  0.00    +0.000 OA
BRANCH  16  18
ATOM     17  C   UNL     1       1.920   3.192  18.065  0.00  0.00    +0.000 C 
ATOM     18  C   UNL     1       3.202   2.405  18.260  0.00  0.00    +0.000 C 
ENDBRANCH  16  18
ENDBRANCH  14  16
ENDBRANCH   1  14
BRANCH   4  19
ATOM     19  N   UNL     1       7.262   5.015  14.994  0.00  0.00    +0.000 N 
ATOM     20  H   UNL     1       7.692   5.899  14.705  0.00  0.00    +0.000 HD
BRANCH  19  21
ATOM     21  C   UNL     1       6.614   4.439  13.870  0.00  0.00    +0.000 A 
ATOM     22  C   UNL     1       5.299   3.970  13.902  0.00  0.00    +0.000 A 
ATOM     23  C   UNL     1       4.707   3.398  12.772  0.00  0.00    +0.000 A 
ATOM     24  C   UNL     1       5.426   3.284  11.583  0.00  0.00    +0.000 A 
ATOM     25  C   UNL     1       6.750   3.714  11.543  0.00  0.00    +0.000 A 
ATOM     26  C   UNL     1       7.341   4.283  12.681  0.00  0.00    +0.000 A 
BRANCH  24  27
ATOM     27  O   UNL     1       4.750   2.688  10.555  0.00  0.00    +0.000 OA
BRANCH  27  28
ATOM     28  C   UNL     1       3.342   2.914  10.528  0.00  0.00    +0.000 C 
ATOM     29  C   UNL     1       3.083   4.096   9.611  0.00  0.00    +0.000 C 
ENDBRANCH  27  28
ENDBRANCH  24  27
ENDBRANCH  19  21
ENDBRANCH   4  19
TORSDOF 8
ENDMDL
MODEL 7
REMARK VINA RESULT:      -6.8      3.077      7.434
REMARK  Name = 
REMARK  11 active torsions:
REMARK  status: ('A' for Active; 'I' for Inactive)
REMARK    1  A    between atoms: C_1  and  C_2
REMARK    2  A    between atoms: C_2  and  O_3
REMARK    3  A    between atoms: O_3  and  C_4
REMARK    4  A    between atoms: C_4  and  C_6
REMARK    5  A    between atoms: C_6  and  C_7
REMARK    6  A    between atoms: C_9  and  N_10
REMARK    7  A    between atoms: N_10  and  C_11
REMARK    8  A    between atoms: C_14  and  O_15
REMARK    9  A    between atoms: O_15  and  C_16
REMARK   10  A    between atoms: C_16  and  C_17
REMARK   11  A    between atoms: N_22  and  C_23
REMARK                            x       y       z     vdW  Elec       q    Type
REMARK                         _______ _______ _______ _____ _____    ______ ____
ROOT
ATOM      1  C   UNL     1       5.938   5.004  18.458  0.00  0.00    +0.000 C 
ATOM      2  C   UNL     1       6.912   5.434  19.560  0.00  0.00    +0.000 C 
ATOM      3  C   UNL     1       6.785   4.460  17.330  0.00  0.00    +0.000 C 
ATOM      4  C   UNL     1       6.719   5.183  16.212  0.00  0.00    +0.000 C 
ATOM      5  C   UNL     1       5.764   6.293  16.487  0.00  0.00    +0.000 C 
ATOM      6  O   UNL     1       5.517   7.156  15.661  0.00  0.00    +0.000 OA
ATOM      7  N   UNL     1       5.266   6.111  17.780  0.00  0.00    +0.000 N 
ENDROOT
BRANCH   7   8
ATOM      8  C   UNL     1       4.085   6.742  18.269  0.00  0.00    +0.000 A 
ATOM      9  C   UNL     1       3.456   7.750  17.523  0.00  0.00    +0.000 A 
ATOM     10  C   UNL     1       2.256   8.332  17.948  0.00  0.00    +0.000 A 
ATOM     11  C   UNL     1       1.675   7.934  19.146  0.00  0.00    +0.000 A 
ATOM     12  C   UNL     1       2.285   6.941  19.904  0.00  0.00    +0.000 A 
ATOM     13  C   UNL     1       3.467   6.337  19.460  0.00  0.00    +0.000 A 
ENDBRANCH   7   8
BRANCH   1  14
ATOM     14  C   UNL     1       5.060   3.803  18.898  0.00  0.00    +0.000 C 
ATOM     15  O   UNL     1       5.111   3.300  20.017  0.00  0.00    +0.000 OA
BRANCH  14  16
ATOM     16  O   UNL     1       4.359   3.271  17.855  0.00  0.00    +0.000 OA
BRANCH  16  18
ATOM     17  C   UNL     1       1.992   3.594  17.694  0.00  0.00    +0.000 C 
ATOM     18  C   UNL     1       3.097   2.674  18.182  0.00  0.00    +0.000 C 
ENDBRANCH  16  18
ENDBRANCH  14  16
ENDBRANCH   1  14
BRANCH   4  19
ATOM     19  N   UNL     1       7.327   5.031  14.989  0.00  0.00    +0.000 N 
ATOM     20  H   UNL     1       7.756   5.914  14.698  0.00  0.00    +0.000 HD
BRANCH  19  21
ATOM     21  C   UNL     1       6.678   4.452  13.868  0.00  0.00    +0.000 A 
ATOM     22  C   UNL     1       7.264   4.369  12.603  0.00  0.00    +0.000 A 
ATOM     23  C   UNL     1       6.580   3.801  11.524  0.00  0.00    +0.000 A 
ATOM     24  C   UNL     1       5.289   3.304  11.693  0.00  0.00    +0.000 A 
ATOM     25  C   UNL     1       4.676   3.409  12.939  0.00  0.00    +0.000 A 
ATOM     26  C   UNL     1       5.364   3.984  14.018  0.00  0.00    +0.000 A 
BRANCH  24  27
ATOM     27  O   UNL     1       4.715   2.793  10.562  0.00  0.00    +0.000 OA
BRANCH  27  28
ATOM     28  C   UNL     1       3.301   2.952  10.460  0.00  0.00    +0.000 C 
ATOM     29  C   UNL     1       3.037   4.176   9.601  0.00  0.00    +0.000 C 
ENDBRANCH  27  28
ENDBRANCH  24  27
ENDBRANCH  19  21
ENDBRANCH   4  19
TORSDOF 8
ENDMDL
MODEL 8
REMARK VINA RESULT:      -6.7      2.782      9.042
REMARK  Name = 
REMARK  11 active torsions:
REMARK  status: ('A' for Active; 'I' for Inactive)
REMARK    1  A    between atoms: C_1  and  C_2
REMARK    2  A    between atoms: C_2  and  O_3
REMARK    3  A    between atoms: O_3  and  C_4
REMARK    4  A    between atoms: C_4  and  C_6
REMARK    5  A    between atoms: C_6  and  C_7
REMARK    6  A    between atoms: C_9  and  N_10
REMARK    7  A    between atoms: N_10  and  C_11
REMARK    8  A    between atoms: C_14  and  O_15
REMARK    9  A    between atoms: O_15  and  C_16
REMARK   10  A    between atoms: C_16  and  C_17
REMARK   11  A    between atoms: N_22  and  C_23
REMARK                            x       y       z     vdW  Elec       q    Type
REMARK                         _______ _______ _______ _____ _____    ______ ____
ROOT
ATOM      1  C   UNL     1      -0.194  10.756  19.689  0.00  0.00    +0.000 C 
ATOM      2  C   UNL     1      -1.503  10.314  19.026  0.00  0.00    +0.000 C 
ATOM      3  C   UNL     1       0.798   9.637  19.460  0.00  0.00    +0.000 C 
ATOM      4  C   UNL     1       1.189   9.028  20.579  0.00  0.00    +0.000 C 
ATOM      5  C   UNL     1       0.499   9.728  21.699  0.00  0.00    +0.000 C 
ATOM      6  O   UNL     1       0.626   9.375  22.860  0.00  0.00    +0.000 OA
ATOM      7  N   UNL     1      -0.236  10.782  21.150  0.00  0.00    +0.000 N 
ENDROOT
BRANCH   7   8
ATOM      8  C   UNL     1      -0.732  11.881  21.910  0.00  0.00    +0.000 A 
ATOM      9  C   UNL     1      -1.877  11.735  22.708  0.00  0.00    +0.000 A 
ATOM     10  C   UNL     1      -2.339  12.778  23.519  0.00  0.00    +0.000 A 
ATOM     11  C   UNL     1      -1.678  14.000  23.525  0.00  0.00    +0.000 A 
ATOM     12  C   UNL     1      -0.546  14.169  22.738  0.00  0.00    +0.000 A 
ATOM     13  C   UNL     1      -0.066  13.113  21.953  0.00  0.00    +0.000 A 
ENDBRANCH   7   8
BRANCH   1  14
ATOM     14  C   UNL     1       0.433  11.982  18.974  0.00  0.00    +0.000 C 
ATOM     15  O   UNL     1      -0.193  12.715  18.213  0.00  0.00    +0.000 OA
BRANCH  14  16
ATOM     16  O   UNL     1       1.783  12.047  19.156  0.00  0.00    +0.000 OA
BRANCH  16  18
ATOM     17  C   UNL     1       3.126  13.978  18.715  0.00  0.00    +0.000 C 
ATOM     18  C   UNL     1       2.527  12.714  18.128  0.00  0.00    +0.000 C 
ENDBRANCH  16  18
ENDBRANCH  14  16
ENDBRANCH   1  14
BRANCH   4  19
ATOM     19  N   UNL     1       2.057   7.986  20.795  0.00  0.00    +0.000 N 
ATOM     20  H   UNL     1       3.024   8.314  20.722  0.00  0.00    +0.000 HD
BRANCH  19  21
ATOM     21  C   UNL     1       1.951   6.737  20.129  0.00  0.00    +0.000 A 
ATOM     22  C   UNL     1       1.448   5.585  20.738  0.00  0.00    +0.000 A 
ATOM     23  C   UNL     1       1.375   4.374  20.046  0.00  0.00    +0.000 A 
ATOM     24  C   UNL     1       1.807   4.292  18.723  0.00  0.00    +0.000 A 
ATOM     25  C   UNL     1       2.344   5.422  18.111  0.00  0.00    +0.000 A 
ATOM     26  C   UNL     1       2.420   6.635  18.812  0.00  0.00    +0.000 A 
BRANCH  24  27
ATOM     27  O   UNL     1       1.706   3.051  18.158  0.00  0.00    +0.000 OA
BRANCH  27  28
ATOM     28  C   UNL     1       2.157   1.966  18.966  0.00  0.00    +0.000 C 
ATOM     29  C   UNL     1       3.598   1.676  18.585  0.00  0.00    +0.000 C 
ENDBRANCH  27  28
ENDBRANCH  24  27
ENDBRANCH  19  21
ENDBRANCH   4  19
TORSDOF 8
ENDMDL
MODEL 9
REMARK VINA RESULT:      -6.7      2.727      8.993
REMARK  Name = 
REMARK  11 active torsions:
REMARK  status: ('A' for Active; 'I' for Inactive)
REMARK    1  A    between atoms: C_1  and  C_2
REMARK    2  A    between atoms: C_2  and  O_3
REMARK    3  A    between atoms: O_3  and  C_4
REMARK    4  A    between atoms: C_4  and  C_6
REMARK    5  A    between atoms: C_6  and  C_7
REMARK    6  A    between atoms: C_9  and  N_10
REMARK    7  A    between atoms: N_10  and  C_11
REMARK    8  A    between atoms: C_14  and  O_15
REMARK    9  A    between atoms: O_15  and  C_16
REMARK   10  A    between atoms: C_16  and  C_17
REMARK   11  A    between atoms: N_22  and  C_23
REMARK                            x       y       z     vdW  Elec       q    Type
REMARK                         _______ _______ _______ _____ _____    ______ ____
ROOT
ATOM      1  C   UNL     1      -0.187  10.666  19.617  0.00  0.00    +0.000 C 
ATOM      2  C   UNL     1      -1.532  10.197  19.052  0.00  0.00    +0.000 C 
ATOM      3  C   UNL     1       0.812   9.578  19.295  0.00  0.00    +0.000 C 
ATOM      4  C   UNL     1       1.306   8.966  20.372  0.00  0.00    +0.000 C 
ATOM      5  C   UNL     1       0.689   9.634  21.552  0.00  0.00    +0.000 C 
ATOM      6  O   UNL     1       0.916   9.272  22.694  0.00  0.00    +0.000 OA
ATOM      7  N   UNL     1      -0.115  10.674  21.077  0.00  0.00    +0.000 N 
ENDROOT
BRANCH   7   8
ATOM      8  C   UNL     1      -0.578  11.750  21.888  0.00  0.00    +0.000 A 
ATOM      9  C   UNL     1       0.065  12.997  21.851  0.00  0.00    +0.000 A 
ATOM     10  C   UNL     1      -0.416  14.089  22.582  0.00  0.00    +0.000 A 
ATOM     11  C   UNL     1      -1.537  13.946  23.390  0.00  0.00    +0.000 A 
ATOM     12  C   UNL     1      -2.186  12.718  23.448  0.00  0.00    +0.000 A 
ATOM     13  C   UNL     1      -1.723  11.637  22.689  0.00  0.00    +0.000 A 
ENDBRANCH   7   8
BRANCH   1  14
ATOM     14  C   UNL     1       0.348  11.917  18.872  0.00  0.00    +0.000 C 
ATOM     15  O   UNL     1      -0.377  12.736  18.315  0.00  0.00    +0.000 OA
BRANCH  14  16
ATOM     16  O   UNL     1       1.708  11.907  18.766  0.00  0.00    +0.000 OA
BRANCH  16  18
ATOM     17  C   UNL     1       2.996  13.812  18.098  0.00  0.00    +0.000 C 
ATOM     18  C   UNL     1       2.390  13.064  19.271  0.00  0.00    +0.000 C 
ENDBRANCH  16  18
ENDBRANCH  14  16
ENDBRANCH   1  14
BRANCH   4  19
ATOM     19  N   UNL     1       2.216   7.946  20.505  0.00  0.00    +0.000 N 
ATOM     20  H   UNL     1       3.151   8.273  20.246  0.00  0.00    +0.000 HD
BRANCH  19  21
ATOM     21  C   UNL     1       2.019   6.654  19.951  0.00  0.00    +0.000 A 
ATOM     22  C   UNL     1       1.526   5.573  20.686  0.00  0.00    +0.000 A 
ATOM     23  C   UNL     1       1.362   4.315  20.099  0.00  0.00    +0.000 A 
ATOM     24  C   UNL     1       1.690   4.115  18.759  0.00  0.00    +0.000 A 
ATOM     25  C   UNL     1       2.215   5.173  18.021  0.00  0.00    +0.000 A 
ATOM     26  C   UNL     1       2.383   6.432  18.615  0.00  0.00    +0.000 A 
BRANCH  24  27
ATOM     27  O   UNL     1       1.506   2.839  18.305  0.00  0.00    +0.000 OA
BRANCH  27  28
ATOM     28  C   UNL     1       2.611   2.265  17.609  0.00  0.00    +0.000 C 
ATOM     29  C   UNL     1       3.537   1.650  18.644  0.00  0.00    +0.000 C 
ENDBRANCH  27  28
ENDBRANCH  24  27
ENDBRANCH  19  21
ENDBRANCH   4  19
TORSDOF 8
ENDMDL
