MODEL 1
REMARK VINA RESULT:      -6.5      0.000      0.000
REMARK  Name = 
REMARK  9 active torsions:
REMARK  status: ('A' for Active; 'I' for Inactive)
REMARK    1  A    between atoms: C_1  and  O_2
REMARK    2  A    between atoms: O_2  and  C_3
REMARK    3  A    between atoms: C_6  and  N_7
REMARK    4  A    between atoms: N_10  and  C_11
REMARK    5  A    between atoms: C_11  and  N_12
REMARK    6  A    between atoms: C_14  and  C_15
REMARK    7  A    between atoms: C_15  and  C_16
REMARK    8  A    between atoms: C_19  and  S_20
REMARK    9  A    between atoms: S_20  and  C_21
REMARK                            x       y       z     vdW  Elec       q    Type
REMARK                         _______ _______ _______ _____ _____    ______ ____
ROOT
ATOM      1  C   UNL     1       1.322  11.288  20.067  0.00  0.00    +0.000 C 
ENDROOT
BRANCH   1   5
ATOM      2  N   UNL     1       1.932   7.694  19.599  0.00  0.00    +0.000 N 
ATOM      3  C   UNL     1       2.176   8.636  18.496  0.00  0.00    +0.000 C 
ATOM      4  C   UNL     1       0.974   9.617  18.329  0.00  0.00    +0.000 C 
ATOM      5  N   UNL     1       0.429  10.233  19.568  0.00  0.00    +0.000 NA
ATOM      6  C   UNL     1       0.206   9.151  20.554  0.00  0.00    +0.000 C 
ATOM      7  C   UNL     1       1.462   8.310  20.848  0.00  0.00    +0.000 C 
BRANCH   2  11
ATOM      8  C   UNL     1       2.413   3.510  19.208  0.00  0.00    +0.000 A 
ATOM      9  C   UNL     1       2.270   4.090  20.465  0.00  0.00    +0.000 A 
ATOM     10  C   UNL     1       2.121   5.480  20.604  0.00  0.00    +0.000 A 
ATOM     11  C   UNL     1       2.116   6.331  19.492  0.00  0.00    +0.000 A 
ATOM     12  C   UNL     1       2.312   5.721  18.242  0.00  0.00    +0.000 A 
ATOM     13  C   UNL     1       2.454   4.337  18.094  0.00  0.00    +0.000 A 
BRANCH   8  15
ATOM     14  C   UNL     1       3.512   1.639  18.279  0.00  0.00    +0.000 C 
ATOM     15  O   UNL     1       2.537   2.149  19.184  0.00  0.00    +0.000 OA
ENDBRANCH   8  15
ENDBRANCH   2  11
ENDBRANCH   1   5
BRANCH   1  16
ATOM     16  N   UNL     1       0.554  12.345  20.711  0.00  0.00    +0.000 N 
ATOM     17  N   UNL     1       0.214  12.285  22.050  0.00  0.00    +0.000 NA
ATOM     18  C   UNL     1      -0.542  13.326  22.202  0.00  0.00    +0.000 A 
ATOM     19  O   UNL     1      -0.738  14.086  21.099  0.00  0.00    +0.000 OA
ATOM     20  C   UNL     1      -0.031  13.440  20.134  0.00  0.00    +0.000 A 
ATOM     21  S   UNL     1      -0.004  14.050  18.600  0.00  0.00    +0.000 S 
BRANCH  18  22
ATOM     22  C   UNL     1      -1.217  13.779  23.452  0.00  0.00    +0.000 C 
BRANCH  22  23
ATOM     23  C   UNL     1      -2.714  13.903  23.314  0.00  0.00    +0.000 A 
ATOM     24  C   UNL     1      -3.348  15.130  23.542  0.00  0.00    +0.000 A 
ATOM     25  C   UNL     1      -4.735  15.251  23.391  0.00  0.00    +0.000 A 
ATOM     26  C   UNL     1      -5.516  14.154  23.010  0.00  0.00    +0.000 A 
ATOM     27  C   UNL     1      -4.887  12.922  22.816  0.00  0.00    +0.000 A 
ATOM     28  C   UNL     1      -3.499  12.796  22.965  0.00  0.00    +0.000 A 
BRANCH  26  29
ATOM     29  S   UNL     1      -7.279  14.405  22.862  0.00  0.00    +0.000 S 
ATOM     30  C   UNL     1      -7.418  16.214  22.880  0.00  0.00    +0.000 C 
ENDBRANCH  26  29
ENDBRANCH  22  23
ENDBRANCH  18  22
ENDBRANCH   1  16
TORSDOF 7
ENDMDL
MODEL 2
REMARK VINA RESULT:      -6.5      4.154     11.516
REMARK  Name = 
REMARK  9 active torsions:
REMARK  status: ('A' for Active; 'I' for Inactive)
REMARK    1  A    between atoms: C_1  and  O_2
REMARK    2  A    between atoms: O_2  and  C_3
REMARK    3  A    between atoms: C_6  and  N_7
REMARK    4  A    between atoms: N_10  and  C_11
REMARK    5  A    between atoms: C_11  and  N_12
REMARK    6  A    between atoms: C_14  and  C_15
REMARK    7  A    between atoms: C_15  and  C_16
REMARK    8  A    between atoms: C_19  and  S_20
REMARK    9  A    between atoms: S_20  and  C_21
REMARK                            x       y       z     vdW  Elec       q    Type
REMARK                         _______ _______ _______ _____ _____    ______ ____
ROOT
ATOM      1  C   UNL     1       1.337   6.842  19.972  0.00  0.00    +0.000 C 
ENDROOT
BRANCH   1   5
ATOM      2  N   UNL     1      -0.371   9.966  20.883  0.00  0.00    +0.000 N 
ATOM      3  C   UNL     1       0.018   9.715  19.486  0.00  0.00    +0.000 C 
ATOM      4  C   UNL     1       1.490   9.205  19.404  0.00  0.00    +0.000 C 
ATOM      5  N   UNL     1       1.891   8.144  20.365  0.00  0.00    +0.000 NA
ATOM      6  C   UNL     1       1.463   8.570  21.718  0.00  0.00    +0.000 C 
ATOM      7  C   UNL     1      -0.040   8.885  21.822  0.00  0.00    +0.000 C 
BRANCH   2  11
ATOM      8  C   UNL     1      -2.209  13.568  22.121  0.00  0.00    +0.000 A 
ATOM      9  C   UNL     1      -1.774  12.637  23.061  0.00  0.00    +0.000 A 
ATOM     10  C   UNL     1      -1.173  11.435  22.657  0.00  0.00    +0.000 A 
ATOM     11  C   UNL     1      -0.994  11.122  21.303  0.00  0.00    +0.000 A 
ATOM     12  C   UNL     1      -1.488  12.059  20.379  0.00  0.00    +0.000 A 
ATOM     13  C   UNL     1      -2.081  13.263  20.773  0.00  0.00    +0.000 A 
BRANCH   8  15
ATOM     14  C   UNL     1      -4.037  15.060  22.079  0.00  0.00    +0.000 C 
ATOM     15  O   UNL     1      -2.767  14.712  22.620  0.00  0.00    +0.000 OA
ENDBRANCH   8  15
ENDBRANCH   2  11
ENDBRANCH   1   5
BRANCH   1  16
ATOM     16  N   UNL     1       2.396   5.848  19.859  0.00  0.00    +0.000 N 
ATOM     17  N   UNL     1       3.680   6.194  19.479  0.00  0.00    +0.000 NA
ATOM     18  C   UNL     1       4.273   5.045  19.390  0.00  0.00    +0.000 A 
ATOM     19  O   UNL     1       3.517   3.960  19.678  0.00  0.00    +0.000 OA
ATOM     20  C   UNL     1       2.298   4.487  19.973  0.00  0.00    +0.000 A 
ATOM     21  S   UNL     1       1.057   3.481  20.390  0.00  0.00    +0.000 S 
BRANCH  18  22
ATOM     22  C   UNL     1       5.690   4.787  19.004  0.00  0.00    +0.000 C 
BRANCH  22  23
ATOM     23  C   UNL     1       5.884   4.599  17.520  0.00  0.00    +0.000 A 
ATOM     24  C   UNL     1       7.096   4.947  16.913  0.00  0.00    +0.000 A 
ATOM     25  C   UNL     1       7.284   4.751  15.540  0.00  0.00    +0.000 A 
ATOM     26  C   UNL     1       6.270   4.204  14.745  0.00  0.00    +0.000 A 
ATOM     27  C   UNL     1       5.049   3.888  15.345  0.00  0.00    +0.000 A 
ATOM     28  C   UNL     1       4.856   4.082  16.720  0.00  0.00    +0.000 A 
BRANCH  26  29
ATOM     29  S   UNL     1       6.600   4.010  13.000  0.00  0.00    +0.000 S 
ATOM     30  C   UNL     1       5.005   3.427  12.364  0.00  0.00    +0.000 C 
ENDBRANCH  26  29
ENDBRANCH  22  23
ENDBRANCH  18  22
ENDBRANCH   1  16
TORSDOF 7
ENDMDL
MODEL 3
REMARK VINA RESULT:      -6.5      4.205     11.576
REMARK  Name = 
REMARK  9 active torsions:
REMARK  status: ('A' for Active; 'I' for Inactive)
REMARK    1  A    between atoms: C_1  and  O_2
REMARK    2  A    between atoms: O_2  and  C_3
REMARK    3  A    between atoms: C_6  and  N_7
REMARK    4  A    between atoms: N_10  and  C_11
REMARK    5  A    between atoms: C_11  and  N_12
REMARK    6  A    between atoms: C_14  and  C_15
REMARK    7  A    between atoms: C_15  and  C_16
REMARK    8  A    between atoms: C_19  and  S_20
REMARK    9  A    between atoms: S_20  and  C_21
REMARK                            x       y       z     vdW  Elec       q    Type
REMARK                         _______ _______ _______ _____ _____    ______ ____
ROOT
ATOM      1  C   UNL     1       1.324   6.900  19.977  0.00  0.00    +0.000 C 
ENDROOT
BRANCH   1   5
ATOM      2  N   UNL     1      -0.387  10.029  20.865  0.00  0.00    +0.000 N 
ATOM      3  C   UNL     1       0.011   9.772  19.471  0.00  0.00    +0.000 C 
ATOM      4  C   UNL     1       1.483   9.261  19.401  0.00  0.00    +0.000 C 
ATOM      5  N   UNL     1       1.878   8.203  20.368  0.00  0.00    +0.000 NA
ATOM      6  C   UNL     1       1.441   8.635  21.717  0.00  0.00    +0.000 C 
ATOM      7  C   UNL     1      -0.062   8.951  21.811  0.00  0.00    +0.000 C 
BRANCH   2  11
ATOM      8  C   UNL     1      -2.366  13.523  22.192  0.00  0.00    +0.000 A 
ATOM      9  C   UNL     1      -2.337  13.198  20.838  0.00  0.00    +0.000 A 
ATOM     10  C   UNL     1      -1.673  12.045  20.389  0.00  0.00    +0.000 A 
ATOM     11  C   UNL     1      -1.012  11.187  21.277  0.00  0.00    +0.000 A 
ATOM     12  C   UNL     1      -1.017  11.569  22.629  0.00  0.00    +0.000 A 
ATOM     13  C   UNL     1      -1.683  12.711  23.087  0.00  0.00    +0.000 A 
BRANCH   8  15
ATOM     14  C   UNL     1      -2.464  15.451  23.551  0.00  0.00    +0.000 C 
ATOM     15  O   UNL     1      -3.052  14.658  22.524  0.00  0.00    +0.000 OA
ENDBRANCH   8  15
ENDBRANCH   2  11
ENDBRANCH   1   5
BRANCH   1  16
ATOM     16  N   UNL     1       2.382   5.902  19.888  0.00  0.00    +0.000 N 
ATOM     17  N   UNL     1       3.661   6.233  19.480  0.00  0.00    +0.000 NA
ATOM     18  C   UNL     1       4.252   5.081  19.426  0.00  0.00    +0.000 A 
ATOM     19  O   UNL     1       3.499   4.008  19.765  0.00  0.00    +0.000 OA
ATOM     20  C   UNL     1       2.285   4.547  20.055  0.00  0.00    +0.000 A 
ATOM     21  S   UNL     1       1.049   3.558  20.525  0.00  0.00    +0.000 S 
BRANCH  18  22
ATOM     22  C   UNL     1       5.665   4.807  19.033  0.00  0.00    +0.000 C 
BRANCH  22  23
ATOM     23  C   UNL     1       5.848   4.615  17.548  0.00  0.00    +0.000 A 
ATOM     24  C   UNL     1       7.117   4.727  16.970  0.00  0.00    +0.000 A 
ATOM     25  C   UNL     1       7.291   4.526  15.595  0.00  0.00    +0.000 A 
ATOM     26  C   UNL     1       6.206   4.209  14.771  0.00  0.00    +0.000 A 
ATOM     27  C   UNL     1       4.934   4.130  15.343  0.00  0.00    +0.000 A 
ATOM     28  C   UNL     1       4.755   4.330  16.719  0.00  0.00    +0.000 A 
BRANCH  26  29
ATOM     29  S   UNL     1       6.527   3.989  13.027  0.00  0.00    +0.000 S 
ATOM     30  C   UNL     1       7.814   5.226  12.709  0.00  0.00    +0.000 C 
ENDBRANCH  26  29
ENDBRANCH  22  23
ENDBRANCH  18  22
ENDBRANCH   1  16
TORSDOF 7
ENDMDL
MODEL 4
REMARK VINA RESULT:      -6.4      3.549     11.281
REMARK  Name = 
REMARK  9 active torsions:
REMARK  status: ('A' for Active; 'I' for Inactive)
REMARK    1  A    between atoms: C_1  and  O_2
REMARK    2  A    between atoms: O_2  and  C_3
REMARK    3  A    between atoms: C_6  and  N_7
REMARK    4  A    between atoms: N_10  and  C_11
REMARK    5  A    between atoms: C_11  and  N_12
REMARK    6  A    between atoms: C_14  and  C_15
REMARK    7  A    between atoms: C_15  and  C_16
REMARK    8  A    between atoms: C_19  and  S_20
REMARK    9  A    between atoms: S_20  and  C_21
REMARK                            x       y       z     vdW  Elec       q    Type
REMARK                         _______ _______ _______ _____ _____    ______ ____
ROOT
ATOM      1  C   UNL     1       0.336   8.664  20.830  0.00  0.00    +0.000 C 
ENDROOT
BRANCH   1   5
ATOM      2  N   UNL     1      -1.229  11.534  22.510  0.00  0.00    +0.000 N 
ATOM      3  C   UNL     1      -0.701  11.673  21.143  0.00  0.00    +0.000 C 
ATOM      4  C   UNL     1       0.728  11.059  21.036  0.00  0.00    +0.000 C 
ATOM      5  N   UNL     1       0.936   9.722  21.653  0.00  0.00    +0.000 NA
ATOM      6  C   UNL     1       0.388   9.766  23.029  0.00  0.00    +0.000 C 
ATOM      7  C   UNL     1      -1.089  10.192  23.094  0.00  0.00    +0.000 C 
BRANCH   2  11
ATOM      8  C   UNL     1      -3.088  14.712  24.590  0.00  0.00    +0.000 A 
ATOM      9  C   UNL     1      -1.791  14.850  24.103  0.00  0.00    +0.000 A 
ATOM     10  C   UNL     1      -1.164  13.795  23.420  0.00  0.00    +0.000 A 
ATOM     11  C   UNL     1      -1.809  12.570  23.211  0.00  0.00    +0.000 A 
ATOM     12  C   UNL     1      -3.098  12.446  23.758  0.00  0.00    +0.000 A 
ATOM     13  C   UNL     1      -3.733  13.494  24.432  0.00  0.00    +0.000 A 
BRANCH   8  15
ATOM     14  C   UNL     1      -4.667  16.467  24.537  0.00  0.00    +0.000 C 
ATOM     15  O   UNL     1      -3.610  15.804  25.226  0.00  0.00    +0.000 OA
ENDBRANCH   8  15
ENDBRANCH   2  11
ENDBRANCH   1   5
BRANCH   1  16
ATOM     16  N   UNL     1       1.364   7.953  20.082  0.00  0.00    +0.000 N 
ATOM     17  N   UNL     1       1.948   6.797  20.567  0.00  0.00    +0.000 NA
ATOM     18  C   UNL     1       2.865   6.547  19.686  0.00  0.00    +0.000 A 
ATOM     19  O   UNL     1       2.951   7.416  18.652  0.00  0.00    +0.000 OA
ATOM     20  C   UNL     1       1.980   8.330  18.919  0.00  0.00    +0.000 A 
ATOM     21  S   UNL     1       1.742   9.591  17.880  0.00  0.00    +0.000 S 
BRANCH  18  22
ATOM     22  C   UNL     1       3.833   5.413  19.686  0.00  0.00    +0.000 C 
BRANCH  22  23
ATOM     23  C   UNL     1       4.331   5.049  18.310  0.00  0.00    +0.000 A 
ATOM     24  C   UNL     1       5.458   5.680  17.773  0.00  0.00    +0.000 A 
ATOM     25  C   UNL     1       5.934   5.326  16.505  0.00  0.00    +0.000 A 
ATOM     26  C   UNL     1       5.297   4.336  15.747  0.00  0.00    +0.000 A 
ATOM     27  C   UNL     1       4.153   3.729  16.269  0.00  0.00    +0.000 A 
ATOM     28  C   UNL     1       3.673   4.080  17.539  0.00  0.00    +0.000 A 
BRANCH  26  29
ATOM     29  S   UNL     1       5.970   3.967  14.134  0.00  0.00    +0.000 S 
ATOM     30  C   UNL     1       7.400   5.081  14.044  0.00  0.00    +0.000 C 
ENDBRANCH  26  29
ENDBRANCH  22  23
ENDBRANCH  18  22
ENDBRANCH   1  16
TORSDOF 7
ENDMDL
MODEL 5
REMARK VINA RESULT:      -6.4      3.502     11.340
REMARK  Name = 
REMARK  9 active torsions:
REMARK  status: ('A' for Active; 'I' for Inactive)
REMARK    1  A    between atoms: C_1  and  O_2
REMARK    2  A    between atoms: O_2  and  C_3
REMARK    3  A    between atoms: C_6  and  N_7
REMARK    4  A    between atoms: N_10  and  C_11
REMARK    5  A    between atoms: C_11  and  N_12
REMARK    6  A    between atoms: C_14  and  C_15
REMARK    7  A    between atoms: C_15  and  C_16
REMARK    8  A    between atoms: C_19  and  S_20
REMARK    9  A    between atoms: S_20  and  C_21
REMARK                            x       y       z     vdW  Elec       q    Type
REMARK                         _______ _______ _______ _____ _____    ______ ____
ROOT
ATOM      1  C   UNL     1       1.295   8.830  21.208  0.00  0.00    +0.000 C 
ENDROOT
BRANCH   1   5
ATOM      2  N   UNL     1      -0.998  11.520  22.214  0.00  0.00    +0.000 N 
ATOM      3  C   UNL     1      -0.585  10.497  23.187  0.00  0.00    +0.000 C 
ATOM      4  C   UNL     1      -0.707   9.068  22.575  0.00  0.00    +0.000 C 
ATOM      5  N   UNL     1      -0.173   8.874  21.201  0.00  0.00    +0.000 NA
ATOM      6  C   UNL     1      -0.714   9.957  20.346  0.00  0.00    +0.000 C 
ATOM      7  C   UNL     1      -0.414  11.372  20.873  0.00  0.00    +0.000 C 
BRANCH   2  11
ATOM      8  C   UNL     1      -3.663  14.701  23.027  0.00  0.00    +0.000 A 
ATOM      9  C   UNL     1      -2.516  14.527  23.796  0.00  0.00    +0.000 A 
ATOM     10  C   UNL     1      -1.631  13.467  23.538  0.00  0.00    +0.000 A 
ATOM     11  C   UNL     1      -1.871  12.545  22.511  0.00  0.00    +0.000 A 
ATOM     12  C   UNL     1      -3.063  12.719  21.787  0.00  0.00    +0.000 A 
ATOM     13  C   UNL     1      -3.945  13.777  22.031  0.00  0.00    +0.000 A 
BRANCH   8  15
ATOM     14  C   UNL     1      -3.940  17.045  22.960  0.00  0.00    +0.000 C 
ATOM     15  O   UNL     1      -4.448  15.773  23.352  0.00  0.00    +0.000 OA
ENDBRANCH   8  15
ENDBRANCH   2  11
ENDBRANCH   1   5
BRANCH   1  16
ATOM     16  N   UNL     1       1.784   7.922  20.179  0.00  0.00    +0.000 N 
ATOM     17  N   UNL     1       2.167   6.626  20.475  0.00  0.00    +0.000 NA
ATOM     18  C   UNL     1       2.634   6.199  19.344  0.00  0.00    +0.000 A 
ATOM     19  O   UNL     1       2.597   7.077  18.314  0.00  0.00    +0.000 OA
ATOM     20  C   UNL     1       2.051   8.195  18.865  0.00  0.00    +0.000 A 
ATOM     21  S   UNL     1       1.824   9.534  17.927  0.00  0.00    +0.000 S 
BRANCH  18  22
ATOM     22  C   UNL     1       3.207   4.853  19.053  0.00  0.00    +0.000 C 
BRANCH  22  23
ATOM     23  C   UNL     1       4.177   4.851  17.898  0.00  0.00    +0.000 A 
ATOM     24  C   UNL     1       4.083   3.881  16.895  0.00  0.00    +0.000 A 
ATOM     25  C   UNL     1       4.969   3.893  15.811  0.00  0.00    +0.000 A 
ATOM     26  C   UNL     1       5.965   4.871  15.705  0.00  0.00    +0.000 A 
ATOM     27  C   UNL     1       6.080   5.819  16.724  0.00  0.00    +0.000 A 
ATOM     28  C   UNL     1       5.194   5.811  17.811  0.00  0.00    +0.000 A 
BRANCH  26  29
ATOM     29  S   UNL     1       7.057   4.791  14.294  0.00  0.00    +0.000 S 
ATOM     30  C   UNL     1       6.150   3.704  13.159  0.00  0.00    +0.000 C 
ENDBRANCH  26  29
ENDBRANCH  22  23
ENDBRANCH  18  22
ENDBRANCH   1  16
TORSDOF 7
ENDMDL
MODEL 6
REMARK VINA RESULT:      -6.3      3.454     11.291
REMARK  Name = 
REMARK  9 active torsions:
REMARK  status: ('A' for Active; 'I' for Inactive)
REMARK    1  A    between atoms: C_1  and  O_2
REMARK    2  A    between atoms: O_2  and  C_3
REMARK    3  A    between atoms: C_6  and  N_7
REMARK    4  A    between atoms: N_10  and  C_11
REMARK    5  A    between atoms: C_11  and  N_12
REMARK    6  A    between atoms: C_14  and  C_15
REMARK    7  A    between atoms: C_15  and  C_16
REMARK    8  A    between atoms: C_19  and  S_20
REMARK    9  A    between atoms: S_20  and  C_21
REMARK                            x       y       z     vdW  Elec       q    Type
REMARK                         _______ _______ _______ _____ _____    ______ ____
ROOT
ATOM      1  C   UNL     1       0.164   8.762  20.915  0.00  0.00    +0.000 C 
ENDROOT
BRANCH   1   5
ATOM      2  N   UNL     1      -0.999  11.946  22.332  0.00  0.00    +0.000 N 
ATOM      3  C   UNL     1      -0.242  11.931  21.071  0.00  0.00    +0.000 C 
ATOM      4  C   UNL     1       1.021  11.024  21.194  0.00  0.00    +0.000 C 
ATOM      5  N   UNL     1       0.838   9.693  21.830  0.00  0.00    +0.000 NA
ATOM      6  C   UNL     1       0.098   9.892  23.098  0.00  0.00    +0.000 C 
ATOM      7  C   UNL     1      -1.245  10.624  22.925  0.00  0.00    +0.000 C 
BRANCH   2  11
ATOM      8  C   UNL     1      -2.302  15.481  24.255  0.00  0.00    +0.000 A 
ATOM      9  C   UNL     1      -3.176  14.412  24.073  0.00  0.00    +0.000 A 
ATOM     10  C   UNL     1      -2.754  13.240  23.427  0.00  0.00    +0.000 A 
ATOM     11  C   UNL     1      -1.449  13.102  22.936  0.00  0.00    +0.000 A 
ATOM     12  C   UNL     1      -0.607  14.217  23.090  0.00  0.00    +0.000 A 
ATOM     13  C   UNL     1      -1.017  15.385  23.741  0.00  0.00    +0.000 A 
BRANCH   8  15
ATOM     14  C   UNL     1      -4.231  16.669  24.919  0.00  0.00    +0.000 C 
ATOM     15  O   UNL     1      -2.810  16.568  24.910  0.00  0.00    +0.000 OA
ENDBRANCH   8  15
ENDBRANCH   2  11
ENDBRANCH   1   5
BRANCH   1  16
ATOM     16  N   UNL     1       1.140   7.940  20.213  0.00  0.00    +0.000 N 
ATOM     17  N   UNL     1       1.572   6.729  20.723  0.00  0.00    +0.000 NA
ATOM     18  C   UNL     1       2.495   6.376  19.883  0.00  0.00    +0.000 A 
ATOM     19  O   UNL     1       2.721   7.226  18.854  0.00  0.00    +0.000 OA
ATOM     20  C   UNL     1       1.845   8.242  19.078  0.00  0.00    +0.000 A 
ATOM     21  S   UNL     1       1.793   9.516  18.030  0.00  0.00    +0.000 S 
BRANCH  18  22
ATOM     22  C   UNL     1       3.332   5.143  19.926  0.00  0.00    +0.000 C 
BRANCH  22  23
ATOM     23  C   UNL     1       4.252   5.001  18.739  0.00  0.00    +0.000 A 
ATOM     24  C   UNL     1       3.786   4.444  17.543  0.00  0.00    +0.000 A 
ATOM     25  C   UNL     1       4.634   4.334  16.434  0.00  0.00    +0.000 A 
ATOM     26  C   UNL     1       5.961   4.776  16.495  0.00  0.00    +0.000 A 
ATOM     27  C   UNL     1       6.435   5.301  17.699  0.00  0.00    +0.000 A 
ATOM     28  C   UNL     1       5.589   5.414  18.812  0.00  0.00    +0.000 A 
BRANCH  26  29
ATOM     29  S   UNL     1       6.967   4.576  15.032  0.00  0.00    +0.000 S 
ATOM     30  C   UNL     1       5.778   3.928  13.826  0.00  0.00    +0.000 C 
ENDBRANCH  26  29
ENDBRANCH  22  23
ENDBRANCH  18  22
ENDBRANCH   1  16
TORSDOF 7
ENDMDL
MODEL 7
REMARK VINA RESULT:      -6.3      2.235      2.880
REMARK  Name = 
REMARK  9 active torsions:
REMARK  status: ('A' for Active; 'I' for Inactive)
REMARK    1  A    between atoms: C_1  and  O_2
REMARK    2  A    between atoms: O_2  and  C_3
REMARK    3  A    between atoms: C_6  and  N_7
REMARK    4  A    between atoms: N_10  and  C_11
REMARK    5  A    between atoms: C_11  and  N_12
REMARK    6  A    between atoms: C_14  and  C_15
REMARK    7  A    between atoms: C_15  and  C_16
REMARK    8  A    between atoms: C_19  and  S_20
REMARK    9  A    between atoms: S_20  and  C_21
REMARK                            x       y       z     vdW  Elec       q    Type
REMARK                         _______ _______ _______ _____ _____    ______ ____
ROOT
ATOM      1  C   UNL     1       0.435  10.699  21.480  0.00  0.00    +0.000 C 
ENDROOT
BRANCH   1   5
ATOM      2  N   UNL     1       1.990   8.065  19.442  0.00  0.00    +0.000 N 
ATOM      3  C   UNL     1       1.677   9.374  18.847  0.00  0.00    +0.000 C 
ATOM      4  C   UNL     1       0.229   9.820  19.218  0.00  0.00    +0.000 C 
ATOM      5  N   UNL     1      -0.182   9.665  20.638  0.00  0.00    +0.000 NA
ATOM      6  C   UNL     1       0.166   8.289  21.065  0.00  0.00    +0.000 C 
ATOM      7  C   UNL     1       1.651   7.935  20.866  0.00  0.00    +0.000 C 
BRANCH   2  11
ATOM      8  C   UNL     1       3.736   4.819  17.368  0.00  0.00    +0.000 A 
ATOM      9  C   UNL     1       4.232   6.110  17.206  0.00  0.00    +0.000 A 
ATOM     10  C   UNL     1       3.651   7.194  17.883  0.00  0.00    +0.000 A 
ATOM     11  C   UNL     1       2.553   7.023  18.736  0.00  0.00    +0.000 A 
ATOM     12  C   UNL     1       2.045   5.717  18.839  0.00  0.00    +0.000 A 
ATOM     13  C   UNL     1       2.623   4.630  18.175  0.00  0.00    +0.000 A 
BRANCH   8  15
ATOM     14  C   UNL     1       5.232   4.284  15.622  0.00  0.00    +0.000 C 
ATOM     15  O   UNL     1       4.384   3.835  16.675  0.00  0.00    +0.000 OA
ENDBRANCH   8  15
ENDBRANCH   2  11
ENDBRANCH   1   5
BRANCH   1  16
ATOM     16  N   UNL     1      -0.140  12.005  21.188  0.00  0.00    +0.000 N 
ATOM     17  N   UNL     1      -1.492  12.254  21.340  0.00  0.00    +0.000 NA
ATOM     18  C   UNL     1      -1.615  13.461  20.883  0.00  0.00    +0.000 A 
ATOM     19  O   UNL     1      -0.478  14.051  20.444  0.00  0.00    +0.000 OA
ATOM     20  C   UNL     1       0.473  13.098  20.638  0.00  0.00    +0.000 A 
ATOM     21  S   UNL     1       2.039  13.418  20.225  0.00  0.00    +0.000 S 
BRANCH  18  22
ATOM     22  C   UNL     1      -2.865  14.268  20.785  0.00  0.00    +0.000 C 
BRANCH  22  23
ATOM     23  C   UNL     1      -4.122  13.434  20.826  0.00  0.00    +0.000 A 
ATOM     24  C   UNL     1      -4.498  12.663  19.721  0.00  0.00    +0.000 A 
ATOM     25  C   UNL     1      -5.652  11.871  19.767  0.00  0.00    +0.000 A 
ATOM     26  C   UNL     1      -6.453  11.832  20.914  0.00  0.00    +0.000 A 
ATOM     27  C   UNL     1      -6.096  12.629  22.005  0.00  0.00    +0.000 A 
ATOM     28  C   UNL     1      -4.941  13.423  21.963  0.00  0.00    +0.000 A 
BRANCH  26  29
ATOM     29  S   UNL     1      -7.915  10.806  20.869  0.00  0.00    +0.000 S 
ATOM     30  C   UNL     1      -7.289   9.270  20.133  0.00  0.00    +0.000 C 
ENDBRANCH  26  29
ENDBRANCH  22  23
ENDBRANCH  18  22
ENDBRANCH   1  16
TORSDOF 7
ENDMDL
MODEL 8
REMARK VINA RESULT:      -6.2      1.008      1.449
REMARK  Name = 
REMARK  9 active torsions:
REMARK  status: ('A' for Active; 'I' for Inactive)
REMARK    1  A    between atoms: C_1  and  O_2
REMARK    2  A    between atoms: O_2  and  C_3
REMARK    3  A    between atoms: C_6  and  N_7
REMARK    4  A    between atoms: N_10  and  C_11
REMARK    5  A    between atoms: C_11  and  N_12
REMARK    6  A    between atoms: C_14  and  C_15
REMARK    7  A    between atoms: C_15  and  C_16
REMARK    8  A    between atoms: C_19  and  S_20
REMARK    9  A    between atoms: S_20  and  C_21
REMARK                            x       y       z     vdW  Elec       q    Type
REMARK                         _______ _______ _______ _____ _____    ______ ____
ROOT
ATOM      1  C   UNL     1       1.280  11.177  19.865  0.00  0.00    +0.000 C 
ENDROOT
BRANCH   1   5
ATOM      2  N   UNL     1       2.156   7.772  18.795  0.00  0.00    +0.000 N 
ATOM      3  C   UNL     1       1.961   8.835  17.796  0.00  0.00    +0.000 C 
ATOM      4  C   UNL     1       0.654   9.636  18.086  0.00  0.00    +0.000 C 
ATOM      5  N   UNL     1       0.415  10.050  19.494  0.00  0.00    +0.000 NA
ATOM      6  C   UNL     1       0.612   8.862  20.357  0.00  0.00    +0.000 C 
ATOM      7  C   UNL     1       1.991   8.197  20.192  0.00  0.00    +0.000 C 
BRANCH   2  11
ATOM      8  C   UNL     1       3.134   3.806  17.698  0.00  0.00    +0.000 A 
ATOM      9  C   UNL     1       1.835   4.135  18.077  0.00  0.00    +0.000 A 
ATOM     10  C   UNL     1       1.505   5.447  18.452  0.00  0.00    +0.000 A 
ATOM     11  C   UNL     1       2.464   6.468  18.468  0.00  0.00    +0.000 A 
ATOM     12  C   UNL     1       3.775   6.094  18.129  0.00  0.00    +0.000 A 
ATOM     13  C   UNL     1       4.110   4.791  17.746  0.00  0.00    +0.000 A 
BRANCH   8  15
ATOM     14  C   UNL     1       3.657   1.616  18.406  0.00  0.00    +0.000 C 
ATOM     15  O   UNL     1       3.344   2.504  17.337  0.00  0.00    +0.000 OA
ENDBRANCH   8  15
ENDBRANCH   2  11
ENDBRANCH   1   5
BRANCH   1  16
ATOM     16  N   UNL     1       0.523  12.184  20.597  0.00  0.00    +0.000 N 
ATOM     17  N   UNL     1       0.177  12.010  21.924  0.00  0.00    +0.000 NA
ATOM     18  C   UNL     1      -0.567  13.044  22.165  0.00  0.00    +0.000 A 
ATOM     19  O   UNL     1      -0.750  13.900  21.132  0.00  0.00    +0.000 OA
ATOM     20  C   UNL     1      -0.047  13.332  20.116  0.00  0.00    +0.000 A 
ATOM     21  S   UNL     1      -0.006  14.074  18.641  0.00  0.00    +0.000 S 
BRANCH  18  22
ATOM     22  C   UNL     1      -1.242  13.394  23.448  0.00  0.00    +0.000 C 
BRANCH  22  23
ATOM     23  C   UNL     1      -2.717  13.667  23.295  0.00  0.00    +0.000 A 
ATOM     24  C   UNL     1      -3.583  12.659  22.856  0.00  0.00    +0.000 A 
ATOM     25  C   UNL     1      -4.956  12.906  22.737  0.00  0.00    +0.000 A 
ATOM     26  C   UNL     1      -5.493  14.159  23.052  0.00  0.00    +0.000 A 
ATOM     27  C   UNL     1      -4.624  15.174  23.458  0.00  0.00    +0.000 A 
ATOM     28  C   UNL     1      -3.248  14.932  23.580  0.00  0.00    +0.000 A 
BRANCH  26  29
ATOM     29  S   UNL     1      -7.255  14.380  22.850  0.00  0.00    +0.000 S 
ATOM     30  C   UNL     1      -7.916  12.800  23.448  0.00  0.00    +0.000 C 
ENDBRANCH  26  29
ENDBRANCH  22  23
ENDBRANCH  18  22
ENDBRANCH   1  16
TORSDOF 7
ENDMDL
MODEL 9
REMARK VINA RESULT:      -6.2      3.067     10.496
REMARK  Name = 
REMARK  9 active torsions:
REMARK  status: ('A' for Active; 'I' for Inactive)
REMARK    1  A    between atoms: C_1  and  O_2
REMARK    2  A    between atoms: O_2  and  C_3
REMARK    3  A    between atoms: C_6  and  N_7
REMARK    4  A    between atoms: N_10  and  C_11
REMARK    5  A    between atoms: C_11  and  N_12
REMARK    6  A    between atoms: C_14  and  C_15
REMARK    7  A    between atoms: C_15  and  C_16
REMARK    8  A    between atoms: C_19  and  S_20
REMARK    9  A    between atoms: S_20  and  C_21
REMARK                            x       y       z     vdW  Elec       q    Type
REMARK                         _______ _______ _______ _____ _____    ______ ____
ROOT
ATOM      1  C   UNL     1       0.783  12.380  19.106  0.00  0.00    +0.000 C 
ENDROOT
BRANCH   1   5
ATOM      2  N   UNL     1      -1.411  14.178  21.442  0.00  0.00    +0.000 N 
ATOM      3  C   UNL     1      -0.197  14.825  20.920  0.00  0.00    +0.000 C 
ATOM      4  C   UNL     1       1.028  13.865  21.020  0.00  0.00    +0.000 C 
ATOM      5  N   UNL     1       0.826  12.462  20.572  0.00  0.00    +0.000 NA
ATOM      6  C   UNL     1      -0.408  11.953  21.215  0.00  0.00    +0.000 C 
ATOM      7  C   UNL     1      -1.652  12.817  20.942  0.00  0.00    +0.000 C 
BRANCH   2  11
ATOM      8  C   UNL     1      -4.119  15.955  24.162  0.00  0.00    +0.000 A 
ATOM      9  C   UNL     1      -3.564  16.703  23.127  0.00  0.00    +0.000 A 
ATOM     10  C   UNL     1      -2.656  16.123  22.227  0.00  0.00    +0.000 A 
ATOM     11  C   UNL     1      -2.270  14.781  22.337  0.00  0.00    +0.000 A 
ATOM     12  C   UNL     1      -2.810  14.067  23.420  0.00  0.00    +0.000 A 
ATOM     13  C   UNL     1      -3.722  14.635  24.317  0.00  0.00    +0.000 A 
BRANCH   8  15
ATOM     14  C   UNL     1      -4.616  17.927  25.360  0.00  0.00    +0.000 C 
ATOM     15  O   UNL     1      -5.003  16.612  24.972  0.00  0.00    +0.000 OA
ENDBRANCH   8  15
ENDBRANCH   2  11
ENDBRANCH   1   5
BRANCH   1  16
ATOM     16  N   UNL     1       0.925  10.998  18.667  0.00  0.00    +0.000 N 
ATOM     17  N   UNL     1       2.155  10.366  18.644  0.00  0.00    +0.000 NA
ATOM     18  C   UNL     1       1.880   9.222  18.100  0.00  0.00    +0.000 A 
ATOM     19  O   UNL     1       0.585   9.020  17.761  0.00  0.00    +0.000 OA
ATOM     20  C   UNL     1      -0.027  10.179  18.124  0.00  0.00    +0.000 A 
ATOM     21  S   UNL     1      -1.650  10.352  17.878  0.00  0.00    +0.000 S 
BRANCH  18  22
ATOM     22  C   UNL     1       2.828   8.110  17.806  0.00  0.00    +0.000 C 
BRANCH  22  23
ATOM     23  C   UNL     1       2.433   6.800  18.441  0.00  0.00    +0.000 A 
ATOM     24  C   UNL     1       2.303   6.696  19.830  0.00  0.00    +0.000 A 
ATOM     25  C   UNL     1       1.913   5.487  20.418  0.00  0.00    +0.000 A 
ATOM     26  C   UNL     1       1.644   4.359  19.635  0.00  0.00    +0.000 A 
ATOM     27  C   UNL     1       1.806   4.454  18.251  0.00  0.00    +0.000 A 
ATOM     28  C   UNL     1       2.196   5.662  17.657  0.00  0.00    +0.000 A 
BRANCH  26  29
ATOM     29  S   UNL     1       1.170   2.858  20.480  0.00  0.00    +0.000 S 
ATOM     30  C   UNL     1       2.440   2.719  21.769  0.00  0.00    +0.000 C 
ENDBRANCH  26  29
ENDBRANCH  22  23
ENDBRANCH  18  22
ENDBRANCH   1  16
TORSDOF 7
ENDMDL
