MODEL 1
REMARK VINA RESULT:      -5.5      0.000      0.000
REMARK  Name = 
REMARK  5 active torsions:
REMARK  status: ('A' for Active; 'I' for Inactive)
REMARK    1  A    between atoms: C_1  and  C_2
REMARK    2  A    between atoms: C_6  and  O_7
REMARK    3  A    between atoms: C_8  and  C_9
REMARK    4  A    between atoms: C_9  and  N_10
REMARK    5  A    between atoms: C_11  and  C_12
REMARK                            x       y       z     vdW  Elec       q    Type
REMARK                         _______ _______ _______ _____ _____    ______ ____
ROOT
ATOM      1  C   UNL     1       2.197   7.516  19.532  0.00  0.00    +0.000 C 
ATOM      2  C   UNL     1       2.946   6.365  18.909  0.00  0.00    +0.000 A 
ATOM      3  C   UNL     1       3.692   6.616  17.748  0.00  0.00    +0.000 A 
ATOM      4  C   UNL     1       4.402   5.591  17.142  0.00  0.00    +0.000 A 
ATOM      5 CL   UNL     1       5.281   5.915  15.693  0.00  0.00    +0.000 Cl
ATOM      6  C   UNL     1       4.397   4.309  17.698  0.00  0.00    +0.000 A 
ATOM      7  C   UNL     1       3.680   4.012  18.877  0.00  0.00    +0.000 A 
ATOM      8  C   UNL     1       2.897   5.052  19.458  0.00  0.00    +0.000 A 
ATOM      9  C   UNL     1       2.034   4.817  20.676  0.00  0.00    +0.000 C 
ENDROOT
BRANCH   6  10
ATOM     10  O   UNL     1       5.092   3.300  17.073  0.00  0.00    +0.000 OA
ATOM     11  H   UNL     1       5.972   3.254  17.495  0.00  0.00    +0.000 HD
ENDBRANCH   6  10
BRANCH   7  12
ATOM     12  C   UNL     1       3.700   2.576  19.374  0.00  0.00    +0.000 C 
BRANCH  12  13
ATOM     13  N   UNL     1       4.986   2.122  19.899  0.00  0.00    +0.000 NA
ATOM     14  H   UNL     1       5.313   1.348  19.325  0.00  0.00    +0.000 HD
ATOM     15  H   UNL     1       4.832   1.738  20.834  0.00  0.00    +0.000 HD
ENDBRANCH  12  13
ENDBRANCH   7  12
TORSDOF 3
ENDMDL
MODEL 2
REMARK VINA RESULT:      -5.5      1.514      1.598
REMARK  Name = 
REMARK  5 active torsions:
REMARK  status: ('A' for Active; 'I' for Inactive)
REMARK    1  A    between atoms: C_1  and  C_2
REMARK    2  A    between atoms: C_6  and  O_7
REMARK    3  A    between atoms: C_8  and  C_9
REMARK    4  A    between atoms: C_9  and  N_10
REMARK    5  A    between atoms: C_11  and  C_12
REMARK                            x       y       z     vdW  Elec       q    Type
REMARK                         _______ _______ _______ _____ _____    ______ ____
ROOT
ATOM      1  C   UNL     1       2.364   7.604  17.844  0.00  0.00    +0.000 C 
ATOM      2  C   UNL     1       3.488   6.599  17.899  0.00  0.00    +0.000 A 
ATOM      3  C   UNL     1       4.787   7.049  17.620  0.00  0.00    +0.000 A 
ATOM      4  C   UNL     1       5.853   6.163  17.664  0.00  0.00    +0.000 A 
ATOM      5 CL   UNL     1       7.436   6.731  17.277  0.00  0.00    +0.000 Cl
ATOM      6  C   UNL     1       5.643   4.826  18.011  0.00  0.00    +0.000 A 
ATOM      7  C   UNL     1       4.357   4.333  18.323  0.00  0.00    +0.000 A 
ATOM      8  C   UNL     1       3.255   5.230  18.209  0.00  0.00    +0.000 A 
ATOM      9  C   UNL     1       1.833   4.780  18.447  0.00  0.00    +0.000 C 
ENDROOT
BRANCH   6  10
ATOM     10  O   UNL     1       6.710   3.959  18.032  0.00  0.00    +0.000 OA
ATOM     11  H   UNL     1       6.379   3.108  18.379  0.00  0.00    +0.000 HD
ENDBRANCH   6  10
BRANCH   7  12
ATOM     12  C   UNL     1       4.228   2.852  18.640  0.00  0.00    +0.000 C 
BRANCH  12  13
ATOM     13  N   UNL     1       4.975   2.405  19.815  0.00  0.00    +0.000 NA
ATOM     14  H   UNL     1       5.055   1.391  19.778  0.00  0.00    +0.000 HD
ATOM     15  H   UNL     1       4.419   2.617  20.646  0.00  0.00    +0.000 HD
ENDBRANCH  12  13
ENDBRANCH   7  12
TORSDOF 3
ENDMDL
MODEL 3
REMARK VINA RESULT:      -5.5      2.445      3.325
REMARK  Name = 
REMARK  5 active torsions:
REMARK  status: ('A' for Active; 'I' for Inactive)
REMARK    1  A    between atoms: C_1  and  C_2
REMARK    2  A    between atoms: C_6  and  O_7
REMARK    3  A    between atoms: C_8  and  C_9
REMARK    4  A    between atoms: C_9  and  N_10
REMARK    5  A    between atoms: C_11  and  C_12
REMARK                            x       y       z     vdW  Elec       q    Type
REMARK                         _______ _______ _______ _____ _____    ______ ____
ROOT
ATOM      1  C   UNL     1       2.530   7.732  17.911  0.00  0.00    +0.000 C 
ATOM      2  C   UNL     1       3.261   6.456  18.250  0.00  0.00    +0.000 A 
ATOM      3  C   UNL     1       2.739   5.651  19.273  0.00  0.00    +0.000 A 
ATOM      4  C   UNL     1       3.372   4.466  19.616  0.00  0.00    +0.000 A 
ATOM      5 CL   UNL     1       2.734   3.512  20.904  0.00  0.00    +0.000 Cl
ATOM      6  C   UNL     1       4.517   4.056  18.929  0.00  0.00    +0.000 A 
ATOM      7  C   UNL     1       5.067   4.821  17.876  0.00  0.00    +0.000 A 
ATOM      8  C   UNL     1       4.453   6.072  17.574  0.00  0.00    +0.000 A 
ATOM      9  C   UNL     1       5.009   6.999  16.518  0.00  0.00    +0.000 C 
ENDROOT
BRANCH   6  10
ATOM     10  O   UNL     1       5.142   2.887  19.294  0.00  0.00    +0.000 OA
ATOM     11  H   UNL     1       4.441   2.247  19.522  0.00  0.00    +0.000 HD
ENDBRANCH   6  10
BRANCH   7  12
ATOM     12  C   UNL     1       6.342   4.313  17.225  0.00  0.00    +0.000 C 
BRANCH  12  13
ATOM     13  N   UNL     1       7.521   4.316  18.089  0.00  0.00    +0.000 NA
ATOM     14  H   UNL     1       8.346   4.189  17.508  0.00  0.00    +0.000 HD
ATOM     15  H   UNL     1       7.472   3.497  18.699  0.00  0.00    +0.000 HD
ENDBRANCH  12  13
ENDBRANCH   7  12
TORSDOF 3
ENDMDL
MODEL 4
REMARK VINA RESULT:      -5.4      3.188      4.093
REMARK  Name = 
REMARK  5 active torsions:
REMARK  status: ('A' for Active; 'I' for Inactive)
REMARK    1  A    between atoms: C_1  and  C_2
REMARK    2  A    between atoms: C_6  and  O_7
REMARK    3  A    between atoms: C_8  and  C_9
REMARK    4  A    between atoms: C_9  and  N_10
REMARK    5  A    between atoms: C_11  and  C_12
REMARK                            x       y       z     vdW  Elec       q    Type
REMARK                         _______ _______ _______ _____ _____    ______ ____
ROOT
ATOM      1  C   UNL     1       3.340   3.475  17.912  0.00  0.00    +0.000 C 
ATOM      2  C   UNL     1       4.526   4.092  17.213  0.00  0.00    +0.000 A 
ATOM      3  C   UNL     1       4.755   3.743  15.874  0.00  0.00    +0.000 A 
ATOM      4  C   UNL     1       5.830   4.288  15.188  0.00  0.00    +0.000 A 
ATOM      5 CL   UNL     1       6.114   3.813  13.553  0.00  0.00    +0.000 Cl
ATOM      6  C   UNL     1       6.674   5.206  15.818  0.00  0.00    +0.000 A 
ATOM      7  C   UNL     1       6.470   5.605  17.157  0.00  0.00    +0.000 A 
ATOM      8  C   UNL     1       5.406   4.990  17.879  0.00  0.00    +0.000 A 
ATOM      9  C   UNL     1       5.153   5.293  19.338  0.00  0.00    +0.000 C 
ENDROOT
BRANCH   6  10
ATOM     10  O   UNL     1       7.745   5.722  15.127  0.00  0.00    +0.000 OA
ATOM     11  H   UNL     1       7.388   6.159  14.330  0.00  0.00    +0.000 HD
ENDBRANCH   6  10
BRANCH   7  12
ATOM     12  C   UNL     1       7.473   6.572  17.765  0.00  0.00    +0.000 C 
BRANCH  12  13
ATOM     13  N   UNL     1       7.502   7.898  17.153  0.00  0.00    +0.000 NA
ATOM     14  H   UNL     1       6.544   8.201  16.993  0.00  0.00    +0.000 HD
ATOM     15  H   UNL     1       7.933   7.814  16.229  0.00  0.00    +0.000 HD
ENDBRANCH  12  13
ENDBRANCH   7  12
TORSDOF 3
ENDMDL
MODEL 5
REMARK VINA RESULT:      -5.4      0.962      1.125
REMARK  Name = 
REMARK  5 active torsions:
REMARK  status: ('A' for Active; 'I' for Inactive)
REMARK    1  A    between atoms: C_1  and  C_2
REMARK    2  A    between atoms: C_6  and  O_7
REMARK    3  A    between atoms: C_8  and  C_9
REMARK    4  A    between atoms: C_9  and  N_10
REMARK    5  A    between atoms: C_11  and  C_12
REMARK                            x       y       z     vdW  Elec       q    Type
REMARK                         _______ _______ _______ _____ _____    ______ ____
ROOT
ATOM      1  C   UNL     1       1.443   6.360  20.784  0.00  0.00    +0.000 C 
ATOM      2  C   UNL     1       2.385   5.559  19.919  0.00  0.00    +0.000 A 
ATOM      3  C   UNL     1       3.019   6.215  18.853  0.00  0.00    +0.000 A 
ATOM      4  C   UNL     1       3.897   5.522  18.034  0.00  0.00    +0.000 A 
ATOM      5 CL   UNL     1       4.635   6.341  16.706  0.00  0.00    +0.000 Cl
ATOM      6  C   UNL     1       4.174   4.175  18.280  0.00  0.00    +0.000 A 
ATOM      7  C   UNL     1       3.578   3.478  19.354  0.00  0.00    +0.000 A 
ATOM      8  C   UNL     1       2.624   4.175  20.151  0.00  0.00    +0.000 A 
ATOM      9  C   UNL     1       1.876   3.497  21.275  0.00  0.00    +0.000 C 
ENDROOT
BRANCH   6  10
ATOM     10  O   UNL     1       5.034   3.499  17.447  0.00  0.00    +0.000 OA
ATOM     11  H   UNL     1       5.889   3.428  17.914  0.00  0.00    +0.000 HD
ENDBRANCH   6  10
BRANCH   7  12
ATOM     12  C   UNL     1       3.908   2.002  19.508  0.00  0.00    +0.000 C 
BRANCH  12  13
ATOM     13  N   UNL     1       5.184   1.720  20.164  0.00  0.00    +0.000 NA
ATOM     14  H   UNL     1       5.094   1.945  21.152  0.00  0.00    +0.000 HD
ATOM     15  H   UNL     1       5.885   2.360  19.787  0.00  0.00    +0.000 HD
ENDBRANCH  12  13
ENDBRANCH   7  12
TORSDOF 3
ENDMDL
MODEL 6
REMARK VINA RESULT:      -5.4      1.388      1.468
REMARK  Name = 
REMARK  5 active torsions:
REMARK  status: ('A' for Active; 'I' for Inactive)
REMARK    1  A    between atoms: C_1  and  C_2
REMARK    2  A    between atoms: C_6  and  O_7
REMARK    3  A    between atoms: C_8  and  C_9
REMARK    4  A    between atoms: C_9  and  N_10
REMARK    5  A    between atoms: C_11  and  C_12
REMARK                            x       y       z     vdW  Elec       q    Type
REMARK                         _______ _______ _______ _____ _____    ______ ____
ROOT
ATOM      1  C   UNL     1       1.545   6.378  20.748  0.00  0.00    +0.000 C 
ATOM      2  C   UNL     1       2.241   5.668  19.613  0.00  0.00    +0.000 A 
ATOM      3  C   UNL     1       3.140   6.404  18.828  0.00  0.00    +0.000 A 
ATOM      4  C   UNL     1       3.806   5.793  17.777  0.00  0.00    +0.000 A 
ATOM      5 CL   UNL     1       4.878   6.729  16.800  0.00  0.00    +0.000 Cl
ATOM      6  C   UNL     1       3.606   4.436  17.511  0.00  0.00    +0.000 A 
ATOM      7  C   UNL     1       2.728   3.648  18.288  0.00  0.00    +0.000 A 
ATOM      8  C   UNL     1       1.993   4.296  19.323  0.00  0.00    +0.000 A 
ATOM      9  C   UNL     1       0.974   3.559  20.161  0.00  0.00    +0.000 C 
ENDROOT
BRANCH   6  10
ATOM     10  O   UNL     1       4.262   3.851  16.454  0.00  0.00    +0.000 OA
ATOM     11  H   UNL     1       5.053   3.408  16.818  0.00  0.00    +0.000 HD
ENDBRANCH   6  10
BRANCH   7  12
ATOM     12  C   UNL     1       2.543   2.194  17.887  0.00  0.00    +0.000 C 
BRANCH  12  13
ATOM     13  N   UNL     1       3.681   1.323  18.178  0.00  0.00    +0.000 NA
ATOM     14  H   UNL     1       4.525   1.891  18.196  0.00  0.00    +0.000 HD
ATOM     15  H   UNL     1       3.792   0.672  17.398  0.00  0.00    +0.000 HD
ENDBRANCH  12  13
ENDBRANCH   7  12
TORSDOF 3
ENDMDL
MODEL 7
REMARK VINA RESULT:      -5.3      2.918      3.723
REMARK  Name = 
REMARK  5 active torsions:
REMARK  status: ('A' for Active; 'I' for Inactive)
REMARK    1  A    between atoms: C_1  and  C_2
REMARK    2  A    between atoms: C_6  and  O_7
REMARK    3  A    between atoms: C_8  and  C_9
REMARK    4  A    between atoms: C_9  and  N_10
REMARK    5  A    between atoms: C_11  and  C_12
REMARK                            x       y       z     vdW  Elec       q    Type
REMARK                         _______ _______ _______ _____ _____    ______ ____
ROOT
ATOM      1  C   UNL     1       3.697   4.196  19.815  0.00  0.00    +0.000 C 
ATOM      2  C   UNL     1       4.672   4.639  18.753  0.00  0.00    +0.000 A 
ATOM      3  C   UNL     1       5.800   5.368  19.157  0.00  0.00    +0.000 A 
ATOM      4  C   UNL     1       6.726   5.791  18.217  0.00  0.00    +0.000 A 
ATOM      5 CL   UNL     1       8.086   6.721  18.733  0.00  0.00    +0.000 Cl
ATOM      6  C   UNL     1       6.555   5.473  16.867  0.00  0.00    +0.000 A 
ATOM      7  C   UNL     1       5.448   4.721  16.415  0.00  0.00    +0.000 A 
ATOM      8  C   UNL     1       4.463   4.348  17.375  0.00  0.00    +0.000 A 
ATOM      9  C   UNL     1       3.205   3.609  16.981  0.00  0.00    +0.000 C 
ENDROOT
BRANCH   6  10
ATOM     10  O   UNL     1       7.475   5.916  15.947  0.00  0.00    +0.000 OA
ATOM     11  H   UNL     1       7.312   5.426  15.118  0.00  0.00    +0.000 HD
ENDBRANCH   6  10
BRANCH   7  12
ATOM     12  C   UNL     1       5.328   4.470  14.921  0.00  0.00    +0.000 C 
BRANCH  12  13
ATOM     13  N   UNL     1       6.341   3.575  14.362  0.00  0.00    +0.000 NA
ATOM     14  H   UNL     1       6.686   2.974  15.107  0.00  0.00    +0.000 HD
ATOM     15  H   UNL     1       7.136   4.143  14.061  0.00  0.00    +0.000 HD
ENDBRANCH  12  13
ENDBRANCH   7  12
TORSDOF 3
ENDMDL
MODEL 8
REMARK VINA RESULT:      -5.3      2.350      3.144
REMARK  Name = 
REMARK  5 active torsions:
REMARK  status: ('A' for Active; 'I' for Inactive)
REMARK    1  A    between atoms: C_1  and  C_2
REMARK    2  A    between atoms: C_6  and  O_7
REMARK    3  A    between atoms: C_8  and  C_9
REMARK    4  A    between atoms: C_9  and  N_10
REMARK    5  A    between atoms: C_11  and  C_12
REMARK                            x       y       z     vdW  Elec       q    Type
REMARK                         _______ _______ _______ _____ _____    ______ ____
ROOT
ATOM      1  C   UNL     1       2.564   7.752  17.999  0.00  0.00    +0.000 C 
ATOM      2  C   UNL     1       3.090   6.345  17.862  0.00  0.00    +0.000 A 
ATOM      3  C   UNL     1       2.228   5.285  18.179  0.00  0.00    +0.000 A 
ATOM      4  C   UNL     1       2.665   3.975  18.063  0.00  0.00    +0.000 A 
ATOM      5 CL   UNL     1       1.599   2.689  18.496  0.00  0.00    +0.000 Cl
ATOM      6  C   UNL     1       3.957   3.703  17.607  0.00  0.00    +0.000 A 
ATOM      7  C   UNL     1       4.854   4.735  17.254  0.00  0.00    +0.000 A 
ATOM      8  C   UNL     1       4.424   6.081  17.440  0.00  0.00    +0.000 A 
ATOM      9  C   UNL     1       5.335   7.255  17.165  0.00  0.00    +0.000 C 
ENDROOT
BRANCH   6  10
ATOM     10  O   UNL     1       4.380   2.397  17.515  0.00  0.00    +0.000 OA
ATOM     11  H   UNL     1       4.001   2.031  16.693  0.00  0.00    +0.000 HD
ENDBRANCH   6  10
BRANCH   7  12
ATOM     12  C   UNL     1       6.253   4.335  16.815  0.00  0.00    +0.000 C 
BRANCH  12  13
ATOM     13  N   UNL     1       7.217   4.168  17.902  0.00  0.00    +0.000 NA
ATOM     14  H   UNL     1       7.055   3.264  18.340  0.00  0.00    +0.000 HD
ATOM     15  H   UNL     1       7.018   4.871  18.616  0.00  0.00    +0.000 HD
ENDBRANCH  12  13
ENDBRANCH   7  12
TORSDOF 3
ENDMDL
MODEL 9
REMARK VINA RESULT:      -5.3      2.692      3.472
REMARK  Name = 
REMARK  5 active torsions:
REMARK  status: ('A' for Active; 'I' for Inactive)
REMARK    1  A    between atoms: C_1  and  C_2
REMARK    2  A    between atoms: C_6  and  O_7
REMARK    3  A    between atoms: C_8  and  C_9
REMARK    4  A    between atoms: C_9  and  N_10
REMARK    5  A    between atoms: C_11  and  C_12
REMARK                            x       y       z     vdW  Elec       q    Type
REMARK                         _______ _______ _______ _____ _____    ______ ____
ROOT
ATOM      1  C   UNL     1       1.914   7.649  20.215  0.00  0.00    +0.000 C 
ATOM      2  C   UNL     1       2.196   6.210  19.859  0.00  0.00    +0.000 A 
ATOM      3  C   UNL     1       1.743   5.214  20.736  0.00  0.00    +0.000 A 
ATOM      4  C   UNL     1       1.974   3.877  20.448  0.00  0.00    +0.000 A 
ATOM      5 CL   UNL     1       1.442   2.672  21.562  0.00  0.00    +0.000 Cl
ATOM      6  C   UNL     1       2.636   3.515  19.273  0.00  0.00    +0.000 A 
ATOM      7  C   UNL     1       3.090   4.480  18.348  0.00  0.00    +0.000 A 
ATOM      8  C   UNL     1       2.912   5.855  18.681  0.00  0.00    +0.000 A 
ATOM      9  C   UNL     1       3.430   6.964  17.795  0.00  0.00    +0.000 C 
ENDROOT
BRANCH   6  10
ATOM     10  O   UNL     1       2.872   2.186  19.013  0.00  0.00    +0.000 OA
ATOM     11  H   UNL     1       2.695   2.044  18.063  0.00  0.00    +0.000 HD
ENDBRANCH   6  10
BRANCH   7  12
ATOM     12  C   UNL     1       3.842   3.986  17.123  0.00  0.00    +0.000 C 
BRANCH  12  13
ATOM     13  N   UNL     1       5.193   3.492  17.385  0.00  0.00    +0.000 NA
ATOM     14  H   UNL     1       5.699   3.456  16.503  0.00  0.00    +0.000 HD
ATOM     15  H   UNL     1       5.121   2.527  17.714  0.00  0.00    +0.000 HD
ENDBRANCH  12  13
ENDBRANCH   7  12
TORSDOF 3
ENDMDL
