MODEL 1
REMARK VINA RESULT:      -7.3      0.000      0.000
REMARK  Name = 
REMARK  4 active torsions:
REMARK  status: ('A' for Active; 'I' for Inactive)
REMARK    1  A    between atoms: C_1  and  C_2
REMARK    2  A    between atoms: C_2  and  N_3
REMARK    3  A    between atoms: C_9  and  C_10
REMARK    4  A    between atoms: C_10  and  O_12
REMARK                            x       y       z     vdW  Elec       q    Type
REMARK                         _______ _______ _______ _____ _____    ______ ____
ROOT
ATOM      1  N   UNL     1       2.144   4.145  18.896  0.00  0.00    +0.000 N 
ATOM      2  C   UNL     1       2.578   5.439  18.838  0.00  0.00    +0.000 C 
ATOM      3  O   UNL     1       2.197   6.414  19.456  0.00  0.00    +0.000 OA
ATOM      4  C   UNL     1       3.640   5.476  17.834  0.00  0.00    +0.000 A 
ATOM      5  C   UNL     1       4.461   6.516  17.442  0.00  0.00    +0.000 A 
ATOM      6  C   UNL     1       5.426   6.240  16.462  0.00  0.00    +0.000 A 
ATOM      7  C   UNL     1       5.527   4.948  15.889  0.00  0.00    +0.000 A 
ATOM      8  C   UNL     1       4.683   3.910  16.320  0.00  0.00    +0.000 A 
ATOM      9  C   UNL     1       3.755   4.208  17.298  0.00  0.00    +0.000 A 
ATOM     10  C   UNL     1       2.778   3.354  17.977  0.00  0.00    +0.000 C 
ATOM     11  O   UNL     1       2.606   2.178  17.724  0.00  0.00    +0.000 OA
ENDROOT
BRANCH   1  13
ATOM     12  C   UNL     1       1.649   3.299  21.155  0.00  0.00    +0.000 C 
ATOM     13  C   UNL     1       1.100   3.682  19.790  0.00  0.00    +0.000 C 
ENDBRANCH   1  13
BRANCH   7  14
ATOM     14  C   UNL     1       6.559   4.614  14.872  0.00  0.00    +0.000 C 
ATOM     15  O   UNL     1       7.563   5.288  14.718  0.00  0.00    +0.000 OA
BRANCH  14  16
ATOM     16  O   UNL     1       6.309   3.497  14.160  0.00  0.00    +0.000 OA
ATOM     17  H   UNL     1       5.373   3.293  13.985  0.00  0.00    +0.000 HD
ENDBRANCH  14  16
ENDBRANCH   7  14
TORSDOF 3
ENDMDL
MODEL 2
REMARK VINA RESULT:      -7.0      2.730      5.677
REMARK  Name = 
REMARK  4 active torsions:
REMARK  status: ('A' for Active; 'I' for Inactive)
REMARK    1  A    between atoms: C_1  and  C_2
REMARK    2  A    between atoms: C_2  and  N_3
REMARK    3  A    between atoms: C_9  and  C_10
REMARK    4  A    between atoms: C_10  and  O_12
REMARK                            x       y       z     vdW  Elec       q    Type
REMARK                         _______ _______ _______ _____ _____    ______ ____
ROOT
ATOM      1  N   UNL     1       6.138   6.055  17.811  0.00  0.00    +0.000 N 
ATOM      2  C   UNL     1       4.940   6.236  17.180  0.00  0.00    +0.000 C 
ATOM      3  O   UNL     1       4.690   6.807  16.137  0.00  0.00    +0.000 OA
ATOM      4  C   UNL     1       3.927   5.601  18.023  0.00  0.00    +0.000 A 
ATOM      5  C   UNL     1       2.572   5.430  17.815  0.00  0.00    +0.000 A 
ATOM      6  C   UNL     1       1.851   4.742  18.801  0.00  0.00    +0.000 A 
ATOM      7  C   UNL     1       2.494   4.269  19.971  0.00  0.00    +0.000 A 
ATOM      8  C   UNL     1       3.878   4.450  20.146  0.00  0.00    +0.000 A 
ATOM      9  C   UNL     1       4.563   5.116  19.149  0.00  0.00    +0.000 A 
ATOM     10  C   UNL     1       5.989   5.423  19.015  0.00  0.00    +0.000 C 
ATOM     11  O   UNL     1       6.829   5.148  19.850  0.00  0.00    +0.000 OA
ENDROOT
BRANCH   1  13
ATOM     12  C   UNL     1       7.680   7.970  17.675  0.00  0.00    +0.000 C 
ATOM     13  C   UNL     1       7.406   6.526  17.287  0.00  0.00    +0.000 C 
ENDBRANCH   1  13
BRANCH   7  14
ATOM     14  C   UNL     1       1.766   3.508  21.022  0.00  0.00    +0.000 C 
ATOM     15  O   UNL     1       2.234   3.323  22.132  0.00  0.00    +0.000 OA
BRANCH  14  16
ATOM     16  O   UNL     1       0.545   3.071  20.658  0.00  0.00    +0.000 OA
ATOM     17  H   UNL     1       0.367   3.021  19.702  0.00  0.00    +0.000 HD
ENDBRANCH  14  16
ENDBRANCH   7  14
TORSDOF 3
ENDMDL
MODEL 3
REMARK VINA RESULT:      -6.9      2.322      2.672
REMARK  Name = 
REMARK  4 active torsions:
REMARK  status: ('A' for Active; 'I' for Inactive)
REMARK    1  A    between atoms: C_1  and  C_2
REMARK    2  A    between atoms: C_2  and  N_3
REMARK    3  A    between atoms: C_9  and  C_10
REMARK    4  A    between atoms: C_10  and  O_12
REMARK                            x       y       z     vdW  Elec       q    Type
REMARK                         _______ _______ _______ _____ _____    ______ ____
ROOT
ATOM      1  N   UNL     1       2.929   3.224  18.995  0.00  0.00    +0.000 N 
ATOM      2  C   UNL     1       2.553   4.183  18.097  0.00  0.00    +0.000 C 
ATOM      3  O   UNL     1       1.485   4.350  17.541  0.00  0.00    +0.000 OA
ATOM      4  C   UNL     1       3.723   5.033  17.882  0.00  0.00    +0.000 A 
ATOM      5  C   UNL     1       3.864   6.184  17.131  0.00  0.00    +0.000 A 
ATOM      6  C   UNL     1       5.119   6.810  17.142  0.00  0.00    +0.000 A 
ATOM      7  C   UNL     1       6.197   6.258  17.877  0.00  0.00    +0.000 A 
ATOM      8  C   UNL     1       6.016   5.091  18.639  0.00  0.00    +0.000 A 
ATOM      9  C   UNL     1       4.764   4.508  18.623  0.00  0.00    +0.000 A 
ATOM     10  C   UNL     1       4.251   3.332  19.330  0.00  0.00    +0.000 C 
ATOM     11  O   UNL     1       4.922   2.625  20.056  0.00  0.00    +0.000 OA
ENDROOT
BRANCH   1  13
ATOM     12  C   UNL     1       1.340   2.606  20.770  0.00  0.00    +0.000 C 
ATOM     13  C   UNL     1       2.043   2.188  19.489  0.00  0.00    +0.000 C 
ENDBRANCH   1  13
BRANCH   7  14
ATOM     14  C   UNL     1       7.532   6.913  17.935  0.00  0.00    +0.000 C 
ATOM     15  O   UNL     1       7.908   7.698  17.081  0.00  0.00    +0.000 OA
BRANCH  14  16
ATOM     16  O   UNL     1       8.272   6.592  19.014  0.00  0.00    +0.000 OA
ATOM     17  H   UNL     1       7.791   6.225  19.777  0.00  0.00    +0.000 HD
ENDBRANCH  14  16
ENDBRANCH   7  14
TORSDOF 3
ENDMDL
MODEL 4
REMARK VINA RESULT:      -6.7      2.600      5.708
REMARK  Name = 
REMARK  4 active torsions:
REMARK  status: ('A' for Active; 'I' for Inactive)
REMARK    1  A    between atoms: C_1  and  C_2
REMARK    2  A    between atoms: C_2  and  N_3
REMARK    3  A    between atoms: C_9  and  C_10
REMARK    4  A    between atoms: C_10  and  O_12
REMARK                            x       y       z     vdW  Elec       q    Type
REMARK                         _______ _______ _______ _____ _____    ______ ____
ROOT
ATOM      1  N   UNL     1       6.168   5.236  17.604  0.00  0.00    +0.000 N 
ATOM      2  C   UNL     1       5.119   4.904  16.794  0.00  0.00    +0.000 C 
ATOM      3  O   UNL     1       5.001   5.021  15.590  0.00  0.00    +0.000 OA
ATOM      4  C   UNL     1       4.078   4.360  17.664  0.00  0.00    +0.000 A 
ATOM      5  C   UNL     1       2.850   3.810  17.350  0.00  0.00    +0.000 A 
ATOM      6  C   UNL     1       2.067   3.334  18.412  0.00  0.00    +0.000 A 
ATOM      7  C   UNL     1       2.519   3.443  19.750  0.00  0.00    +0.000 A 
ATOM      8  C   UNL     1       3.779   3.999  20.034  0.00  0.00    +0.000 A 
ATOM      9  C   UNL     1       4.534   4.442  18.966  0.00  0.00    +0.000 A 
ATOM     10  C   UNL     1       5.879   5.020  18.924  0.00  0.00    +0.000 C 
ATOM     11  O   UNL     1       6.556   5.246  19.908  0.00  0.00    +0.000 OA
ENDROOT
BRANCH   1  13
ATOM     12  C   UNL     1       7.494   7.295  17.362  0.00  0.00    +0.000 C 
ATOM     13  C   UNL     1       7.416   5.797  17.122  0.00  0.00    +0.000 C 
ENDBRANCH   1  13
BRANCH   7  14
ATOM     14  C   UNL     1       1.728   2.921  20.897  0.00  0.00    +0.000 C 
ATOM     15  O   UNL     1       2.250   2.580  21.945  0.00  0.00    +0.000 OA
BRANCH  14  16
ATOM     16  O   UNL     1       0.396   2.883  20.694  0.00  0.00    +0.000 OA
ATOM     17  H   UNL     1       0.090   3.048  19.785  0.00  0.00    +0.000 HD
ENDBRANCH  14  16
ENDBRANCH   7  14
TORSDOF 3
ENDMDL
MODEL 5
REMARK VINA RESULT:      -6.4      1.174      2.615
REMARK  Name = 
REMARK  4 active torsions:
REMARK  status: ('A' for Active; 'I' for Inactive)
REMARK    1  A    between atoms: C_1  and  C_2
REMARK    2  A    between atoms: C_2  and  N_3
REMARK    3  A    between atoms: C_9  and  C_10
REMARK    4  A    between atoms: C_10  and  O_12
REMARK                            x       y       z     vdW  Elec       q    Type
REMARK                         _______ _______ _______ _____ _____    ______ ____
ROOT
ATOM      1  N   UNL     1       2.041   3.928  19.275  0.00  0.00    +0.000 N 
ATOM      2  C   UNL     1       2.511   3.111  18.286  0.00  0.00    +0.000 C 
ATOM      3  O   UNL     1       2.112   2.021  17.925  0.00  0.00    +0.000 OA
ATOM      4  C   UNL     1       3.661   3.793  17.695  0.00  0.00    +0.000 A 
ATOM      5  C   UNL     1       4.451   3.441  16.618  0.00  0.00    +0.000 A 
ATOM      6  C   UNL     1       5.479   4.324  16.256  0.00  0.00    +0.000 A 
ATOM      7  C   UNL     1       5.702   5.514  16.992  0.00  0.00    +0.000 A 
ATOM      8  C   UNL     1       4.872   5.848  18.077  0.00  0.00    +0.000 A 
ATOM      9  C   UNL     1       3.859   4.967  18.397  0.00  0.00    +0.000 A 
ATOM     10  C   UNL     1       2.818   5.044  19.425  0.00  0.00    +0.000 C 
ATOM     11  O   UNL     1       2.720   5.949  20.231  0.00  0.00    +0.000 OA
ENDROOT
BRANCH   1  13
ATOM     12  C   UNL     1       1.268   2.825  21.335  0.00  0.00    +0.000 C 
ATOM     13  C   UNL     1       0.886   3.620  20.098  0.00  0.00    +0.000 C 
ENDBRANCH   1  13
BRANCH   7  14
ATOM     14  C   UNL     1       6.763   6.487  16.617  0.00  0.00    +0.000 C 
ATOM     15  O   UNL     1       6.833   7.597  17.119  0.00  0.00    +0.000 OA
BRANCH  14  16
ATOM     16  O   UNL     1       7.649   6.036  15.708  0.00  0.00    +0.000 OA
ATOM     17  H   UNL     1       8.583   6.020  15.981  0.00  0.00    +0.000 HD
ENDBRANCH  14  16
ENDBRANCH   7  14
TORSDOF 3
ENDMDL
MODEL 6
REMARK VINA RESULT:      -6.4      2.517      5.556
REMARK  Name = 
REMARK  4 active torsions:
REMARK  status: ('A' for Active; 'I' for Inactive)
REMARK    1  A    between atoms: C_1  and  C_2
REMARK    2  A    between atoms: C_2  and  N_3
REMARK    3  A    between atoms: C_9  and  C_10
REMARK    4  A    between atoms: C_10  and  O_12
REMARK                            x       y       z     vdW  Elec       q    Type
REMARK                         _______ _______ _______ _____ _____    ______ ____
ROOT
ATOM      1  N   UNL     1       5.579   5.171  17.027  0.00  0.00    +0.000 N 
ATOM      2  C   UNL     1       4.948   4.788  18.177  0.00  0.00    +0.000 C 
ATOM      3  O   UNL     1       5.112   3.795  18.858  0.00  0.00    +0.000 OA
ATOM      4  C   UNL     1       3.963   5.826  18.475  0.00  0.00    +0.000 A 
ATOM      5  C   UNL     1       3.115   5.967  19.557  0.00  0.00    +0.000 A 
ATOM      6  C   UNL     1       2.291   7.102  19.586  0.00  0.00    +0.000 A 
ATOM      7  C   UNL     1       2.320   8.045  18.529  0.00  0.00    +0.000 A 
ATOM      8  C   UNL     1       3.204   7.876  17.448  0.00  0.00    +0.000 A 
ATOM      9  C   UNL     1       4.014   6.759  17.457  0.00  0.00    +0.000 A 
ATOM     10  C   UNL     1       5.050   6.325  16.516  0.00  0.00    +0.000 C 
ATOM     11  O   UNL     1       5.335   6.917  15.494  0.00  0.00    +0.000 OA
ENDROOT
BRANCH   1  13
ATOM     12  C   UNL     1       6.180   3.719  15.132  0.00  0.00    +0.000 C 
ATOM     13  C   UNL     1       6.646   4.415  16.400  0.00  0.00    +0.000 C 
ENDBRANCH   1  13
BRANCH   7  14
ATOM     14  C   UNL     1       1.484   9.275  18.543  0.00  0.00    +0.000 C 
ATOM     15  O   UNL     1       0.730   9.537  19.466  0.00  0.00    +0.000 OA
BRANCH  14  16
ATOM     16  O   UNL     1       1.647  10.082  17.477  0.00  0.00    +0.000 OA
ATOM     17  H   UNL     1       1.615  11.040  17.648  0.00  0.00    +0.000 HD
ENDBRANCH  14  16
ENDBRANCH   7  14
TORSDOF 3
ENDMDL
MODEL 7
REMARK VINA RESULT:      -6.4      1.845      2.227
REMARK  Name = 
REMARK  4 active torsions:
REMARK  status: ('A' for Active; 'I' for Inactive)
REMARK    1  A    between atoms: C_1  and  C_2
REMARK    2  A    between atoms: C_2  and  N_3
REMARK    3  A    between atoms: C_9  and  C_10
REMARK    4  A    between atoms: C_10  and  O_12
REMARK                            x       y       z     vdW  Elec       q    Type
REMARK                         _______ _______ _______ _____ _____    ______ ____
ROOT
ATOM      1  N   UNL     1       4.114   4.182  18.768  0.00  0.00    +0.000 N 
ATOM      2  C   UNL     1       5.398   4.639  18.858  0.00  0.00    +0.000 C 
ATOM      3  O   UNL     1       6.018   5.025  19.830  0.00  0.00    +0.000 OA
ATOM      4  C   UNL     1       5.948   4.602  17.504  0.00  0.00    +0.000 A 
ATOM      5  C   UNL     1       7.222   4.886  17.050  0.00  0.00    +0.000 A 
ATOM      6  C   UNL     1       7.467   4.727  15.678  0.00  0.00    +0.000 A 
ATOM      7  C   UNL     1       6.433   4.317  14.801  0.00  0.00    +0.000 A 
ATOM      8  C   UNL     1       5.150   4.026  15.298  0.00  0.00    +0.000 A 
ATOM      9  C   UNL     1       4.945   4.174  16.655  0.00  0.00    +0.000 A 
ATOM     10  C   UNL     1       3.758   3.916  17.474  0.00  0.00    +0.000 C 
ATOM     11  O   UNL     1       2.689   3.545  17.030  0.00  0.00    +0.000 OA
ENDROOT
BRANCH   1  13
ATOM     12  C   UNL     1       3.232   2.635  20.468  0.00  0.00    +0.000 C 
ATOM     13  C   UNL     1       3.223   4.046  19.904  0.00  0.00    +0.000 C 
ENDBRANCH   1  13
BRANCH   7  14
ATOM     14  C   UNL     1       6.666   4.109  13.346  0.00  0.00    +0.000 C 
ATOM     15  O   UNL     1       7.381   4.847  12.691  0.00  0.00    +0.000 OA
BRANCH  14  16
ATOM     16  O   UNL     1       6.050   3.030  12.824  0.00  0.00    +0.000 OA
ATOM     17  H   UNL     1       6.357   2.736  11.948  0.00  0.00    +0.000 HD
ENDBRANCH  14  16
ENDBRANCH   7  14
TORSDOF 3
ENDMDL
MODEL 8
REMARK VINA RESULT:      -6.4      1.837      2.372
REMARK  Name = 
REMARK  4 active torsions:
REMARK  status: ('A' for Active; 'I' for Inactive)
REMARK    1  A    between atoms: C_1  and  C_2
REMARK    2  A    between atoms: C_2  and  N_3
REMARK    3  A    between atoms: C_9  and  C_10
REMARK    4  A    between atoms: C_10  and  O_12
REMARK                            x       y       z     vdW  Elec       q    Type
REMARK                         _______ _______ _______ _____ _____    ______ ____
ROOT
ATOM      1  N   UNL     1       4.147   4.084  18.815  0.00  0.00    +0.000 N 
ATOM      2  C   UNL     1       5.420   4.577  18.874  0.00  0.00    +0.000 C 
ATOM      3  O   UNL     1       6.057   4.969  19.832  0.00  0.00    +0.000 OA
ATOM      4  C   UNL     1       5.930   4.573  17.504  0.00  0.00    +0.000 A 
ATOM      5  C   UNL     1       7.181   4.899  17.017  0.00  0.00    +0.000 A 
ATOM      6  C   UNL     1       7.390   4.765  15.636  0.00  0.00    +0.000 A 
ATOM      7  C   UNL     1       6.343   4.335  14.784  0.00  0.00    +0.000 A 
ATOM      8  C   UNL     1       5.084   4.001  15.315  0.00  0.00    +0.000 A 
ATOM      9  C   UNL     1       4.915   4.126  16.679  0.00  0.00    +0.000 A 
ATOM     10  C   UNL     1       3.761   3.824  17.528  0.00  0.00    +0.000 C 
ATOM     11  O   UNL     1       2.691   3.427  17.110  0.00  0.00    +0.000 OA
ENDROOT
BRANCH   1  13
ATOM     12  C   UNL     1       2.448   5.140  20.250  0.00  0.00    +0.000 C 
ATOM     13  C   UNL     1       3.294   3.908  19.975  0.00  0.00    +0.000 C 
ENDBRANCH   1  13
BRANCH   7  14
ATOM     14  C   UNL     1       6.539   4.152  13.321  0.00  0.00    +0.000 C 
ATOM     15  O   UNL     1       5.854   3.386  12.665  0.00  0.00    +0.000 OA
BRANCH  14  16
ATOM     16  O   UNL     1       7.507   4.918  12.781  0.00  0.00    +0.000 OA
ATOM     17  H   UNL     1       7.273   5.843  12.587  0.00  0.00    +0.000 HD
ENDBRANCH  14  16
ENDBRANCH   7  14
TORSDOF 3
ENDMDL
MODEL 9
REMARK VINA RESULT:      -6.4      1.714      2.916
REMARK  Name = 
REMARK  4 active torsions:
REMARK  status: ('A' for Active; 'I' for Inactive)
REMARK    1  A    between atoms: C_1  and  C_2
REMARK    2  A    between atoms: C_2  and  N_3
REMARK    3  A    between atoms: C_9  and  C_10
REMARK    4  A    between atoms: C_10  and  O_12
REMARK                            x       y       z     vdW  Elec       q    Type
REMARK                         _______ _______ _______ _____ _____    ______ ____
ROOT
ATOM      1  N   UNL     1       2.236   3.884  18.996  0.00  0.00    +0.000 N 
ATOM      2  C   UNL     1       2.778   3.312  17.879  0.00  0.00    +0.000 C 
ATOM      3  O   UNL     1       2.355   2.406  17.188  0.00  0.00    +0.000 OA
ATOM      4  C   UNL     1       4.046   3.999  17.635  0.00  0.00    +0.000 A 
ATOM      5  C   UNL     1       4.949   3.862  16.599  0.00  0.00    +0.000 A 
ATOM      6  C   UNL     1       6.078   4.694  16.615  0.00  0.00    +0.000 A 
ATOM      7  C   UNL     1       6.284   5.615  17.672  0.00  0.00    +0.000 A 
ATOM      8  C   UNL     1       5.338   5.736  18.705  0.00  0.00    +0.000 A 
ATOM      9  C   UNL     1       4.229   4.916  18.652  0.00  0.00    +0.000 A 
ATOM     10  C   UNL     1       3.064   4.830  19.536  0.00  0.00    +0.000 C 
ATOM     11  O   UNL     1       2.921   5.493  20.545  0.00  0.00    +0.000 OA
ENDROOT
BRANCH   1  13
ATOM     12  C   UNL     1       1.128   2.755  20.882  0.00  0.00    +0.000 C 
ATOM     13  C   UNL     1       0.960   3.495  19.565  0.00  0.00    +0.000 C 
ENDBRANCH   1  13
BRANCH   7  14
ATOM     14  C   UNL     1       7.454   6.533  17.704  0.00  0.00    +0.000 C 
ATOM     15  O   UNL     1       7.762   7.226  16.749  0.00  0.00    +0.000 OA
BRANCH  14  16
ATOM     16  O   UNL     1       8.121   6.558  18.875  0.00  0.00    +0.000 OA
ATOM     17  H   UNL     1       7.988   5.796  19.467  0.00  0.00    +0.000 HD
ENDBRANCH  14  16
ENDBRANCH   7  14
TORSDOF 3
ENDMDL
