MODEL 1
REMARK VINA RESULT:      -8.7      0.000      0.000
REMARK  Name = 
REMARK  5 active torsions:
REMARK  status: ('A' for Active; 'I' for Inactive)
REMARK    1  A    between atoms: C_1  and  N_2
REMARK    2  A    between atoms: C_4  and  N_5
REMARK    3  A    between atoms: C_6  and  C_8
REMARK    4  A    between atoms: N_10  and  C_11
REMARK    5  A    between atoms: C_11  and  C_12
REMARK                            x       y       z     vdW  Elec       q    Type
REMARK                         _______ _______ _______ _____ _____    ______ ____
ROOT
ATOM      1  C   UNL     1       6.468   5.929  17.749  0.00  0.00    +0.000 A 
ATOM      2  C   UNL     1       5.467   5.680  18.613  0.00  0.00    +0.000 A 
ATOM      3  N   UNL     1       4.384   4.866  18.312  0.00  0.00    +0.000 N 
ATOM      4  C   UNL     1       4.272   4.203  17.089  0.00  0.00    +0.000 A 
ATOM      5  O   UNL     1       3.351   3.447  16.795  0.00  0.00    +0.000 OA
ATOM      6  C   UNL     1       5.333   4.475  16.094  0.00  0.00    +0.000 A 
ATOM      7  C   UNL     1       5.250   3.952  14.800  0.00  0.00    +0.000 A 
ATOM      8  C   UNL     1       6.230   4.285  13.869  0.00  0.00    +0.000 A 
ATOM      9  C   UNL     1       7.266   5.110  14.274  0.00  0.00    +0.000 A 
ATOM     10  N   UNL     1       7.379   5.617  15.524  0.00  0.00    +0.000 NA
ATOM     11  C   UNL     1       6.399   5.308  16.420  0.00  0.00    +0.000 A 
ENDROOT
BRANCH   1  13
ATOM     12  N   UNL     1       7.417   8.169  17.689  0.00  0.00    +0.000 N 
ATOM     13  C   UNL     1       7.520   6.899  18.213  0.00  0.00    +0.000 C 
ATOM     14  O   UNL     1       8.378   6.533  19.016  0.00  0.00    +0.000 OA
ATOM     15  H   UNL     1       6.660   8.346  17.027  0.00  0.00    +0.000 HD
BRANCH  12  19
ATOM     16  C   UNL     1       9.750  12.482  17.824  0.00  0.00    +0.000 C 
ATOM     17  N   UNL     1       9.239  11.171  18.142  0.00  0.00    +0.000 N 
ATOM     18  C   UNL     1       8.352  10.446  17.411  0.00  0.00    +0.000 A 
ATOM     19  C   UNL     1       8.190   9.250  18.058  0.00  0.00    +0.000 A 
ATOM     20  C   UNL     1       9.022   9.364  19.199  0.00  0.00    +0.000 A 
ATOM     21  N   UNL     1       9.667  10.534  19.253  0.00  0.00    +0.000 NA
ENDBRANCH  12  19
ENDBRANCH   1  13
BRANCH   3  22
ATOM     22  C   UNL     1       3.303   4.712  19.292  0.00  0.00    +0.000 C 
BRANCH  22  23
ATOM     23  C   UNL     1       2.550   6.004  19.512  0.00  0.00    +0.000 A 
ATOM     24  C   UNL     1       1.899   6.246  20.729  0.00  0.00    +0.000 A 
ATOM     25  C   UNL     1       1.322   7.491  20.989  0.00  0.00    +0.000 A 
ATOM     26  C   UNL     1       1.390   8.509  20.034  0.00  0.00    +0.000 A 
ATOM     27 CL   UNL     1       0.743  10.053  20.458  0.00  0.00    +0.000 Cl
ATOM     28  C   UNL     1       1.994   8.262  18.797  0.00  0.00    +0.000 A 
ATOM     29 CL   UNL     1       2.104   9.465  17.562  0.00  0.00    +0.000 Cl
ATOM     30  C   UNL     1       2.563   7.011  18.535  0.00  0.00    +0.000 A 
ENDBRANCH  22  23
ENDBRANCH   3  22
TORSDOF 4
ENDMDL
MODEL 2
REMARK VINA RESULT:      -8.7      0.875      1.609
REMARK  Name = 
REMARK  5 active torsions:
REMARK  status: ('A' for Active; 'I' for Inactive)
REMARK    1  A    between atoms: C_1  and  N_2
REMARK    2  A    between atoms: C_4  and  N_5
REMARK    3  A    between atoms: C_6  and  C_8
REMARK    4  A    between atoms: N_10  and  C_11
REMARK    5  A    between atoms: C_11  and  C_12
REMARK                            x       y       z     vdW  Elec       q    Type
REMARK                         _______ _______ _______ _____ _____    ______ ____
ROOT
ATOM      1  C   UNL     1       6.483   6.260  17.666  0.00  0.00    +0.000 A 
ATOM      2  C   UNL     1       5.406   6.161  18.466  0.00  0.00    +0.000 A 
ATOM      3  N   UNL     1       4.294   5.390  18.158  0.00  0.00    +0.000 N 
ATOM      4  C   UNL     1       4.226   4.616  16.999  0.00  0.00    +0.000 A 
ATOM      5  O   UNL     1       3.279   3.893  16.707  0.00  0.00    +0.000 OA
ATOM      6  C   UNL     1       5.374   4.720  16.071  0.00  0.00    +0.000 A 
ATOM      7  C   UNL     1       5.349   4.076  14.830  0.00  0.00    +0.000 A 
ATOM      8  C   UNL     1       6.416   4.253  13.953  0.00  0.00    +0.000 A 
ATOM      9  C   UNL     1       7.474   5.048  14.358  0.00  0.00    +0.000 A 
ATOM     10  N   UNL     1       7.530   5.670  15.560  0.00  0.00    +0.000 NA
ATOM     11  C   UNL     1       6.468   5.514  16.400  0.00  0.00    +0.000 A 
ENDROOT
BRANCH   1  13
ATOM     12  N   UNL     1       7.432   8.500  17.668  0.00  0.00    +0.000 N 
ATOM     13  C   UNL     1       7.562   7.204  18.117  0.00  0.00    +0.000 C 
ATOM     14  O   UNL     1       8.465   6.796  18.848  0.00  0.00    +0.000 OA
ATOM     15  H   UNL     1       6.639   8.712  17.062  0.00  0.00    +0.000 HD
BRANCH  12  19
ATOM     16  C   UNL     1      10.551  11.457  20.032  0.00  0.00    +0.000 C 
ATOM     17  N   UNL     1       9.621  10.897  19.083  0.00  0.00    +0.000 N 
ATOM     18  C   UNL     1       9.097   9.643  19.102  0.00  0.00    +0.000 A 
ATOM     19  C   UNL     1       8.229   9.560  18.047  0.00  0.00    +0.000 A 
ATOM     20  C   UNL     1       8.319  10.833  17.430  0.00  0.00    +0.000 A 
ATOM     21  N   UNL     1       9.166  11.653  18.062  0.00  0.00    +0.000 NA
ENDBRANCH  12  19
ENDBRANCH   1  13
BRANCH   3  22
ATOM     22  C   UNL     1       3.136   5.403  19.060  0.00  0.00    +0.000 C 
BRANCH  22  23
ATOM     23  C   UNL     1       2.538   6.785  19.194  0.00  0.00    +0.000 A 
ATOM     24  C   UNL     1       2.385   7.602  18.066  0.00  0.00    +0.000 A 
ATOM     25  C   UNL     1       1.708   8.819  18.160  0.00  0.00    +0.000 A 
ATOM     26  C   UNL     1       1.175   9.234  19.383  0.00  0.00    +0.000 A 
ATOM     27 CL   UNL     1       0.266  10.702  19.408  0.00  0.00    +0.000 Cl
ATOM     28  C   UNL     1       1.365   8.449  20.525  0.00  0.00    +0.000 A 
ATOM     29 CL   UNL     1       0.749   8.901  22.075  0.00  0.00    +0.000 Cl
ATOM     30  C   UNL     1       2.053   7.234  20.431  0.00  0.00    +0.000 A 
ENDBRANCH  22  23
ENDBRANCH   3  22
TORSDOF 4
ENDMDL
MODEL 3
REMARK VINA RESULT:      -8.4      4.264      7.225
REMARK  Name = 
REMARK  5 active torsions:
REMARK  status: ('A' for Active; 'I' for Inactive)
REMARK    1  A    between atoms: C_1  and  N_2
REMARK    2  A    between atoms: C_4  and  N_5
REMARK    3  A    between atoms: C_6  and  C_8
REMARK    4  A    between atoms: N_10  and  C_11
REMARK    5  A    between atoms: C_11  and  C_12
REMARK                            x       y       z     vdW  Elec       q    Type
REMARK                         _______ _______ _______ _____ _____    ______ ____
ROOT
ATOM      1  C   UNL     1       3.032   6.092  19.348  0.00  0.00    +0.000 A 
ATOM      2  C   UNL     1       4.190   6.181  18.670  0.00  0.00    +0.000 A 
ATOM      3  N   UNL     1       5.096   5.136  18.566  0.00  0.00    +0.000 N 
ATOM      4  C   UNL     1       4.851   3.882  19.129  0.00  0.00    +0.000 A 
ATOM      5  O   UNL     1       5.608   2.921  19.030  0.00  0.00    +0.000 OA
ATOM      6  C   UNL     1       3.604   3.747  19.914  0.00  0.00    +0.000 A 
ATOM      7  C   UNL     1       3.325   2.569  20.613  0.00  0.00    +0.000 A 
ATOM      8  C   UNL     1       2.177   2.501  21.398  0.00  0.00    +0.000 A 
ATOM      9  C   UNL     1       1.342   3.605  21.435  0.00  0.00    +0.000 A 
ATOM     10  N   UNL     1       1.581   4.752  20.756  0.00  0.00    +0.000 NA
ATOM     11  C   UNL     1       2.722   4.819  20.013  0.00  0.00    +0.000 A 
ENDROOT
BRANCH   1  13
ATOM     12  N   UNL     1       1.719   7.650  20.678  0.00  0.00    +0.000 N 
ATOM     13  C   UNL     1       2.208   7.347  19.426  0.00  0.00    +0.000 C 
ATOM     14  O   UNL     1       2.030   8.025  18.415  0.00  0.00    +0.000 OA
ATOM     15  H   UNL     1       1.934   7.003  21.438  0.00  0.00    +0.000 HD
BRANCH  12  19
ATOM     16  C   UNL     1      -0.950  11.763  20.566  0.00  0.00    +0.000 C 
ATOM     17  N   UNL     1      -0.148  10.643  20.989  0.00  0.00    +0.000 N 
ATOM     18  C   UNL     1       0.272   9.606  20.216  0.00  0.00    +0.000 A 
ATOM     19  C   UNL     1       1.044   8.805  21.014  0.00  0.00    +0.000 A 
ATOM     20  C   UNL     1       1.009   9.445  22.278  0.00  0.00    +0.000 A 
ATOM     21  N   UNL     1       0.285  10.569  22.266  0.00  0.00    +0.000 NA
ENDBRANCH  12  19
ENDBRANCH   1  13
BRANCH   3  22
ATOM     22  C   UNL     1       6.369   5.352  17.867  0.00  0.00    +0.000 C 
BRANCH  22  23
ATOM     23  C   UNL     1       6.337   4.815  16.455  0.00  0.00    +0.000 A 
ATOM     24  C   UNL     1       5.324   3.933  16.055  0.00  0.00    +0.000 A 
ATOM     25  C   UNL     1       5.208   3.546  14.719  0.00  0.00    +0.000 A 
ATOM     26  C   UNL     1       6.104   4.037  13.766  0.00  0.00    +0.000 A 
ATOM     27 CL   UNL     1       5.844   3.594  12.116  0.00  0.00    +0.000 Cl
ATOM     28  C   UNL     1       7.148   4.878  14.162  0.00  0.00    +0.000 A 
ATOM     29 CL   UNL     1       8.302   5.513  13.045  0.00  0.00    +0.000 Cl
ATOM     30  C   UNL     1       7.268   5.257  15.503  0.00  0.00    +0.000 A 
ENDBRANCH  22  23
ENDBRANCH   3  22
TORSDOF 4
ENDMDL
MODEL 4
REMARK VINA RESULT:      -8.3      4.174      7.201
REMARK  Name = 
REMARK  5 active torsions:
REMARK  status: ('A' for Active; 'I' for Inactive)
REMARK    1  A    between atoms: C_1  and  N_2
REMARK    2  A    between atoms: C_4  and  N_5
REMARK    3  A    between atoms: C_6  and  C_8
REMARK    4  A    between atoms: N_10  and  C_11
REMARK    5  A    between atoms: C_11  and  C_12
REMARK                            x       y       z     vdW  Elec       q    Type
REMARK                         _______ _______ _______ _____ _____    ______ ____
ROOT
ATOM      1  C   UNL     1       3.080   6.731  18.522  0.00  0.00    +0.000 A 
ATOM      2  C   UNL     1       4.298   6.650  17.954  0.00  0.00    +0.000 A 
ATOM      3  N   UNL     1       5.174   5.597  18.174  0.00  0.00    +0.000 N 
ATOM      4  C   UNL     1       4.837   4.506  18.977  0.00  0.00    +0.000 A 
ATOM      5  O   UNL     1       5.567   3.538  19.168  0.00  0.00    +0.000 OA
ATOM      6  C   UNL     1       3.520   4.567  19.649  0.00  0.00    +0.000 A 
ATOM      7  C   UNL     1       3.139   3.582  20.564  0.00  0.00    +0.000 A 
ATOM      8  C   UNL     1       1.924   3.707  21.231  0.00  0.00    +0.000 A 
ATOM      9  C   UNL     1       1.126   4.802  20.941  0.00  0.00    +0.000 A 
ATOM     10  N   UNL     1       1.464   5.762  20.048  0.00  0.00    +0.000 NA
ATOM     11  C   UNL     1       2.670   5.645  19.422  0.00  0.00    +0.000 A 
ENDROOT
BRANCH   1  13
ATOM     12  N   UNL     1       1.686   8.552  19.334  0.00  0.00    +0.000 N 
ATOM     13  C   UNL     1       2.296   7.982  18.238  0.00  0.00    +0.000 C 
ATOM     14  O   UNL     1       2.249   8.427  17.091  0.00  0.00    +0.000 OA
ATOM     15  H   UNL     1       1.797   8.082  20.233  0.00  0.00    +0.000 HD
BRANCH  12  19
ATOM     16  C   UNL     1      -1.717  12.066  19.688  0.00  0.00    +0.000 C 
ATOM     17  N   UNL     1      -0.483  11.346  19.493  0.00  0.00    +0.000 N 
ATOM     18  C   UNL     1      -0.279  10.016  19.691  0.00  0.00    +0.000 A 
ATOM     19  C   UNL     1       1.019   9.759  19.338  0.00  0.00    +0.000 A 
ATOM     20  C   UNL     1       1.526  11.025  18.954  0.00  0.00    +0.000 A 
ATOM     21  N   UNL     1       0.611  11.996  19.044  0.00  0.00    +0.000 NA
ENDBRANCH  12  19
ENDBRANCH   1  13
BRANCH   3  22
ATOM     22  C   UNL     1       6.511   5.633  17.569  0.00  0.00    +0.000 C 
BRANCH  22  23
ATOM     23  C   UNL     1       6.531   4.992  16.200  0.00  0.00    +0.000 A 
ATOM     24  C   UNL     1       5.641   3.954  15.892  0.00  0.00    +0.000 A 
ATOM     25  C   UNL     1       5.558   3.455  14.592  0.00  0.00    +0.000 A 
ATOM     26  C   UNL     1       6.365   3.988  13.582  0.00  0.00    +0.000 A 
ATOM     27 CL   UNL     1       6.143   3.391  11.976  0.00  0.00    +0.000 Cl
ATOM     28  C   UNL     1       7.291   4.989  13.890  0.00  0.00    +0.000 A 
ATOM     29 CL   UNL     1       8.332   5.687  12.700  0.00  0.00    +0.000 Cl
ATOM     30  C   UNL     1       7.379   5.481  15.197  0.00  0.00    +0.000 A 
ENDBRANCH  22  23
ENDBRANCH   3  22
TORSDOF 4
ENDMDL
MODEL 5
REMARK VINA RESULT:      -7.7      3.713      5.449
REMARK  Name = 
REMARK  5 active torsions:
REMARK  status: ('A' for Active; 'I' for Inactive)
REMARK    1  A    between atoms: C_1  and  N_2
REMARK    2  A    between atoms: C_4  and  N_5
REMARK    3  A    between atoms: C_6  and  C_8
REMARK    4  A    between atoms: N_10  and  C_11
REMARK    5  A    between atoms: C_11  and  C_12
REMARK                            x       y       z     vdW  Elec       q    Type
REMARK                         _______ _______ _______ _____ _____    ______ ____
ROOT
ATOM      1  C   UNL     1       3.448   5.766  18.074  0.00  0.00    +0.000 A 
ATOM      2  C   UNL     1       3.204   6.836  18.853  0.00  0.00    +0.000 A 
ATOM      3  N   UNL     1       2.297   6.825  19.903  0.00  0.00    +0.000 N 
ATOM      4  C   UNL     1       1.590   5.676  20.260  0.00  0.00    +0.000 A 
ATOM      5  O   UNL     1       0.806   5.613  21.202  0.00  0.00    +0.000 OA
ATOM      6  C   UNL     1       1.800   4.483  19.410  0.00  0.00    +0.000 A 
ATOM      7  C   UNL     1       1.052   3.320  19.614  0.00  0.00    +0.000 A 
ATOM      8  C   UNL     1       1.226   2.241  18.751  0.00  0.00    +0.000 A 
ATOM      9  C   UNL     1       2.156   2.359  17.732  0.00  0.00    +0.000 A 
ATOM     10  N   UNL     1       2.904   3.469  17.522  0.00  0.00    +0.000 NA
ATOM     11  C   UNL     1       2.705   4.530  18.354  0.00  0.00    +0.000 A 
ENDROOT
BRANCH   1  13
ATOM     12  N   UNL     1       5.034   4.842  16.477  0.00  0.00    +0.000 N 
ATOM     13  C   UNL     1       4.402   5.979  16.932  0.00  0.00    +0.000 C 
ATOM     14  O   UNL     1       4.556   7.108  16.467  0.00  0.00    +0.000 OA
ATOM     15  H   UNL     1       4.823   3.964  16.952  0.00  0.00    +0.000 HD
BRANCH  12  19
ATOM     16  C   UNL     1       6.966   3.826  12.085  0.00  0.00    +0.000 C 
ATOM     17  N   UNL     1       6.736   4.336  13.414  0.00  0.00    +0.000 N 
ATOM     18  C   UNL     1       5.618   4.164  14.168  0.00  0.00    +0.000 A 
ATOM     19  C   UNL     1       5.855   4.773  15.370  0.00  0.00    +0.000 A 
ATOM     20  C   UNL     1       7.158   5.311  15.231  0.00  0.00    +0.000 A 
ATOM     21  N   UNL     1       7.701   5.044  14.038  0.00  0.00    +0.000 NA
ENDBRANCH  12  19
ENDBRANCH   1  13
BRANCH   3  22
ATOM     22  C   UNL     1       2.044   8.063  20.650  0.00  0.00    +0.000 C 
BRANCH  22  23
ATOM     23  C   UNL     1       1.163   9.019  19.879  0.00  0.00    +0.000 A 
ATOM     24  C   UNL     1       1.117   8.967  18.480  0.00  0.00    +0.000 A 
ATOM     25  C   UNL     1       0.204   9.750  17.771  0.00  0.00    +0.000 A 
ATOM     26  C   UNL     1      -0.675  10.595  18.454  0.00  0.00    +0.000 A 
ATOM     27 CL   UNL     1      -1.844  11.461  17.523  0.00  0.00    +0.000 Cl
ATOM     28  C   UNL     1      -0.604  10.691  19.847  0.00  0.00    +0.000 A 
ATOM     29 CL   UNL     1      -1.646  11.723  20.761  0.00  0.00    +0.000 Cl
ATOM     30  C   UNL     1       0.319   9.912  20.555  0.00  0.00    +0.000 A 
ENDBRANCH  22  23
ENDBRANCH   3  22
TORSDOF 4
ENDMDL
MODEL 6
REMARK VINA RESULT:      -7.6      6.027      9.871
REMARK  Name = 
REMARK  5 active torsions:
REMARK  status: ('A' for Active; 'I' for Inactive)
REMARK    1  A    between atoms: C_1  and  N_2
REMARK    2  A    between atoms: C_4  and  N_5
REMARK    3  A    between atoms: C_6  and  C_8
REMARK    4  A    between atoms: N_10  and  C_11
REMARK    5  A    between atoms: C_11  and  C_12
REMARK                            x       y       z     vdW  Elec       q    Type
REMARK                         _______ _______ _______ _____ _____    ______ ____
ROOT
ATOM      1  C   UNL     1      -0.798  10.632  19.885  0.00  0.00    +0.000 A 
ATOM      2  C   UNL     1       0.213   9.770  20.103  0.00  0.00    +0.000 A 
ATOM      3  N   UNL     1       0.687   9.454  21.368  0.00  0.00    +0.000 N 
ATOM      4  C   UNL     1       0.117   9.981  22.527  0.00  0.00    +0.000 A 
ATOM      5  O   UNL     1       0.482   9.701  23.665  0.00  0.00    +0.000 OA
ATOM      6  C   UNL     1      -0.976  10.960  22.336  0.00  0.00    +0.000 A 
ATOM      7  C   UNL     1      -1.533  11.632  23.428  0.00  0.00    +0.000 A 
ATOM      8  C   UNL     1      -2.510  12.598  23.205  0.00  0.00    +0.000 A 
ATOM      9  C   UNL     1      -2.909  12.839  21.901  0.00  0.00    +0.000 A 
ATOM     10  N   UNL     1      -2.397  12.192  20.827  0.00  0.00    +0.000 NA
ATOM     11  C   UNL     1      -1.419  11.269  21.054  0.00  0.00    +0.000 A 
ENDROOT
BRANCH   1  13
ATOM     12  N   UNL     1      -2.122  10.133  17.906  0.00  0.00    +0.000 N 
ATOM     13  C   UNL     1      -1.128  10.919  18.447  0.00  0.00    +0.000 C 
ATOM     14  O   UNL     1      -0.532  11.815  17.850  0.00  0.00    +0.000 OA
ATOM     15  H   UNL     1      -2.536   9.418  18.506  0.00  0.00    +0.000 HD
BRANCH  12  19
ATOM     16  C   UNL     1      -3.237   9.710  13.148  0.00  0.00    +0.000 C 
ATOM     17  N   UNL     1      -3.190  10.120  14.530  0.00  0.00    +0.000 N 
ATOM     18  C   UNL     1      -2.447   9.556  15.519  0.00  0.00    +0.000 A 
ATOM     19  C   UNL     1      -2.672  10.292  16.651  0.00  0.00    +0.000 A 
ATOM     20  C   UNL     1      -3.598  11.282  16.237  0.00  0.00    +0.000 A 
ATOM     21  N   UNL     1      -3.914  11.182  14.942  0.00  0.00    +0.000 NA
ENDBRANCH  12  19
ENDBRANCH   1  13
BRANCH   3  22
ATOM     22  C   UNL     1       1.844   8.560  21.501  0.00  0.00    +0.000 C 
BRANCH  22  23
ATOM     23  C   UNL     1       1.820   7.448  20.477  0.00  0.00    +0.000 A 
ATOM     24  C   UNL     1       2.308   7.668  19.182  0.00  0.00    +0.000 A 
ATOM     25  C   UNL     1       2.419   6.611  18.278  0.00  0.00    +0.000 A 
ATOM     26  C   UNL     1       2.043   5.320  18.657  0.00  0.00    +0.000 A 
ATOM     27 CL   UNL     1       2.297   4.042  17.523  0.00  0.00    +0.000 Cl
ATOM     28  C   UNL     1       1.508   5.098  19.930  0.00  0.00    +0.000 A 
ATOM     29 CL   UNL     1       1.008   3.534  20.467  0.00  0.00    +0.000 Cl
ATOM     30  C   UNL     1       1.390   6.162  20.832  0.00  0.00    +0.000 A 
ENDBRANCH  22  23
ENDBRANCH   3  22
TORSDOF 4
ENDMDL
MODEL 7
REMARK VINA RESULT:      -7.5      3.675      5.947
REMARK  Name = 
REMARK  5 active torsions:
REMARK  status: ('A' for Active; 'I' for Inactive)
REMARK    1  A    between atoms: C_1  and  N_2
REMARK    2  A    between atoms: C_4  and  N_5
REMARK    3  A    between atoms: C_6  and  C_8
REMARK    4  A    between atoms: N_10  and  C_11
REMARK    5  A    between atoms: C_11  and  C_12
REMARK                            x       y       z     vdW  Elec       q    Type
REMARK                         _______ _______ _______ _____ _____    ______ ____
ROOT
ATOM      1  C   UNL     1       3.061   6.853  18.327  0.00  0.00    +0.000 A 
ATOM      2  C   UNL     1       2.681   8.091  18.693  0.00  0.00    +0.000 A 
ATOM      3  N   UNL     1       1.809   8.342  19.742  0.00  0.00    +0.000 N 
ATOM      4  C   UNL     1       1.288   7.319  20.535  0.00  0.00    +0.000 A 
ATOM      5  O   UNL     1       0.543   7.500  21.494  0.00  0.00    +0.000 OA
ATOM      6  C   UNL     1       1.652   5.938  20.149  0.00  0.00    +0.000 A 
ATOM      7  C   UNL     1       1.088   4.841  20.807  0.00  0.00    +0.000 A 
ATOM      8  C   UNL     1       1.399   3.555  20.372  0.00  0.00    +0.000 A 
ATOM      9  C   UNL     1       2.278   3.417  19.311  0.00  0.00    +0.000 A 
ATOM     10  N   UNL     1       2.849   4.462  18.666  0.00  0.00    +0.000 NA
ATOM     11  C   UNL     1       2.516   5.717  19.081  0.00  0.00    +0.000 A 
ENDROOT
BRANCH   1  13
ATOM     12  N   UNL     1       4.797   5.677  17.093  0.00  0.00    +0.000 N 
ATOM     13  C   UNL     1       3.947   6.761  17.115  0.00  0.00    +0.000 C 
ATOM     14  O   UNL     1       3.864   7.613  16.232  0.00  0.00    +0.000 OA
ATOM     15  H   UNL     1       4.773   5.042  17.892  0.00  0.00    +0.000 HD
BRANCH  12  19
ATOM     16  C   UNL     1       6.576   3.810  12.920  0.00  0.00    +0.000 C 
ATOM     17  N   UNL     1       6.426   4.501  14.178  0.00  0.00    +0.000 N 
ATOM     18  C   UNL     1       5.280   4.642  14.895  0.00  0.00    +0.000 A 
ATOM     19  C   UNL     1       5.610   5.321  16.037  0.00  0.00    +0.000 A 
ATOM     20  C   UNL     1       7.000   5.566  15.900  0.00  0.00    +0.000 A 
ATOM     21  N   UNL     1       7.502   5.064  14.767  0.00  0.00    +0.000 NA
ENDBRANCH  12  19
ENDBRANCH   1  13
BRANCH   3  22
ATOM     22  C   UNL     1       1.394   9.723  20.020  0.00  0.00    +0.000 C 
BRANCH  22  23
ATOM     23  C   UNL     1       0.177  10.120  19.216  0.00  0.00    +0.000 A 
ATOM     24  C   UNL     1      -0.082   9.514  17.979  0.00  0.00    +0.000 A 
ATOM     25  C   UNL     1      -1.274   9.774  17.299  0.00  0.00    +0.000 A 
ATOM     26  C   UNL     1      -2.221  10.643  17.849  0.00  0.00    +0.000 A 
ATOM     27 CL   UNL     1      -3.713  10.843  17.003  0.00  0.00    +0.000 Cl
ATOM     28  C   UNL     1      -1.950  11.291  19.058  0.00  0.00    +0.000 A 
ATOM     29 CL   UNL     1      -3.063  12.388  19.792  0.00  0.00    +0.000 Cl
ATOM     30  C   UNL     1      -0.750  11.036  19.732  0.00  0.00    +0.000 A 
ENDBRANCH  22  23
ENDBRANCH   3  22
TORSDOF 4
ENDMDL
MODEL 8
REMARK VINA RESULT:      -7.4      3.714      6.053
REMARK  Name = 
REMARK  5 active torsions:
REMARK  status: ('A' for Active; 'I' for Inactive)
REMARK    1  A    between atoms: C_1  and  N_2
REMARK    2  A    between atoms: C_4  and  N_5
REMARK    3  A    between atoms: C_6  and  C_8
REMARK    4  A    between atoms: N_10  and  C_11
REMARK    5  A    between atoms: C_11  and  C_12
REMARK                            x       y       z     vdW  Elec       q    Type
REMARK                         _______ _______ _______ _____ _____    ______ ____
ROOT
ATOM      1  C   UNL     1       3.150   7.299  18.063  0.00  0.00    +0.000 A 
ATOM      2  C   UNL     1       2.722   8.570  18.179  0.00  0.00    +0.000 A 
ATOM      3  N   UNL     1       1.869   8.998  19.187  0.00  0.00    +0.000 N 
ATOM      4  C   UNL     1       1.419   8.142  20.193  0.00  0.00    +0.000 A 
ATOM      5  O   UNL     1       0.695   8.489  21.121  0.00  0.00    +0.000 OA
ATOM      6  C   UNL     1       1.837   6.727  20.087  0.00  0.00    +0.000 A 
ATOM      7  C   UNL     1       1.346   5.769  20.978  0.00  0.00    +0.000 A 
ATOM      8  C   UNL     1       1.705   4.434  20.806  0.00  0.00    +0.000 A 
ATOM      9  C   UNL     1       2.559   4.114  19.764  0.00  0.00    +0.000 A 
ATOM     10  N   UNL     1       3.061   5.024  18.897  0.00  0.00    +0.000 NA
ATOM     11  C   UNL     1       2.680   6.323  19.056  0.00  0.00    +0.000 A 
ENDROOT
BRANCH   1  13
ATOM     12  N   UNL     1       4.828   5.897  16.998  0.00  0.00    +0.000 N 
ATOM     13  C   UNL     1       4.004   6.993  16.864  0.00  0.00    +0.000 C 
ATOM     14  O   UNL     1       3.920   7.696  15.858  0.00  0.00    +0.000 OA
ATOM     15  H   UNL     1       4.809   5.398  17.888  0.00  0.00    +0.000 HD
BRANCH  12  19
ATOM     16  C   UNL     1       6.412   3.601  12.963  0.00  0.00    +0.000 C 
ATOM     17  N   UNL     1       6.339   4.340  14.199  0.00  0.00    +0.000 N 
ATOM     18  C   UNL     1       5.209   4.728  14.848  0.00  0.00    +0.000 A 
ATOM     19  C   UNL     1       5.608   5.357  15.996  0.00  0.00    +0.000 A 
ATOM     20  C   UNL     1       7.023   5.314  15.935  0.00  0.00    +0.000 A 
ATOM     21  N   UNL     1       7.473   4.692  14.841  0.00  0.00    +0.000 NA
ENDBRANCH  12  19
ENDBRANCH   1  13
BRANCH   3  22
ATOM     22  C   UNL     1       1.397  10.389  19.188  0.00  0.00    +0.000 C 
BRANCH  22  23
ATOM     23  C   UNL     1      -0.076  10.486  18.860  0.00  0.00    +0.000 A 
ATOM     24  C   UNL     1      -0.940  11.210  19.693  0.00  0.00    +0.000 A 
ATOM     25  C   UNL     1      -2.269  11.421  19.323  0.00  0.00    +0.000 A 
ATOM     26  C   UNL     1      -2.750  10.911  18.114  0.00  0.00    +0.000 A 
ATOM     27 CL   UNL     1      -4.376  11.291  17.672  0.00  0.00    +0.000 Cl
ATOM     28  C   UNL     1      -1.910  10.146  17.299  0.00  0.00    +0.000 A 
ATOM     29 CL   UNL     1      -2.436   9.471  15.799  0.00  0.00    +0.000 Cl
ATOM     30  C   UNL     1      -0.581   9.928  17.678  0.00  0.00    +0.000 A 
ENDBRANCH  22  23
ENDBRANCH   3  22
TORSDOF 4
ENDMDL
MODEL 9
REMARK VINA RESULT:      -7.3      1.047      1.591
REMARK  Name = 
REMARK  5 active torsions:
REMARK  status: ('A' for Active; 'I' for Inactive)
REMARK    1  A    between atoms: C_1  and  N_2
REMARK    2  A    between atoms: C_4  and  N_5
REMARK    3  A    between atoms: C_6  and  C_8
REMARK    4  A    between atoms: N_10  and  C_11
REMARK    5  A    between atoms: C_11  and  C_12
REMARK                            x       y       z     vdW  Elec       q    Type
REMARK                         _______ _______ _______ _____ _____    ______ ____
ROOT
ATOM      1  C   UNL     1       6.498   6.540  17.043  0.00  0.00    +0.000 A 
ATOM      2  C   UNL     1       5.589   6.553  18.035  0.00  0.00    +0.000 A 
ATOM      3  N   UNL     1       4.505   5.689  18.087  0.00  0.00    +0.000 N 
ATOM      4  C   UNL     1       4.297   4.700  17.124  0.00  0.00    +0.000 A 
ATOM      5  O   UNL     1       3.373   3.893  17.152  0.00  0.00    +0.000 OA
ATOM      6  C   UNL     1       5.253   4.670  15.996  0.00  0.00    +0.000 A 
ATOM      7  C   UNL     1       5.064   3.795  14.922  0.00  0.00    +0.000 A 
ATOM      8  C   UNL     1       5.943   3.842  13.844  0.00  0.00    +0.000 A 
ATOM      9  C   UNL     1       6.991   4.747  13.892  0.00  0.00    +0.000 A 
ATOM     10  N   UNL     1       7.206   5.594  14.925  0.00  0.00    +0.000 NA
ATOM     11  C   UNL     1       6.322   5.560  15.963  0.00  0.00    +0.000 A 
ENDROOT
BRANCH   1  13
ATOM     12  N   UNL     1       7.277   8.670  17.924  0.00  0.00    +0.000 N 
ATOM     13  C   UNL     1       7.562   7.601  17.103  0.00  0.00    +0.000 C 
ATOM     14  O   UNL     1       8.600   7.463  16.455  0.00  0.00    +0.000 OA
ATOM     15  H   UNL     1       6.377   8.668  18.405  0.00  0.00    +0.000 HD
BRANCH  12  19
ATOM     16  C   UNL     1       9.811  12.870  17.924  0.00  0.00    +0.000 C 
ATOM     17  N   UNL     1       9.288  11.566  18.251  0.00  0.00    +0.000 N 
ATOM     18  C   UNL     1       8.272  10.918  17.621  0.00  0.00    +0.000 A 
ATOM     19  C   UNL     1       8.146   9.697  18.228  0.00  0.00    +0.000 A 
ATOM     20  C   UNL     1       9.136   9.716  19.242  0.00  0.00    +0.000 A 
ATOM     21  N   UNL     1       9.837  10.854  19.258  0.00  0.00    +0.000 NA
ENDBRANCH  12  19
ENDBRANCH   1  13
BRANCH   3  22
ATOM     22  C   UNL     1       3.524   5.827  19.171  0.00  0.00    +0.000 C 
BRANCH  22  23
ATOM     23  C   UNL     1       2.760   7.128  19.079  0.00  0.00    +0.000 A 
ATOM     24  C   UNL     1       2.697   7.828  17.866  0.00  0.00    +0.000 A 
ATOM     25  C   UNL     1       1.880   8.953  17.739  0.00  0.00    +0.000 A 
ATOM     26  C   UNL     1       1.115   9.391  18.823  0.00  0.00    +0.000 A 
ATOM     27 CL   UNL     1       0.053  10.730  18.569  0.00  0.00    +0.000 Cl
ATOM     28  C   UNL     1       1.208   8.730  20.052  0.00  0.00    +0.000 A 
ATOM     29 CL   UNL     1       0.306   9.221  21.441  0.00  0.00    +0.000 Cl
ATOM     30  C   UNL     1       2.036   7.608  20.179  0.00  0.00    +0.000 A 
ENDBRANCH  22  23
ENDBRANCH   3  22
TORSDOF 4
ENDMDL
