MODEL 1
REMARK VINA RESULT:      -8.1      0.000      0.000
REMARK  Name = 
REMARK  3 active torsions:
REMARK  status: ('A' for Active; 'I' for Inactive)
REMARK    1  A    between atoms: C_1  and  S_2
REMARK    2  A    between atoms: S_2  and  C_5
REMARK    3  A    between atoms: C_8  and  C_9
REMARK                            x       y       z     vdW  Elec       q    Type
REMARK                         _______ _______ _______ _____ _____    ______ ____
ROOT
ATOM      1  C   UNL     1       9.182  10.280  18.871  0.00  0.00    +0.000 A 
ATOM      2  C   UNL     1       9.563  10.457  20.205  0.00  0.00    +0.000 A 
ATOM      3  C   UNL     1      10.162  11.654  20.619  0.00  0.00    +0.000 A 
ATOM      4  C   UNL     1      10.391  12.703  19.742  0.00  0.00    +0.000 A 
ATOM      5  N   UNL     1      10.959  13.834  20.194  0.00  0.00    +0.000 NA
ATOM      6  C   UNL     1      11.148  14.845  19.311  0.00  0.00    +0.000 A 
ATOM      7  C   UNL     1      10.793  14.776  17.977  0.00  0.00    +0.000 A 
ATOM      8 BR   UNL     1      11.069  16.241  16.825  0.00  0.00    +0.000 Br
ATOM      9  C   UNL     1      10.218  13.603  17.508  0.00  0.00    +0.000 A 
ATOM     10  C   UNL     1      10.006  12.537  18.395  0.00  0.00    +0.000 A 
ATOM     11  C   UNL     1       9.417  11.331  17.973  0.00  0.00    +0.000 A 
ENDROOT
BRANCH   1  15
ATOM     12  C   UNL     1       7.769   7.007  18.263  0.00  0.00    +0.000 A 
ATOM     13  N   UNL     1       7.390   7.639  17.174  0.00  0.00    +0.000 NA
ATOM     14  N   UNL     1       7.872   8.921  17.251  0.00  0.00    +0.000 NA
ATOM     15  C   UNL     1       8.541   9.059  18.385  0.00  0.00    +0.000 A 
ATOM     16  N   UNL     1       8.507   7.854  19.039  0.00  0.00    +0.000 N 
ATOM     17  H   UNL     1       8.916   7.624  19.932  0.00  0.00    +0.000 HD
BRANCH  12  19
ATOM     18  C   UNL     1       5.643   5.241  18.509  0.00  0.00    +0.000 C 
ATOM     19  S   UNL     1       7.401   5.359  18.701  0.00  0.00    +0.000 S 
ATOM     20  O   UNL     1       7.756   5.263  20.102  0.00  0.00    +0.000 OA
ATOM     21  O   UNL     1       8.067   4.554  17.697  0.00  0.00    +0.000 OA
ENDBRANCH  12  19
ENDBRANCH   1  15
TORSDOF 2
ENDMDL
MODEL 2
REMARK VINA RESULT:      -7.6      7.441      8.334
REMARK  Name = 
REMARK  3 active torsions:
REMARK  status: ('A' for Active; 'I' for Inactive)
REMARK    1  A    between atoms: C_1  and  S_2
REMARK    2  A    between atoms: S_2  and  C_5
REMARK    3  A    between atoms: C_8  and  C_9
REMARK                            x       y       z     vdW  Elec       q    Type
REMARK                         _______ _______ _______ _____ _____    ______ ____
ROOT
ATOM      1  C   UNL     1       2.925   7.341  18.389  0.00  0.00    +0.000 A 
ATOM      2  C   UNL     1       2.475   8.241  17.419  0.00  0.00    +0.000 A 
ATOM      3  C   UNL     1       1.522   9.216  17.743  0.00  0.00    +0.000 A 
ATOM      4  C   UNL     1       0.998   9.335  19.022  0.00  0.00    +0.000 A 
ATOM      5  N   UNL     1       0.095  10.295  19.281  0.00  0.00    +0.000 NA
ATOM      6  C   UNL     1      -0.379  10.393  20.548  0.00  0.00    +0.000 A 
ATOM      7  C   UNL     1       0.014   9.564  21.581  0.00  0.00    +0.000 A 
ATOM      8 BR   UNL     1      -0.677   9.789  23.320  0.00  0.00    +0.000 Br
ATOM      9  C   UNL     1       0.938   8.564  21.309  0.00  0.00    +0.000 A 
ATOM     10  C   UNL     1       1.449   8.435  20.009  0.00  0.00    +0.000 A 
ATOM     11  C   UNL     1       2.396   7.446  19.683  0.00  0.00    +0.000 A 
ENDROOT
BRANCH   1  15
ATOM     12  C   UNL     1       5.669   5.254  17.294  0.00  0.00    +0.000 A 
ATOM     13  N   UNL     1       5.124   4.477  18.205  0.00  0.00    +0.000 NA
ATOM     14  N   UNL     1       4.037   5.139  18.716  0.00  0.00    +0.000 NA
ATOM     15  C   UNL     1       3.927   6.312  18.112  0.00  0.00    +0.000 A 
ATOM     16  N   UNL     1       4.939   6.404  17.191  0.00  0.00    +0.000 N 
ATOM     17  H   UNL     1       5.142   7.172  16.570  0.00  0.00    +0.000 HD
BRANCH  12  19
ATOM     18  C   UNL     1       6.511   3.940  14.999  0.00  0.00    +0.000 C 
ATOM     19  S   UNL     1       7.099   4.922  16.353  0.00  0.00    +0.000 S 
ATOM     20  O   UNL     1       7.934   4.119  17.224  0.00  0.00    +0.000 OA
ATOM     21  O   UNL     1       7.535   6.218  15.875  0.00  0.00    +0.000 OA
ENDBRANCH  12  19
ENDBRANCH   1  15
TORSDOF 2
ENDMDL
MODEL 3
REMARK VINA RESULT:      -7.6      7.861      8.534
REMARK  Name = 
REMARK  3 active torsions:
REMARK  status: ('A' for Active; 'I' for Inactive)
REMARK    1  A    between atoms: C_1  and  S_2
REMARK    2  A    between atoms: S_2  and  C_5
REMARK    3  A    between atoms: C_8  and  C_9
REMARK                            x       y       z     vdW  Elec       q    Type
REMARK                         _______ _______ _______ _____ _____    ______ ____
ROOT
ATOM      1  C   UNL     1       2.440   7.460  18.874  0.00  0.00    +0.000 A 
ATOM      2  C   UNL     1       2.449   8.355  17.801  0.00  0.00    +0.000 A 
ATOM      3  C   UNL     1       1.769   9.578  17.891  0.00  0.00    +0.000 A 
ATOM      4  C   UNL     1       1.077   9.951  19.033  0.00  0.00    +0.000 A 
ATOM      5  N   UNL     1       0.451  11.139  19.071  0.00  0.00    +0.000 NA
ATOM      6  C   UNL     1      -0.198  11.477  20.212  0.00  0.00    +0.000 A 
ATOM      7  C   UNL     1      -0.253  10.671  21.333  0.00  0.00    +0.000 A 
ATOM      8 BR   UNL     1      -1.157  11.233  22.888  0.00  0.00    +0.000 Br
ATOM      9  C   UNL     1       0.384   9.438  21.289  0.00  0.00    +0.000 A 
ATOM     10  C   UNL     1       1.066   9.056  20.124  0.00  0.00    +0.000 A 
ATOM     11  C   UNL     1       1.737   7.823  20.031  0.00  0.00    +0.000 A 
ENDROOT
BRANCH   1  15
ATOM     12  C   UNL     1       3.707   4.090  19.226  0.00  0.00    +0.000 A 
ATOM     13  N   UNL     1       4.515   4.555  18.299  0.00  0.00    +0.000 NA
ATOM     14  N   UNL     1       4.162   5.859  18.059  0.00  0.00    +0.000 NA
ATOM     15  C   UNL     1       3.143   6.177  18.842  0.00  0.00    +0.000 A 
ATOM     16  N   UNL     1       2.845   5.079  19.607  0.00  0.00    +0.000 N 
ATOM     17  H   UNL     1       2.118   4.987  20.300  0.00  0.00    +0.000 HD
BRANCH  12  19
ATOM     18  C   UNL     1       2.648   2.603  21.316  0.00  0.00    +0.000 C 
ATOM     19  S   UNL     1       3.687   2.475  19.885  0.00  0.00    +0.000 S 
ATOM     20  O   UNL     1       5.057   2.226  20.287  0.00  0.00    +0.000 OA
ATOM     21  O   UNL     1       3.040   1.671  18.869  0.00  0.00    +0.000 OA
ENDBRANCH  12  19
ENDBRANCH   1  15
TORSDOF 2
ENDMDL
MODEL 4
REMARK VINA RESULT:      -7.6      7.825      8.526
REMARK  Name = 
REMARK  3 active torsions:
REMARK  status: ('A' for Active; 'I' for Inactive)
REMARK    1  A    between atoms: C_1  and  S_2
REMARK    2  A    between atoms: S_2  and  C_5
REMARK    3  A    between atoms: C_8  and  C_9
REMARK                            x       y       z     vdW  Elec       q    Type
REMARK                         _______ _______ _______ _____ _____    ______ ____
ROOT
ATOM      1  C   UNL     1       2.463   7.510  18.915  0.00  0.00    +0.000 A 
ATOM      2  C   UNL     1       2.437   8.393  17.832  0.00  0.00    +0.000 A 
ATOM      3  C   UNL     1       1.724   9.597  17.915  0.00  0.00    +0.000 A 
ATOM      4  C   UNL     1       1.032   9.965  19.059  0.00  0.00    +0.000 A 
ATOM      5  N   UNL     1       0.374  11.135  19.089  0.00  0.00    +0.000 NA
ATOM      6  C   UNL     1      -0.274  11.468  20.232  0.00  0.00    +0.000 A 
ATOM      7  C   UNL     1      -0.296  10.674  21.362  0.00  0.00    +0.000 A 
ATOM      8 BR   UNL     1      -1.202  11.228  22.919  0.00  0.00    +0.000 Br
ATOM      9  C   UNL     1       0.374   9.458  21.326  0.00  0.00    +0.000 A 
ATOM     10  C   UNL     1       1.056   9.082  20.159  0.00  0.00    +0.000 A 
ATOM     11  C   UNL     1       1.760   7.867  20.074  0.00  0.00    +0.000 A 
ENDROOT
BRANCH   1  15
ATOM     12  C   UNL     1       3.803   4.169  19.263  0.00  0.00    +0.000 A 
ATOM     13  N   UNL     1       4.638   4.672  18.379  0.00  0.00    +0.000 NA
ATOM     14  N   UNL     1       4.260   5.971  18.147  0.00  0.00    +0.000 NA
ATOM     15  C   UNL     1       3.200   6.248  18.891  0.00  0.00    +0.000 A 
ATOM     16  N   UNL     1       2.900   5.128  19.623  0.00  0.00    +0.000 N 
ATOM     17  H   UNL     1       2.147   5.004  20.283  0.00  0.00    +0.000 HD
BRANCH  12  19
ATOM     18  C   UNL     1       3.359   1.539  18.500  0.00  0.00    +0.000 C 
ATOM     19  S   UNL     1       3.799   2.542  19.892  0.00  0.00    +0.000 S 
ATOM     20  O   UNL     1       2.731   2.530  20.872  0.00  0.00    +0.000 OA
ATOM     21  O   UNL     1       5.174   2.291  20.273  0.00  0.00    +0.000 OA
ENDBRANCH  12  19
ENDBRANCH   1  15
TORSDOF 2
ENDMDL
MODEL 5
REMARK VINA RESULT:      -7.3      7.276      8.016
REMARK  Name = 
REMARK  3 active torsions:
REMARK  status: ('A' for Active; 'I' for Inactive)
REMARK    1  A    between atoms: C_1  and  S_2
REMARK    2  A    between atoms: S_2  and  C_5
REMARK    3  A    between atoms: C_8  and  C_9
REMARK                            x       y       z     vdW  Elec       q    Type
REMARK                         _______ _______ _______ _____ _____    ______ ____
ROOT
ATOM      1  C   UNL     1       2.828   6.828  18.813  0.00  0.00    +0.000 A 
ATOM      2  C   UNL     1       2.340   6.438  20.063  0.00  0.00    +0.000 A 
ATOM      3  C   UNL     1       1.459   7.268  20.772  0.00  0.00    +0.000 A 
ATOM      4  C   UNL     1       1.033   8.487  20.268  0.00  0.00    +0.000 A 
ATOM      5  N   UNL     1       0.179   9.238  20.983  0.00  0.00    +0.000 NA
ATOM      6  C   UNL     1      -0.231  10.414  20.448  0.00  0.00    +0.000 A 
ATOM      7  C   UNL     1       0.180  10.882  19.214  0.00  0.00    +0.000 A 
ATOM      8 BR   UNL     1      -0.462  12.518  18.535  0.00  0.00    +0.000 Br
ATOM      9  C   UNL     1       1.072  10.110  18.481  0.00  0.00    +0.000 A 
ATOM     10  C   UNL     1       1.516   8.887  19.004  0.00  0.00    +0.000 A 
ATOM     11  C   UNL     1       2.410   8.062  18.297  0.00  0.00    +0.000 A 
ENDROOT
BRANCH   1  15
ATOM     12  C   UNL     1       5.513   5.273  16.954  0.00  0.00    +0.000 A 
ATOM     13  N   UNL     1       4.613   4.314  16.924  0.00  0.00    +0.000 NA
ATOM     14  N   UNL     1       3.504   4.768  17.593  0.00  0.00    +0.000 NA
ATOM     15  C   UNL     1       3.737   5.998  18.023  0.00  0.00    +0.000 A 
ATOM     16  N   UNL     1       4.998   6.351  17.616  0.00  0.00    +0.000 N 
ATOM     17  H   UNL     1       5.482   7.220  17.785  0.00  0.00    +0.000 HD
BRANCH  12  19
ATOM     18  C   UNL     1       6.888   4.622  14.633  0.00  0.00    +0.000 C 
ATOM     19  S   UNL     1       7.123   5.221  16.285  0.00  0.00    +0.000 S 
ATOM     20  O   UNL     1       7.819   4.229  17.080  0.00  0.00    +0.000 OA
ATOM     21  O   UNL     1       7.555   6.603  16.256  0.00  0.00    +0.000 OA
ENDBRANCH  12  19
ENDBRANCH   1  15
TORSDOF 2
ENDMDL
MODEL 6
REMARK VINA RESULT:      -7.2      7.236      7.998
REMARK  Name = 
REMARK  3 active torsions:
REMARK  status: ('A' for Active; 'I' for Inactive)
REMARK    1  A    between atoms: C_1  and  S_2
REMARK    2  A    between atoms: S_2  and  C_5
REMARK    3  A    between atoms: C_8  and  C_9
REMARK                            x       y       z     vdW  Elec       q    Type
REMARK                         _______ _______ _______ _____ _____    ______ ____
ROOT
ATOM      1  C   UNL     1       2.483   7.077  18.861  0.00  0.00    +0.000 A 
ATOM      2  C   UNL     1       2.110   6.847  20.188  0.00  0.00    +0.000 A 
ATOM      3  C   UNL     1       1.401   7.821  20.905  0.00  0.00    +0.000 A 
ATOM      4  C   UNL     1       1.036   9.032  20.336  0.00  0.00    +0.000 A 
ATOM      5  N   UNL     1       0.347   9.927  21.065  0.00  0.00    +0.000 NA
ATOM      6  C   UNL     1      -0.009  11.090  20.467  0.00  0.00    +0.000 A 
ATOM      7  C   UNL     1       0.296  11.406  19.157  0.00  0.00    +0.000 A 
ATOM      8 BR   UNL     1      -0.263  13.038  18.398  0.00  0.00    +0.000 Br
ATOM      9  C   UNL     1       1.019  10.487  18.409  0.00  0.00    +0.000 A 
ATOM     10  C   UNL     1       1.403   9.272  18.995  0.00  0.00    +0.000 A 
ATOM     11  C   UNL     1       2.126   8.301  18.278  0.00  0.00    +0.000 A 
ENDROOT
BRANCH   1  15
ATOM     12  C   UNL     1       4.780   5.089  16.899  0.00  0.00    +0.000 A 
ATOM     13  N   UNL     1       3.776   4.248  17.018  0.00  0.00    +0.000 NA
ATOM     14  N   UNL     1       2.796   4.876  17.745  0.00  0.00    +0.000 NA
ATOM     15  C   UNL     1       3.210   6.093  18.060  0.00  0.00    +0.000 A 
ATOM     16  N   UNL     1       4.460   6.262  17.520  0.00  0.00    +0.000 N 
ATOM     17  H   UNL     1       5.055   7.074  17.582  0.00  0.00    +0.000 HD
BRANCH  12  19
ATOM     18  C   UNL     1       7.461   4.608  17.428  0.00  0.00    +0.000 C 
ATOM     19  S   UNL     1       6.303   4.796  16.100  0.00  0.00    +0.000 S 
ATOM     20  O   UNL     1       6.576   6.018  15.371  0.00  0.00    +0.000 OA
ATOM     21  O   UNL     1       6.122   3.533  15.414  0.00  0.00    +0.000 OA
ENDBRANCH  12  19
ENDBRANCH   1  15
TORSDOF 2
ENDMDL
MODEL 7
REMARK VINA RESULT:      -7.2      8.130      8.751
REMARK  Name = 
REMARK  3 active torsions:
REMARK  status: ('A' for Active; 'I' for Inactive)
REMARK    1  A    between atoms: C_1  and  S_2
REMARK    2  A    between atoms: S_2  and  C_5
REMARK    3  A    between atoms: C_8  and  C_9
REMARK                            x       y       z     vdW  Elec       q    Type
REMARK                         _______ _______ _______ _____ _____    ______ ____
ROOT
ATOM      1  C   UNL     1       2.167   7.609  19.289  0.00  0.00    +0.000 A 
ATOM      2  C   UNL     1       2.205   8.359  18.111  0.00  0.00    +0.000 A 
ATOM      3  C   UNL     1       1.572   9.608  18.043  0.00  0.00    +0.000 A 
ATOM      4  C   UNL     1       0.900  10.150  19.128  0.00  0.00    +0.000 A 
ATOM      5  N   UNL     1       0.320  11.356  19.013  0.00  0.00    +0.000 NA
ATOM      6  C   UNL     1      -0.311  11.862  20.101  0.00  0.00    +0.000 A 
ATOM      7  C   UNL     1      -0.390  11.209  21.316  0.00  0.00    +0.000 A 
ATOM      8 BR   UNL     1      -1.265  11.999  22.786  0.00  0.00    +0.000 Br
ATOM      9  C   UNL     1       0.199   9.957  21.430  0.00  0.00    +0.000 A 
ATOM     10  C   UNL     1       0.860   9.403  20.324  0.00  0.00    +0.000 A 
ATOM     11  C   UNL     1       1.483   8.143  20.390  0.00  0.00    +0.000 A 
ENDROOT
BRANCH   1  15
ATOM     12  C   UNL     1       3.216   4.205  19.920  0.00  0.00    +0.000 A 
ATOM     13  N   UNL     1       4.238   4.646  19.219  0.00  0.00    +0.000 NA
ATOM     14  N   UNL     1       3.990   5.959  18.908  0.00  0.00    +0.000 NA
ATOM     15  C   UNL     1       2.821   6.307  19.422  0.00  0.00    +0.000 A 
ATOM     16  N   UNL     1       2.315   5.218  20.085  0.00  0.00    +0.000 N 
ATOM     17  H   UNL     1       1.439   5.148  20.580  0.00  0.00    +0.000 HD
BRANCH  12  19
ATOM     18  C   UNL     1       4.571   1.818  20.328  0.00  0.00    +0.000 C 
ATOM     19  S   UNL     1       2.991   2.592  20.545  0.00  0.00    +0.000 S 
ATOM     20  O   UNL     1       2.015   1.988  19.661  0.00  0.00    +0.000 OA
ATOM     21  O   UNL     1       2.717   2.779  21.955  0.00  0.00    +0.000 OA
ENDBRANCH  12  19
ENDBRANCH   1  15
TORSDOF 2
ENDMDL
MODEL 8
REMARK VINA RESULT:      -7.1      1.784      2.263
REMARK  Name = 
REMARK  3 active torsions:
REMARK  status: ('A' for Active; 'I' for Inactive)
REMARK    1  A    between atoms: C_1  and  S_2
REMARK    2  A    between atoms: S_2  and  C_5
REMARK    3  A    between atoms: C_8  and  C_9
REMARK                            x       y       z     vdW  Elec       q    Type
REMARK                         _______ _______ _______ _____ _____    ______ ____
ROOT
ATOM      1  C   UNL     1       9.209  10.312  18.621  0.00  0.00    +0.000 A 
ATOM      2  C   UNL     1      10.232  10.871  17.851  0.00  0.00    +0.000 A 
ATOM      3  C   UNL     1      10.835  12.076  18.237  0.00  0.00    +0.000 A 
ATOM      4  C   UNL     1      10.456  12.751  19.388  0.00  0.00    +0.000 A 
ATOM      5  N   UNL     1      11.074  13.897  19.719  0.00  0.00    +0.000 NA
ATOM      6  C   UNL     1      10.689  14.517  20.861  0.00  0.00    +0.000 A 
ATOM      7  C   UNL     1       9.701  14.039  21.700  0.00  0.00    +0.000 A 
ATOM      8 BR   UNL     1       9.248  14.953  23.284  0.00  0.00    +0.000 Br
ATOM      9  C   UNL     1       9.054  12.861  21.351  0.00  0.00    +0.000 A 
ATOM     10  C   UNL     1       9.427  12.193  20.175  0.00  0.00    +0.000 A 
ATOM     11  C   UNL     1       8.811  10.990  19.782  0.00  0.00    +0.000 A 
ENDROOT
BRANCH   1  15
ATOM     12  C   UNL     1       7.810   6.987  18.360  0.00  0.00    +0.000 A 
ATOM     13  N   UNL     1       7.338   7.533  17.260  0.00  0.00    +0.000 NA
ATOM     14  N   UNL     1       7.803   8.824  17.208  0.00  0.00    +0.000 NA
ATOM     15  C   UNL     1       8.554   9.051  18.274  0.00  0.00    +0.000 A 
ATOM     16  N   UNL     1       8.591   7.897  19.013  0.00  0.00    +0.000 N 
ATOM     17  H   UNL     1       9.070   7.737  19.887  0.00  0.00    +0.000 HD
BRANCH  12  19
ATOM     18  C   UNL     1       5.743   5.202  18.850  0.00  0.00    +0.000 C 
ATOM     19  S   UNL     1       7.505   5.371  18.941  0.00  0.00    +0.000 S 
ATOM     20  O   UNL     1       7.932   5.392  20.325  0.00  0.00    +0.000 OA
ATOM     21  O   UNL     1       8.139   4.504  17.969  0.00  0.00    +0.000 OA
ENDBRANCH  12  19
ENDBRANCH   1  15
TORSDOF 2
ENDMDL
MODEL 9
REMARK VINA RESULT:      -7.1      7.493      8.915
REMARK  Name = 
REMARK  3 active torsions:
REMARK  status: ('A' for Active; 'I' for Inactive)
REMARK    1  A    between atoms: C_1  and  S_2
REMARK    2  A    between atoms: S_2  and  C_5
REMARK    3  A    between atoms: C_8  and  C_9
REMARK                            x       y       z     vdW  Elec       q    Type
REMARK                         _______ _______ _______ _____ _____    ______ ____
ROOT
ATOM      1  C   UNL     1       5.520   4.227  17.722  0.00  0.00    +0.000 A 
ATOM      2  C   UNL     1       6.451   5.259  17.876  0.00  0.00    +0.000 A 
ATOM      3  C   UNL     1       7.218   5.691  16.786  0.00  0.00    +0.000 A 
ATOM      4  C   UNL     1       7.084   5.131  15.524  0.00  0.00    +0.000 A 
ATOM      5  N   UNL     1       7.836   5.591  14.511  0.00  0.00    +0.000 NA
ATOM      6  C   UNL     1       7.661   5.032  13.288  0.00  0.00    +0.000 A 
ATOM      7  C   UNL     1       6.757   4.020  13.028  0.00  0.00    +0.000 A 
ATOM      8 BR   UNL     1       6.561   3.319  11.290  0.00  0.00    +0.000 Br
ATOM      9  C   UNL     1       5.989   3.537  14.079  0.00  0.00    +0.000 A 
ATOM     10  C   UNL     1       6.143   4.093  15.357  0.00  0.00    +0.000 A 
ATOM     11  C   UNL     1       5.381   3.647  16.453  0.00  0.00    +0.000 A 
ENDROOT
BRANCH   1  15
ATOM     12  C   UNL     1       2.955   3.345  20.114  0.00  0.00    +0.000 A 
ATOM     13  N   UNL     1       3.978   2.681  20.604  0.00  0.00    +0.000 NA
ATOM     14  N   UNL     1       5.058   2.930  19.794  0.00  0.00    +0.000 NA
ATOM     15  C   UNL     1       4.683   3.744  18.820  0.00  0.00    +0.000 A 
ATOM     16  N   UNL     1       3.357   4.039  19.009  0.00  0.00    +0.000 N 
ATOM     17  H   UNL     1       2.767   4.626  18.439  0.00  0.00    +0.000 HD
BRANCH  12  19
ATOM     18  C   UNL     1       0.391   2.470  19.513  0.00  0.00    +0.000 C 
ATOM     19  S   UNL     1       1.323   3.359  20.730  0.00  0.00    +0.000 S 
ATOM     20  O   UNL     1       0.941   4.757  20.726  0.00  0.00    +0.000 OA
ATOM     21  O   UNL     1       1.388   2.599  21.962  0.00  0.00    +0.000 OA
ENDBRANCH  12  19
ENDBRANCH   1  15
TORSDOF 2
ENDMDL
