MODEL 1
REMARK VINA RESULT:      -7.6      0.000      0.000
REMARK  Name = 
REMARK  3 active torsions:
REMARK  status: ('A' for Active; 'I' for Inactive)
REMARK    1  A    between atoms: C_2  and  O_3
REMARK    2  A    between atoms: C_2  and  C_4
REMARK    3  A    between atoms: C_10  and  C_12
REMARK                            x       y       z     vdW  Elec       q    Type
REMARK                         _______ _______ _______ _____ _____    ______ ____
ROOT
ATOM      1  C   UNL     1       7.060   4.940  17.518  0.00  0.00    +0.000 C 
ATOM      2  C   UNL     1       7.474   5.418  16.107  0.00  0.00    +0.000 C 
ATOM      3  C   UNL     1       6.853   4.605  14.973  0.00  0.00    +0.000 C 
ATOM      4  C   UNL     1       5.350   4.455  15.157  0.00  0.00    +0.000 C 
ATOM      5  C   UNL     1       5.048   3.901  16.546  0.00  0.00    +0.000 C 
ATOM      6  N   UNL     1       5.578   4.797  17.577  0.00  0.00    +0.000 N 
ATOM      7  C   UNL     1       4.947   4.943  18.816  0.00  0.00    +0.000 C 
ATOM      8  O   UNL     1       5.471   5.616  19.702  0.00  0.00    +0.000 OA
ENDROOT
BRANCH   7   9
ATOM      9  C   UNL     1       3.558   4.323  19.037  0.00  0.00    +0.000 C 
ATOM     10  C   UNL     1       3.708   2.811  19.289  0.00  0.00    +0.000 C 
ATOM     11  C   UNL     1       2.404   2.023  19.185  0.00  0.00    +0.000 C 
ATOM     12  C   UNL     1       1.451   2.219  20.323  0.00  0.00    +0.000 C 
ATOM     13  C   UNL     1       0.988   3.391  20.777  0.00  0.00    +0.000 C 
ATOM     14  C   UNL     1       1.332   4.745  20.241  0.00  0.00    +0.000 C 
ATOM     15  C   UNL     1       2.831   5.043  20.189  0.00  0.00    +0.000 C 
ENDBRANCH   7   9
BRANCH   1  17
ATOM     16  O   UNL     1       7.897   7.089  18.319  0.00  0.00    +0.000 OA
ATOM     17  C   UNL     1       7.817   5.878  18.491  0.00  0.00    +0.000 C 
BRANCH  17  18
ATOM     18  O   UNL     1       8.212   5.287  19.644  0.00  0.00    +0.000 OA
ATOM     19  H   UNL     1       9.174   5.126  19.638  0.00  0.00    +0.000 HD
ENDBRANCH  17  18
ENDBRANCH   1  17
TORSDOF 3
ENDMDL
MODEL 2
REMARK VINA RESULT:      -7.5      0.841      1.018
REMARK  Name = 
REMARK  3 active torsions:
REMARK  status: ('A' for Active; 'I' for Inactive)
REMARK    1  A    between atoms: C_2  and  O_3
REMARK    2  A    between atoms: C_2  and  C_4
REMARK    3  A    between atoms: C_10  and  C_12
REMARK                            x       y       z     vdW  Elec       q    Type
REMARK                         _______ _______ _______ _____ _____    ______ ____
ROOT
ATOM      1  C   UNL     1       7.081   4.962  17.442  0.00  0.00    +0.000 C 
ATOM      2  C   UNL     1       7.378   5.501  16.023  0.00  0.00    +0.000 C 
ATOM      3  C   UNL     1       6.840   4.615  14.902  0.00  0.00    +0.000 C 
ATOM      4  C   UNL     1       5.380   4.256  15.132  0.00  0.00    +0.000 C 
ATOM      5  C   UNL     1       5.204   3.656  16.524  0.00  0.00    +0.000 C 
ATOM      6  N   UNL     1       5.636   4.613  17.547  0.00  0.00    +0.000 N 
ATOM      7  C   UNL     1       5.032   4.662  18.806  0.00  0.00    +0.000 C 
ATOM      8  O   UNL     1       5.485   5.397  19.683  0.00  0.00    +0.000 OA
ENDROOT
BRANCH   7   9
ATOM      9  C   UNL     1       3.752   3.852  19.065  0.00  0.00    +0.000 C 
ATOM     10  C   UNL     1       3.529   3.721  20.584  0.00  0.00    +0.000 C 
ATOM     11  C   UNL     1       2.498   2.667  20.981  0.00  0.00    +0.000 C 
ATOM     12  C   UNL     1       1.073   3.036  20.703  0.00  0.00    +0.000 C 
ATOM     13  C   UNL     1       0.571   3.432  19.526  0.00  0.00    +0.000 C 
ATOM     14  C   UNL     1       1.334   3.591  18.249  0.00  0.00    +0.000 C 
ATOM     15  C   UNL     1       2.554   4.507  18.349  0.00  0.00    +0.000 C 
ENDBRANCH   7   9
BRANCH   1  17
ATOM     16  O   UNL     1       7.673   7.202  18.214  0.00  0.00    +0.000 OA
ATOM     17  C   UNL     1       7.731   5.991  18.400  0.00  0.00    +0.000 C 
BRANCH  17  18
ATOM     18  O   UNL     1       8.195   5.463  19.558  0.00  0.00    +0.000 OA
ATOM     19  H   UNL     1       8.824   4.738  19.380  0.00  0.00    +0.000 HD
ENDBRANCH  17  18
ENDBRANCH   1  17
TORSDOF 3
ENDMDL
MODEL 3
REMARK VINA RESULT:      -7.0      1.087      1.397
REMARK  Name = 
REMARK  3 active torsions:
REMARK  status: ('A' for Active; 'I' for Inactive)
REMARK    1  A    between atoms: C_2  and  O_3
REMARK    2  A    between atoms: C_2  and  C_4
REMARK    3  A    between atoms: C_10  and  C_12
REMARK                            x       y       z     vdW  Elec       q    Type
REMARK                         _______ _______ _______ _____ _____    ______ ____
ROOT
ATOM      1  C   UNL     1       6.924   5.326  16.880  0.00  0.00    +0.000 C 
ATOM      2  C   UNL     1       7.198   5.664  15.396  0.00  0.00    +0.000 C 
ATOM      3  C   UNL     1       6.840   4.537  14.430  0.00  0.00    +0.000 C 
ATOM      4  C   UNL     1       5.439   4.006  14.692  0.00  0.00    +0.000 C 
ATOM      5  C   UNL     1       5.295   3.622  16.162  0.00  0.00    +0.000 C 
ATOM      6  N   UNL     1       5.542   4.786  17.017  0.00  0.00    +0.000 N 
ATOM      7  C   UNL     1       4.886   4.949  18.241  0.00  0.00    +0.000 C 
ATOM      8  O   UNL     1       5.192   5.876  18.989  0.00  0.00    +0.000 OA
ENDROOT
BRANCH   7   9
ATOM      9  C   UNL     1       3.726   4.010  18.610  0.00  0.00    +0.000 C 
ATOM     10  C   UNL     1       3.794   3.682  20.114  0.00  0.00    +0.000 C 
ATOM     11  C   UNL     1       2.920   2.506  20.542  0.00  0.00    +0.000 C 
ATOM     12  C   UNL     1       1.448   2.785  20.567  0.00  0.00    +0.000 C 
ATOM     13  C   UNL     1       0.716   3.274  19.559  0.00  0.00    +0.000 C 
ATOM     14  C   UNL     1       1.220   3.646  18.200  0.00  0.00    +0.000 C 
ATOM     15  C   UNL     1       2.381   4.642  18.206  0.00  0.00    +0.000 C 
ENDBRANCH   7   9
BRANCH   1  17
ATOM     16  O   UNL     1       8.171   6.534  18.597  0.00  0.00    +0.000 OA
ATOM     17  C   UNL     1       7.379   6.583  17.663  0.00  0.00    +0.000 C 
BRANCH  17  18
ATOM     18  O   UNL     1       6.990   7.757  17.110  0.00  0.00    +0.000 OA
ATOM     19  H   UNL     1       6.189   7.635  16.566  0.00  0.00    +0.000 HD
ENDBRANCH  17  18
ENDBRANCH   1  17
TORSDOF 3
ENDMDL
MODEL 4
REMARK VINA RESULT:      -7.0      3.039      4.774
REMARK  Name = 
REMARK  3 active torsions:
REMARK  status: ('A' for Active; 'I' for Inactive)
REMARK    1  A    between atoms: C_2  and  O_3
REMARK    2  A    between atoms: C_2  and  C_4
REMARK    3  A    between atoms: C_10  and  C_12
REMARK                            x       y       z     vdW  Elec       q    Type
REMARK                         _______ _______ _______ _____ _____    ______ ____
ROOT
ATOM      1  C   UNL     1       4.059   3.820  18.708  0.00  0.00    +0.000 C 
ATOM      2  C   UNL     1       3.652   2.439  18.144  0.00  0.00    +0.000 C 
ATOM      3  C   UNL     1       2.286   1.954  18.625  0.00  0.00    +0.000 C 
ATOM      4  C   UNL     1       1.223   3.029  18.451  0.00  0.00    +0.000 C 
ATOM      5  C   UNL     1       1.682   4.325  19.113  0.00  0.00    +0.000 C 
ATOM      6  N   UNL     1       2.939   4.784  18.516  0.00  0.00    +0.000 N 
ATOM      7  C   UNL     1       3.246   6.142  18.406  0.00  0.00    +0.000 C 
ATOM      8  O   UNL     1       4.353   6.497  18.002  0.00  0.00    +0.000 OA
ENDROOT
BRANCH   7   9
ATOM      9  C   UNL     1       2.167   7.191  18.717  0.00  0.00    +0.000 C 
ATOM     10  C   UNL     1       2.158   7.482  20.230  0.00  0.00    +0.000 C 
ATOM     11  C   UNL     1       0.924   8.237  20.719  0.00  0.00    +0.000 C 
ATOM     12  C   UNL     1       0.875   9.686  20.339  0.00  0.00    +0.000 C 
ATOM     13  C   UNL     1       0.988  10.186  19.102  0.00  0.00    +0.000 C 
ATOM     14  C   UNL     1       1.192   9.398  17.845  0.00  0.00    +0.000 C 
ATOM     15  C   UNL     1       2.399   8.460  17.875  0.00  0.00    +0.000 C 
ENDBRANCH   7   9
BRANCH   1  17
ATOM     16  O   UNL     1       6.448   4.313  18.812  0.00  0.00    +0.000 OA
ATOM     17  C   UNL     1       5.465   4.090  18.115  0.00  0.00    +0.000 C 
BRANCH  17  18
ATOM     18  O   UNL     1       5.563   3.865  16.783  0.00  0.00    +0.000 OA
ATOM     19  H   UNL     1       4.917   3.191  16.498  0.00  0.00    +0.000 HD
ENDBRANCH  17  18
ENDBRANCH   1  17
TORSDOF 3
ENDMDL
MODEL 5
REMARK VINA RESULT:      -7.0      2.090      3.112
REMARK  Name = 
REMARK  3 active torsions:
REMARK  status: ('A' for Active; 'I' for Inactive)
REMARK    1  A    between atoms: C_2  and  O_3
REMARK    2  A    between atoms: C_2  and  C_4
REMARK    3  A    between atoms: C_10  and  C_12
REMARK                            x       y       z     vdW  Elec       q    Type
REMARK                         _______ _______ _______ _____ _____    ______ ____
ROOT
ATOM      1  C   UNL     1       5.968   6.350  16.998  0.00  0.00    +0.000 C 
ATOM      2  C   UNL     1       7.500   6.489  17.163  0.00  0.00    +0.000 C 
ATOM      3  C   UNL     1       7.954   6.629  18.614  0.00  0.00    +0.000 C 
ATOM      4  C   UNL     1       7.335   5.555  19.495  0.00  0.00    +0.000 C 
ATOM      5  C   UNL     1       5.819   5.554  19.326  0.00  0.00    +0.000 C 
ATOM      6  N   UNL     1       5.464   5.299  17.927  0.00  0.00    +0.000 N 
ATOM      7  C   UNL     1       4.297   4.613  17.579  0.00  0.00    +0.000 C 
ATOM      8  O   UNL     1       3.968   4.508  16.398  0.00  0.00    +0.000 OA
ENDROOT
BRANCH   7   9
ATOM      9  C   UNL     1       3.469   3.922  18.674  0.00  0.00    +0.000 C 
ATOM     10  C   UNL     1       2.618   4.974  19.411  0.00  0.00    +0.000 C 
ATOM     11  C   UNL     1       2.016   4.487  20.727  0.00  0.00    +0.000 C 
ATOM     12  C   UNL     1       0.880   3.520  20.586  0.00  0.00    +0.000 C 
ATOM     13  C   UNL     1       0.894   2.376  19.891  0.00  0.00    +0.000 C 
ATOM     14  C   UNL     1       2.047   1.832  19.108  0.00  0.00    +0.000 C 
ATOM     15  C   UNL     1       2.614   2.795  18.064  0.00  0.00    +0.000 C 
ENDBRANCH   7   9
BRANCH   1  17
ATOM     16  O   UNL     1       5.056   7.050  14.844  0.00  0.00    +0.000 OA
ATOM     17  C   UNL     1       5.742   6.249  15.469  0.00  0.00    +0.000 C 
BRANCH  17  18
ATOM     18  O   UNL     1       6.519   5.329  14.848  0.00  0.00    +0.000 OA
ATOM     19  H   UNL     1       5.990   4.554  14.581  0.00  0.00    +0.000 HD
ENDBRANCH  17  18
ENDBRANCH   1  17
TORSDOF 3
ENDMDL
MODEL 6
REMARK VINA RESULT:      -6.9      2.411      5.982
REMARK  Name = 
REMARK  3 active torsions:
REMARK  status: ('A' for Active; 'I' for Inactive)
REMARK    1  A    between atoms: C_2  and  O_3
REMARK    2  A    between atoms: C_2  and  C_4
REMARK    3  A    between atoms: C_10  and  C_12
REMARK                            x       y       z     vdW  Elec       q    Type
REMARK                         _______ _______ _______ _____ _____    ______ ____
ROOT
ATOM      1  C   UNL     1       2.811   2.820  19.250  0.00  0.00    +0.000 C 
ATOM      2  C   UNL     1       1.306   2.946  19.581  0.00  0.00    +0.000 C 
ATOM      3  C   UNL     1       1.001   3.938  20.701  0.00  0.00    +0.000 C 
ATOM      4  C   UNL     1       1.694   5.272  20.465  0.00  0.00    +0.000 C 
ATOM      5  C   UNL     1       3.185   5.049  20.232  0.00  0.00    +0.000 C 
ATOM      6  N   UNL     1       3.394   4.180  19.071  0.00  0.00    +0.000 N 
ATOM      7  C   UNL     1       4.513   4.317  18.244  0.00  0.00    +0.000 C 
ATOM      8  O   UNL     1       4.720   3.506  17.342  0.00  0.00    +0.000 OA
ENDROOT
BRANCH   7   9
ATOM      9  C   UNL     1       5.439   5.532  18.417  0.00  0.00    +0.000 C 
ATOM     10  C   UNL     1       6.838   5.050  18.844  0.00  0.00    +0.000 C 
ATOM     11  C   UNL     1       7.749   6.154  19.376  0.00  0.00    +0.000 C 
ATOM     12  C   UNL     1       8.280   7.094  18.338  0.00  0.00    +0.000 C 
ATOM     13  C   UNL     1       7.556   7.787  17.450  0.00  0.00    +0.000 C 
ATOM     14  C   UNL     1       6.066   7.760  17.312  0.00  0.00    +0.000 C 
ATOM     15  C   UNL     1       5.473   6.364  17.121  0.00  0.00    +0.000 C 
ENDBRANCH   7   9
BRANCH   1  17
ATOM     16  O   UNL     1       2.214   1.836  17.097  0.00  0.00    +0.000 OA
ATOM     17  C   UNL     1       2.880   1.760  18.123  0.00  0.00    +0.000 C 
BRANCH  17  18
ATOM     18  O   UNL     1       3.876   0.853  18.268  0.00  0.00    +0.000 OA
ATOM     19  H   UNL     1       3.652   0.202  18.959  0.00  0.00    +0.000 HD
ENDBRANCH  17  18
ENDBRANCH   1  17
TORSDOF 3
ENDMDL
MODEL 7
REMARK VINA RESULT:      -6.8      2.189      3.069
REMARK  Name = 
REMARK  3 active torsions:
REMARK  status: ('A' for Active; 'I' for Inactive)
REMARK    1  A    between atoms: C_2  and  O_3
REMARK    2  A    between atoms: C_2  and  C_4
REMARK    3  A    between atoms: C_10  and  C_12
REMARK                            x       y       z     vdW  Elec       q    Type
REMARK                         _______ _______ _______ _____ _____    ______ ____
ROOT
ATOM      1  C   UNL     1       5.884   5.188  16.649  0.00  0.00    +0.000 C 
ATOM      2  C   UNL     1       7.405   5.447  16.753  0.00  0.00    +0.000 C 
ATOM      3  C   UNL     1       7.805   6.303  17.953  0.00  0.00    +0.000 C 
ATOM      4  C   UNL     1       7.178   5.783  19.238  0.00  0.00    +0.000 C 
ATOM      5  C   UNL     1       5.669   5.642  19.061  0.00  0.00    +0.000 C 
ATOM      6  N   UNL     1       5.371   4.715  17.966  0.00  0.00    +0.000 N 
ATOM      7  C   UNL     1       4.233   3.905  17.980  0.00  0.00    +0.000 C 
ATOM      8  O   UNL     1       3.948   3.217  17.000  0.00  0.00    +0.000 OA
ENDROOT
BRANCH   7   9
ATOM      9  C   UNL     1       3.382   3.815  19.258  0.00  0.00    +0.000 C 
ATOM     10  C   UNL     1       1.893   3.968  18.891  0.00  0.00    +0.000 C 
ATOM     11  C   UNL     1       0.976   4.239  20.081  0.00  0.00    +0.000 C 
ATOM     12  C   UNL     1       0.738   3.063  20.979  0.00  0.00    +0.000 C 
ATOM     13  C   UNL     1       1.676   2.310  21.566  0.00  0.00    +0.000 C 
ATOM     14  C   UNL     1       3.157   2.486  21.440  0.00  0.00    +0.000 C 
ATOM     15  C   UNL     1       3.674   2.498  20.000  0.00  0.00    +0.000 C 
ENDBRANCH   7   9
BRANCH   1  17
ATOM     16  O   UNL     1       5.260   4.788  14.322  0.00  0.00    +0.000 OA
ATOM     17  C   UNL     1       5.716   4.335  15.366  0.00  0.00    +0.000 C 
BRANCH  17  18
ATOM     18  O   UNL     1       6.292   3.111  15.428  0.00  0.00    +0.000 OA
ATOM     19  H   UNL     1       6.494   2.778  14.533  0.00  0.00    +0.000 HD
ENDBRANCH  17  18
ENDBRANCH   1  17
TORSDOF 3
ENDMDL
MODEL 8
REMARK VINA RESULT:      -6.8      2.510      5.882
REMARK  Name = 
REMARK  3 active torsions:
REMARK  status: ('A' for Active; 'I' for Inactive)
REMARK    1  A    between atoms: C_2  and  O_3
REMARK    2  A    between atoms: C_2  and  C_4
REMARK    3  A    between atoms: C_10  and  C_12
REMARK                            x       y       z     vdW  Elec       q    Type
REMARK                         _______ _______ _______ _____ _____    ______ ____
ROOT
ATOM      1  C   UNL     1       2.431   4.651  20.729  0.00  0.00    +0.000 C 
ATOM      2  C   UNL     1       1.302   5.706  20.777  0.00  0.00    +0.000 C 
ATOM      3  C   UNL     1       1.755   7.113  20.393  0.00  0.00    +0.000 C 
ATOM      4  C   UNL     1       2.537   7.107  19.088  0.00  0.00    +0.000 C 
ATOM      5  C   UNL     1       3.677   6.096  19.170  0.00  0.00    +0.000 C 
ATOM      6  N   UNL     1       3.149   4.754  19.427  0.00  0.00    +0.000 N 
ATOM      7  C   UNL     1       3.777   3.611  18.926  0.00  0.00    +0.000 C 
ATOM      8  O   UNL     1       3.377   2.492  19.247  0.00  0.00    +0.000 OA
ENDROOT
BRANCH   7   9
ATOM      9  C   UNL     1       4.919   3.758  17.908  0.00  0.00    +0.000 C 
ATOM     10  C   UNL     1       4.347   4.256  16.567  0.00  0.00    +0.000 C 
ATOM     11  C   UNL     1       5.303   4.119  15.384  0.00  0.00    +0.000 C 
ATOM     12  C   UNL     1       6.442   5.093  15.374  0.00  0.00    +0.000 C 
ATOM     13  C   UNL     1       7.316   5.302  16.367  0.00  0.00    +0.000 C 
ATOM     14  C   UNL     1       7.330   4.609  17.693  0.00  0.00    +0.000 C 
ATOM     15  C   UNL     1       6.012   4.691  18.464  0.00  0.00    +0.000 C 
ENDBRANCH   7   9
BRANCH   1  17
ATOM     16  O   UNL     1       2.083   2.725  22.189  0.00  0.00    +0.000 OA
ATOM     17  C   UNL     1       1.756   3.330  21.174  0.00  0.00    +0.000 C 
BRANCH  17  18
ATOM     18  O   UNL     1       0.649   3.001  20.466  0.00  0.00    +0.000 OA
ATOM     19  H   UNL     1      -0.076   2.735  21.063  0.00  0.00    +0.000 HD
ENDBRANCH  17  18
ENDBRANCH   1  17
TORSDOF 3
ENDMDL
MODEL 9
REMARK VINA RESULT:      -6.8      2.448      6.019
REMARK  Name = 
REMARK  3 active torsions:
REMARK  status: ('A' for Active; 'I' for Inactive)
REMARK    1  A    between atoms: C_2  and  O_3
REMARK    2  A    between atoms: C_2  and  C_4
REMARK    3  A    between atoms: C_10  and  C_12
REMARK                            x       y       z     vdW  Elec       q    Type
REMARK                         _______ _______ _______ _____ _____    ______ ____
ROOT
ATOM      1  C   UNL     1       2.295   5.202  20.763  0.00  0.00    +0.000 C 
ATOM      2  C   UNL     1       1.089   6.143  20.986  0.00  0.00    +0.000 C 
ATOM      3  C   UNL     1       1.392   7.613  20.704  0.00  0.00    +0.000 C 
ATOM      4  C   UNL     1       2.071   7.790  19.354  0.00  0.00    +0.000 C 
ATOM      5  C   UNL     1       3.294   6.883  19.264  0.00  0.00    +0.000 C 
ATOM      6  N   UNL     1       2.902   5.481  19.431  0.00  0.00    +0.000 N 
ATOM      7  C   UNL     1       3.583   4.447  18.784  0.00  0.00    +0.000 C 
ATOM      8  O   UNL     1       3.304   3.274  19.026  0.00  0.00    +0.000 OA
ENDROOT
BRANCH   7   9
ATOM      9  C   UNL     1       4.628   4.784  17.708  0.00  0.00    +0.000 C 
ATOM     10  C   UNL     1       6.041   4.630  18.303  0.00  0.00    +0.000 C 
ATOM     11  C   UNL     1       7.151   5.255  17.461  0.00  0.00    +0.000 C 
ATOM     12  C   UNL     1       7.490   4.512  16.206  0.00  0.00    +0.000 C 
ATOM     13  C   UNL     1       6.633   4.149  15.242  0.00  0.00    +0.000 C 
ATOM     14  C   UNL     1       5.160   4.409  15.227  0.00  0.00    +0.000 C 
ATOM     15  C   UNL     1       4.414   3.903  16.463  0.00  0.00    +0.000 C 
ENDBRANCH   7   9
BRANCH   1  17
ATOM     16  O   UNL     1       2.206   3.144  22.073  0.00  0.00    +0.000 OA
ATOM     17  C   UNL     1       1.770   3.791  21.129  0.00  0.00    +0.000 C 
BRANCH  17  18
ATOM     18  O   UNL     1       0.660   3.415  20.449  0.00  0.00    +0.000 OA
ATOM     19  H   UNL     1       0.826   2.599  19.941  0.00  0.00    +0.000 HD
ENDBRANCH  17  18
ENDBRANCH   1  17
TORSDOF 3
ENDMDL
