MODEL 1
REMARK VINA RESULT:      -7.5      0.000      0.000
REMARK  Name = 
REMARK  12 active torsions:
REMARK  status: ('A' for Active; 'I' for Inactive)
REMARK    1  A    between atoms: C_1  and  O_2
REMARK    2  A    between atoms: O_2  and  C_3
REMARK    3  A    between atoms: C_9  and  C_10
REMARK    4  A    between atoms: C_10  and  C_11
REMARK    5  A    between atoms: C_10  and  C_12
REMARK    6  A    between atoms: C_10  and  C_13
REMARK    7  A    between atoms: C_13  and  C_14
REMARK    8  A    between atoms: C_14  and  O_15
REMARK    9  A    between atoms: C_14  and  C_16
REMARK   10  A    between atoms: C_14  and  C_28
REMARK   11  A    between atoms: C_16  and  C_17
REMARK   12  A    between atoms: C_20  and  C_21
REMARK                            x       y       z     vdW  Elec       q    Type
REMARK                         _______ _______ _______ _____ _____    ______ ____
ROOT
ATOM      1  C   UNL     1       3.016   4.557  20.010  0.00  0.00    +0.000 C 
ENDROOT
BRANCH   1   2
ATOM      2  C   UNL     1       2.260   3.901  21.234  0.00  0.00    +0.000 C 
ATOM      3  F   UNL     1       0.917   3.834  21.040  0.00  0.00    +0.000 F 
ATOM      4  F   UNL     1       2.667   2.627  21.456  0.00  0.00    +0.000 F 
ATOM      5  F   UNL     1       2.429   4.585  22.392  0.00  0.00    +0.000 F 
ENDBRANCH   1   2
BRANCH   1   6
ATOM      6  O   UNL     1       3.972   5.549  20.441  0.00  0.00    +0.000 OA
ATOM      7  H   UNL     1       4.512   5.184  21.156  0.00  0.00    +0.000 HD
ENDBRANCH   1   6
BRANCH   1   8
ATOM      8  C   UNL     1       3.786   3.381  19.293  0.00  0.00    +0.000 C 
BRANCH   8   9
ATOM      9  C   UNL     1       3.894   3.154  17.732  0.00  0.00    +0.000 C 
ATOM     10  C   UNL     1       2.498   3.446  17.127  0.00  0.00    +0.000 C 
ATOM     11  C   UNL     1       4.176   1.626  17.560  0.00  0.00    +0.000 C 
BRANCH   9  18
ATOM     12  C   UNL     1       6.155   4.482  17.447  0.00  0.00    +0.000 A 
ATOM     13  C   UNL     1       7.135   5.050  16.611  0.00  0.00    +0.000 A 
ATOM     14  C   UNL     1       7.032   4.962  15.225  0.00  0.00    +0.000 A 
ATOM     15  C   UNL     1       5.956   4.291  14.676  0.00  0.00    +0.000 A 
ATOM     16  F   UNL     1       5.862   4.166  13.346  0.00  0.00    +0.000 F 
ATOM     17  C   UNL     1       4.980   3.727  15.490  0.00  0.00    +0.000 A 
ATOM     18  C   UNL     1       5.018   3.836  16.898  0.00  0.00    +0.000 A 
BRANCH  12  20
ATOM     19  C   UNL     1       7.128   5.469  19.400  0.00  0.00    +0.000 C 
ATOM     20  O   UNL     1       6.248   4.511  18.812  0.00  0.00    +0.000 OA
ENDBRANCH  12  20
ENDBRANCH   9  18
ENDBRANCH   8   9
ENDBRANCH   1   8
BRANCH   1  21
ATOM     21  C   UNL     1       1.970   5.310  19.117  0.00  0.00    +0.000 C 
BRANCH  21  22
ATOM     22  C   UNL     1       2.081   6.834  18.907  0.00  0.00    +0.000 A 
ATOM     23  C   UNL     1       2.761   7.354  17.795  0.00  0.00    +0.000 A 
ATOM     24  C   UNL     1       2.775   8.715  17.510  0.00  0.00    +0.000 A 
ATOM     25  C   UNL     1       2.101   9.621  18.325  0.00  0.00    +0.000 A 
ATOM     26  C   UNL     1       2.092  11.066  17.900  0.00  0.00    +0.000 C 
ATOM     27  C   UNL     1       1.459   9.156  19.497  0.00  0.00    +0.000 A 
ATOM     28  C   UNL     1       0.824  10.059  20.385  0.00  0.00    +0.000 A 
ATOM     29  C   UNL     1       0.178   9.619  21.541  0.00  0.00    +0.000 A 
ATOM     30  C   UNL     1       0.154   8.270  21.835  0.00  0.00    +0.000 A 
ATOM     31  C   UNL     1       0.773   7.353  20.977  0.00  0.00    +0.000 A 
ATOM     32  C   UNL     1       1.442   7.757  19.797  0.00  0.00    +0.000 A 
ENDBRANCH  21  22
ENDBRANCH   1  21
TORSDOF 8
ENDMDL
MODEL 2
REMARK VINA RESULT:      -7.4      1.990      2.696
REMARK  Name = 
REMARK  12 active torsions:
REMARK  status: ('A' for Active; 'I' for Inactive)
REMARK    1  A    between atoms: C_1  and  O_2
REMARK    2  A    between atoms: O_2  and  C_3
REMARK    3  A    between atoms: C_9  and  C_10
REMARK    4  A    between atoms: C_10  and  C_11
REMARK    5  A    between atoms: C_10  and  C_12
REMARK    6  A    between atoms: C_10  and  C_13
REMARK    7  A    between atoms: C_13  and  C_14
REMARK    8  A    between atoms: C_14  and  O_15
REMARK    9  A    between atoms: C_14  and  C_16
REMARK   10  A    between atoms: C_14  and  C_28
REMARK   11  A    between atoms: C_16  and  C_17
REMARK   12  A    between atoms: C_20  and  C_21
REMARK                            x       y       z     vdW  Elec       q    Type
REMARK                         _______ _______ _______ _____ _____    ______ ____
ROOT
ATOM      1  C   UNL     1       2.416   5.810  19.245  0.00  0.00    +0.000 C 
ENDROOT
BRANCH   1   2
ATOM      2  C   UNL     1       1.807   4.846  20.341  0.00  0.00    +0.000 C 
ATOM      3  F   UNL     1       0.561   5.222  20.730  0.00  0.00    +0.000 F 
ATOM      4  F   UNL     1       1.687   3.575  19.885  0.00  0.00    +0.000 F 
ATOM      5  F   UNL     1       2.547   4.798  21.476  0.00  0.00    +0.000 F 
ENDBRANCH   1   2
BRANCH   1   6
ATOM      6  O   UNL     1       3.477   6.628  19.782  0.00  0.00    +0.000 OA
ATOM      7  H   UNL     1       3.220   7.560  19.731  0.00  0.00    +0.000 HD
ENDBRANCH   1   6
BRANCH   1   8
ATOM      8  C   UNL     1       3.009   4.874  18.123  0.00  0.00    +0.000 C 
BRANCH   8   9
ATOM      9  C   UNL     1       4.486   4.313  18.064  0.00  0.00    +0.000 C 
ATOM     10  C   UNL     1       4.575   3.380  16.830  0.00  0.00    +0.000 C 
ATOM     11  C   UNL     1       4.638   3.425  19.341  0.00  0.00    +0.000 C 
BRANCH   9  18
ATOM     12  C   UNL     1       5.855   6.457  17.365  0.00  0.00    +0.000 A 
ATOM     13  C   UNL     1       6.991   7.276  17.510  0.00  0.00    +0.000 A 
ATOM     14  C   UNL     1       7.985   6.962  18.432  0.00  0.00    +0.000 A 
ATOM     15  C   UNL     1       7.836   5.838  19.222  0.00  0.00    +0.000 A 
ATOM     16  F   UNL     1       8.766   5.543  20.138  0.00  0.00    +0.000 F 
ATOM     17  C   UNL     1       6.721   5.019  19.087  0.00  0.00    +0.000 A 
ATOM     18  C   UNL     1       5.712   5.271  18.129  0.00  0.00    +0.000 A 
BRANCH  12  20
ATOM     19  C   UNL     1       5.098   6.653  15.101  0.00  0.00    +0.000 C 
ATOM     20  O   UNL     1       4.838   6.759  16.500  0.00  0.00    +0.000 OA
ENDBRANCH  12  20
ENDBRANCH   9  18
ENDBRANCH   8   9
ENDBRANCH   1   8
BRANCH   1  21
ATOM     21  C   UNL     1       1.295   6.797  18.766  0.00  0.00    +0.000 C 
BRANCH  21  22
ATOM     22  C   UNL     1       1.489   8.321  18.907  0.00  0.00    +0.000 A 
ATOM     23  C   UNL     1       2.124   9.058  17.896  0.00  0.00    +0.000 A 
ATOM     24  C   UNL     1       2.205  10.445  17.935  0.00  0.00    +0.000 A 
ATOM     25  C   UNL     1       1.647  11.162  18.990  0.00  0.00    +0.000 A 
ATOM     26  C   UNL     1       1.701  12.666  18.915  0.00  0.00    +0.000 C 
ATOM     27  C   UNL     1       1.057  10.464  20.069  0.00  0.00    +0.000 A 
ATOM     28  C   UNL     1       0.541  11.159  21.191  0.00  0.00    +0.000 A 
ATOM     29  C   UNL     1      -0.052  10.488  22.262  0.00  0.00    +0.000 A 
ATOM     30  C   UNL     1      -0.142   9.110  22.234  0.00  0.00    +0.000 A 
ATOM     31  C   UNL     1       0.358   8.395  21.140  0.00  0.00    +0.000 A 
ATOM     32  C   UNL     1       0.971   9.035  20.037  0.00  0.00    +0.000 A 
ENDBRANCH  21  22
ENDBRANCH   1  21
TORSDOF 8
ENDMDL
MODEL 3
REMARK VINA RESULT:      -7.3      1.168      1.613
REMARK  Name = 
REMARK  12 active torsions:
REMARK  status: ('A' for Active; 'I' for Inactive)
REMARK    1  A    between atoms: C_1  and  O_2
REMARK    2  A    between atoms: O_2  and  C_3
REMARK    3  A    between atoms: C_9  and  C_10
REMARK    4  A    between atoms: C_10  and  C_11
REMARK    5  A    between atoms: C_10  and  C_12
REMARK    6  A    between atoms: C_10  and  C_13
REMARK    7  A    between atoms: C_13  and  C_14
REMARK    8  A    between atoms: C_14  and  O_15
REMARK    9  A    between atoms: C_14  and  C_16
REMARK   10  A    between atoms: C_14  and  C_28
REMARK   11  A    between atoms: C_16  and  C_17
REMARK   12  A    between atoms: C_20  and  C_21
REMARK                            x       y       z     vdW  Elec       q    Type
REMARK                         _______ _______ _______ _____ _____    ______ ____
ROOT
ATOM      1  C   UNL     1       2.779   5.436  19.929  0.00  0.00    +0.000 C 
ENDROOT
BRANCH   1   2
ATOM      2  C   UNL     1       1.425   4.789  20.426  0.00  0.00    +0.000 C 
ATOM      3  F   UNL     1       1.609   3.928  21.461  0.00  0.00    +0.000 F 
ATOM      4  F   UNL     1       0.552   5.725  20.874  0.00  0.00    +0.000 F 
ATOM      5  F   UNL     1       0.791   4.076  19.464  0.00  0.00    +0.000 F 
ENDBRANCH   1   2
BRANCH   1   6
ATOM      6  O   UNL     1       3.929   4.763  20.484  0.00  0.00    +0.000 OA
ATOM      7  H   UNL     1       4.734   5.224  20.208  0.00  0.00    +0.000 HD
ENDBRANCH   1   6
BRANCH   1   8
ATOM      8  C   UNL     1       2.793   5.266  18.361  0.00  0.00    +0.000 C 
BRANCH   8   9
ATOM      9  C   UNL     1       3.509   4.108  17.557  0.00  0.00    +0.000 C 
ATOM     10  C   UNL     1       2.440   3.446  16.652  0.00  0.00    +0.000 C 
ATOM     11  C   UNL     1       3.931   3.060  18.637  0.00  0.00    +0.000 C 
BRANCH   9  18
ATOM     12  C   UNL     1       6.033   4.843  17.339  0.00  0.00    +0.000 A 
ATOM     13  C   UNL     1       7.181   5.032  16.546  0.00  0.00    +0.000 A 
ATOM     14  C   UNL     1       7.169   4.730  15.187  0.00  0.00    +0.000 A 
ATOM     15  C   UNL     1       6.014   4.223  14.624  0.00  0.00    +0.000 A 
ATOM     16  F   UNL     1       5.998   3.895  13.327  0.00  0.00    +0.000 F 
ATOM     17  C   UNL     1       4.872   4.035  15.395  0.00  0.00    +0.000 A 
ATOM     18  C   UNL     1       4.823   4.374  16.766  0.00  0.00    +0.000 A 
BRANCH  12  20
ATOM     19  C   UNL     1       7.193   5.657  19.269  0.00  0.00    +0.000 C 
ATOM     20  O   UNL     1       6.022   5.088  18.686  0.00  0.00    +0.000 OA
ENDBRANCH  12  20
ENDBRANCH   9  18
ENDBRANCH   8   9
ENDBRANCH   1   8
BRANCH   1  21
ATOM     21  C   UNL     1       2.845   6.918  20.438  0.00  0.00    +0.000 C 
BRANCH  21  22
ATOM     22  C   UNL     1       1.953   8.002  19.797  0.00  0.00    +0.000 A 
ATOM     23  C   UNL     1       1.914   8.162  18.403  0.00  0.00    +0.000 A 
ATOM     24  C   UNL     1       1.032   9.043  17.787  0.00  0.00    +0.000 A 
ATOM     25  C   UNL     1       0.141   9.802  18.541  0.00  0.00    +0.000 A 
ATOM     26  C   UNL     1      -0.840  10.668  17.794  0.00  0.00    +0.000 C 
ATOM     27  C   UNL     1       0.188   9.730  19.953  0.00  0.00    +0.000 A 
ATOM     28  C   UNL     1      -0.657  10.540  20.751  0.00  0.00    +0.000 A 
ATOM     29  C   UNL     1      -0.631  10.477  22.145  0.00  0.00    +0.000 A 
ATOM     30  C   UNL     1       0.238   9.603  22.770  0.00  0.00    +0.000 A 
ATOM     31  C   UNL     1       1.084   8.790  22.009  0.00  0.00    +0.000 A 
ATOM     32  C   UNL     1       1.094   8.826  20.594  0.00  0.00    +0.000 A 
ENDBRANCH  21  22
ENDBRANCH   1  21
TORSDOF 8
ENDMDL
MODEL 4
REMARK VINA RESULT:      -7.2      3.724      7.718
REMARK  Name = 
REMARK  12 active torsions:
REMARK  status: ('A' for Active; 'I' for Inactive)
REMARK    1  A    between atoms: C_1  and  O_2
REMARK    2  A    between atoms: O_2  and  C_3
REMARK    3  A    between atoms: C_9  and  C_10
REMARK    4  A    between atoms: C_10  and  C_11
REMARK    5  A    between atoms: C_10  and  C_12
REMARK    6  A    between atoms: C_10  and  C_13
REMARK    7  A    between atoms: C_13  and  C_14
REMARK    8  A    between atoms: C_14  and  O_15
REMARK    9  A    between atoms: C_14  and  C_16
REMARK   10  A    between atoms: C_14  and  C_28
REMARK   11  A    between atoms: C_16  and  C_17
REMARK   12  A    between atoms: C_20  and  C_21
REMARK                            x       y       z     vdW  Elec       q    Type
REMARK                         _______ _______ _______ _____ _____    ______ ____
ROOT
ATOM      1  C   UNL     1       0.585   8.841  20.963  0.00  0.00    +0.000 C 
ENDROOT
BRANCH   1   2
ATOM      2  C   UNL     1       0.090   9.319  22.386  0.00  0.00    +0.000 C 
ATOM      3  F   UNL     1      -0.319  10.614  22.387  0.00  0.00    +0.000 F 
ATOM      4  F   UNL     1      -0.971   8.595  22.822  0.00  0.00    +0.000 F 
ATOM      5  F   UNL     1       1.051   9.237  23.339  0.00  0.00    +0.000 F 
ENDBRANCH   1   2
BRANCH   1   6
ATOM      6  O   UNL     1      -0.478   8.219  20.208  0.00  0.00    +0.000 OA
ATOM      7  H   UNL     1      -0.436   8.519  19.290  0.00  0.00    +0.000 HD
ENDBRANCH   1   6
BRANCH   1   8
ATOM      8  C   UNL     1       1.057  10.141  20.206  0.00  0.00    +0.000 C 
BRANCH   8   9
ATOM      9  C   UNL     1       0.553  10.629  18.790  0.00  0.00    +0.000 C 
ATOM     10  C   UNL     1       1.276   9.770  17.723  0.00  0.00    +0.000 C 
ATOM     11  C   UNL     1       1.077  12.096  18.652  0.00  0.00    +0.000 C 
BRANCH   9  18
ATOM     12  C   UNL     1      -1.874  11.592  19.166  0.00  0.00    +0.000 A 
ATOM     13  C   UNL     1      -3.231  11.651  18.794  0.00  0.00    +0.000 A 
ATOM     14  C   UNL     1      -3.710  10.908  17.719  0.00  0.00    +0.000 A 
ATOM     15  C   UNL     1      -2.829  10.120  17.004  0.00  0.00    +0.000 A 
ATOM     16  F   UNL     1      -3.268   9.429  15.945  0.00  0.00    +0.000 F 
ATOM     17  C   UNL     1      -1.487  10.051  17.361  0.00  0.00    +0.000 A 
ATOM     18  C   UNL     1      -0.967  10.747  18.476  0.00  0.00    +0.000 A 
BRANCH  12  20
ATOM     19  C   UNL     1      -1.837  13.677  20.342  0.00  0.00    +0.000 C 
ATOM     20  O   UNL     1      -1.360  12.341  20.190  0.00  0.00    +0.000 OA
ENDBRANCH  12  20
ENDBRANCH   9  18
ENDBRANCH   8   9
ENDBRANCH   1   8
BRANCH   1  21
ATOM     21  C   UNL     1       1.689   7.744  21.157  0.00  0.00    +0.000 C 
BRANCH  21  22
ATOM     22  C   UNL     1       2.200   6.932  19.948  0.00  0.00    +0.000 A 
ATOM     23  C   UNL     1       2.929   7.557  18.925  0.00  0.00    +0.000 A 
ATOM     24  C   UNL     1       3.508   6.836  17.887  0.00  0.00    +0.000 A 
ATOM     25  C   UNL     1       3.387   5.450  17.828  0.00  0.00    +0.000 A 
ATOM     26  C   UNL     1       4.115   4.734  16.720  0.00  0.00    +0.000 C 
ATOM     27  C   UNL     1       2.603   4.779  18.796  0.00  0.00    +0.000 A 
ATOM     28  C   UNL     1       2.402   3.378  18.726  0.00  0.00    +0.000 A 
ATOM     29  C   UNL     1       1.639   2.698  19.676  0.00  0.00    +0.000 A 
ATOM     30  C   UNL     1       1.061   3.402  20.714  0.00  0.00    +0.000 A 
ATOM     31  C   UNL     1       1.241   4.786  20.811  0.00  0.00    +0.000 A 
ATOM     32  C   UNL     1       2.003   5.516  19.867  0.00  0.00    +0.000 A 
ENDBRANCH  21  22
ENDBRANCH   1  21
TORSDOF 8
ENDMDL
MODEL 5
REMARK VINA RESULT:      -7.2      2.007      2.663
REMARK  Name = 
REMARK  12 active torsions:
REMARK  status: ('A' for Active; 'I' for Inactive)
REMARK    1  A    between atoms: C_1  and  O_2
REMARK    2  A    between atoms: O_2  and  C_3
REMARK    3  A    between atoms: C_9  and  C_10
REMARK    4  A    between atoms: C_10  and  C_11
REMARK    5  A    between atoms: C_10  and  C_12
REMARK    6  A    between atoms: C_10  and  C_13
REMARK    7  A    between atoms: C_13  and  C_14
REMARK    8  A    between atoms: C_14  and  O_15
REMARK    9  A    between atoms: C_14  and  C_16
REMARK   10  A    between atoms: C_14  and  C_28
REMARK   11  A    between atoms: C_16  and  C_17
REMARK   12  A    between atoms: C_20  and  C_21
REMARK                            x       y       z     vdW  Elec       q    Type
REMARK                         _______ _______ _______ _____ _____    ______ ____
ROOT
ATOM      1  C   UNL     1       2.320   4.583  20.063  0.00  0.00    +0.000 C 
ENDROOT
BRANCH   1   2
ATOM      2  C   UNL     1       1.162   3.538  19.803  0.00  0.00    +0.000 C 
ATOM      3  F   UNL     1       1.051   3.201  18.492  0.00  0.00    +0.000 F 
ATOM      4  F   UNL     1       1.372   2.375  20.468  0.00  0.00    +0.000 F 
ATOM      5  F   UNL     1      -0.060   3.995  20.169  0.00  0.00    +0.000 F 
ENDBRANCH   1   2
BRANCH   1   6
ATOM      6  O   UNL     1       3.339   4.047  20.934  0.00  0.00    +0.000 OA
ATOM      7  H   UNL     1       3.485   3.115  20.720  0.00  0.00    +0.000 HD
ENDBRANCH   1   6
BRANCH   1   8
ATOM      8  C   UNL     1       2.958   4.886  18.653  0.00  0.00    +0.000 C 
BRANCH   8   9
ATOM      9  C   UNL     1       4.349   4.350  18.127  0.00  0.00    +0.000 C 
ATOM     10  C   UNL     1       4.110   3.757  16.715  0.00  0.00    +0.000 C 
ATOM     11  C   UNL     1       4.720   3.167  19.080  0.00  0.00    +0.000 C 
BRANCH   9  18
ATOM     12  C   UNL     1       5.806   6.399  17.333  0.00  0.00    +0.000 A 
ATOM     13  C   UNL     1       6.979   7.172  17.438  0.00  0.00    +0.000 A 
ATOM     14  C   UNL     1       7.966   6.851  18.366  0.00  0.00    +0.000 A 
ATOM     15  C   UNL     1       7.774   5.767  19.201  0.00  0.00    +0.000 A 
ATOM     16  F   UNL     1       8.697   5.468  20.122  0.00  0.00    +0.000 F 
ATOM     17  C   UNL     1       6.621   4.994  19.106  0.00  0.00    +0.000 A 
ATOM     18  C   UNL     1       5.617   5.253  18.146  0.00  0.00    +0.000 A 
BRANCH  12  20
ATOM     19  C   UNL     1       5.120   6.819  15.078  0.00  0.00    +0.000 C 
ATOM     20  O   UNL     1       4.797   6.712  16.463  0.00  0.00    +0.000 OA
ENDBRANCH  12  20
ENDBRANCH   9  18
ENDBRANCH   8   9
ENDBRANCH   1   8
BRANCH   1  21
ATOM     21  C   UNL     1       1.716   5.827  20.802  0.00  0.00    +0.000 C 
BRANCH  21  22
ATOM     22  C   UNL     1       1.747   7.219  20.136  0.00  0.00    +0.000 A 
ATOM     23  C   UNL     1       2.350   7.397  18.881  0.00  0.00    +0.000 A 
ATOM     24  C   UNL     1       2.288   8.607  18.199  0.00  0.00    +0.000 A 
ATOM     25  C   UNL     1       1.612   9.696  18.741  0.00  0.00    +0.000 A 
ATOM     26  C   UNL     1       1.517  10.944  17.902  0.00  0.00    +0.000 C 
ATOM     27  C   UNL     1       1.048   9.591  20.034  0.00  0.00    +0.000 A 
ATOM     28  C   UNL     1       0.414  10.702  20.644  0.00  0.00    +0.000 A 
ATOM     29  C   UNL     1      -0.155  10.615  21.916  0.00  0.00    +0.000 A 
ATOM     30  C   UNL     1      -0.103   9.418  22.603  0.00  0.00    +0.000 A 
ATOM     31  C   UNL     1       0.515   8.303  22.027  0.00  0.00    +0.000 A 
ATOM     32  C   UNL     1       1.110   8.349  20.743  0.00  0.00    +0.000 A 
ENDBRANCH  21  22
ENDBRANCH   1  21
TORSDOF 8
ENDMDL
MODEL 6
REMARK VINA RESULT:      -7.2      0.771      1.158
REMARK  Name = 
REMARK  12 active torsions:
REMARK  status: ('A' for Active; 'I' for Inactive)
REMARK    1  A    between atoms: C_1  and  O_2
REMARK    2  A    between atoms: O_2  and  C_3
REMARK    3  A    between atoms: C_9  and  C_10
REMARK    4  A    between atoms: C_10  and  C_11
REMARK    5  A    between atoms: C_10  and  C_12
REMARK    6  A    between atoms: C_10  and  C_13
REMARK    7  A    between atoms: C_13  and  C_14
REMARK    8  A    between atoms: C_14  and  O_15
REMARK    9  A    between atoms: C_14  and  C_16
REMARK   10  A    between atoms: C_14  and  C_28
REMARK   11  A    between atoms: C_16  and  C_17
REMARK   12  A    between atoms: C_20  and  C_21
REMARK                            x       y       z     vdW  Elec       q    Type
REMARK                         _______ _______ _______ _____ _____    ______ ____
ROOT
ATOM      1  C   UNL     1       2.457   4.723  20.253  0.00  0.00    +0.000 C 
ENDROOT
BRANCH   1   2
ATOM      2  C   UNL     1       2.017   3.475  21.119  0.00  0.00    +0.000 C 
ATOM      3  F   UNL     1       2.616   2.325  20.716  0.00  0.00    +0.000 F 
ATOM      4  F   UNL     1       2.343   3.626  22.426  0.00  0.00    +0.000 F 
ATOM      5  F   UNL     1       0.684   3.232  21.063  0.00  0.00    +0.000 F 
ENDBRANCH   1   2
BRANCH   1   6
ATOM      6  O   UNL     1       3.746   5.229  20.662  0.00  0.00    +0.000 OA
ATOM      7  H   UNL     1       4.437   4.615  20.376  0.00  0.00    +0.000 HD
ENDBRANCH   1   6
BRANCH   1   8
ATOM      8  C   UNL     1       2.557   4.209  18.766  0.00  0.00    +0.000 C 
BRANCH   8   9
ATOM      9  C   UNL     1       3.782   3.441  18.127  0.00  0.00    +0.000 C 
ATOM     10  C   UNL     1       3.231   2.134  17.503  0.00  0.00    +0.000 C 
ATOM     11  C   UNL     1       4.691   3.044  19.334  0.00  0.00    +0.000 C 
BRANCH   9  18
ATOM     12  C   UNL     1       5.750   5.094  17.536  0.00  0.00    +0.000 A 
ATOM     13  C   UNL     1       6.605   5.675  16.579  0.00  0.00    +0.000 A 
ATOM     14  C   UNL     1       6.521   5.322  15.236  0.00  0.00    +0.000 A 
ATOM     15  C   UNL     1       5.593   4.373  14.850  0.00  0.00    +0.000 A 
ATOM     16  F   UNL     1       5.525   3.997  13.567  0.00  0.00    +0.000 F 
ATOM     17  C   UNL     1       4.741   3.793  15.783  0.00  0.00    +0.000 A 
ATOM     18  C   UNL     1       4.757   4.159  17.148  0.00  0.00    +0.000 A 
BRANCH  12  20
ATOM     19  C   UNL     1       7.124   5.674  19.409  0.00  0.00    +0.000 C 
ATOM     20  O   UNL     1       5.835   5.386  18.870  0.00  0.00    +0.000 OA
ENDBRANCH  12  20
ENDBRANCH   9  18
ENDBRANCH   8   9
ENDBRANCH   1   8
BRANCH   1  21
ATOM     21  C   UNL     1       1.431   5.885  20.490  0.00  0.00    +0.000 C 
BRANCH  21  22
ATOM     22  C   UNL     1       1.680   7.279  19.876  0.00  0.00    +0.000 A 
ATOM     23  C   UNL     1       2.383   7.413  18.669  0.00  0.00    +0.000 A 
ATOM     24  C   UNL     1       2.518   8.640  18.027  0.00  0.00    +0.000 A 
ATOM     25  C   UNL     1       1.949   9.791  18.564  0.00  0.00    +0.000 A 
ATOM     26  C   UNL     1       2.067  11.063  17.766  0.00  0.00    +0.000 C 
ATOM     27  C   UNL     1       1.292   9.723  19.815  0.00  0.00    +0.000 A 
ATOM     28  C   UNL     1       0.762  10.888  20.423  0.00  0.00    +0.000 A 
ATOM     29  C   UNL     1       0.103  10.840  21.653  0.00  0.00    +0.000 A 
ATOM     30  C   UNL     1      -0.041   9.627  22.299  0.00  0.00    +0.000 A 
ATOM     31  C   UNL     1       0.471   8.459  21.724  0.00  0.00    +0.000 A 
ATOM     32  C   UNL     1       1.150   8.464  20.482  0.00  0.00    +0.000 A 
ENDBRANCH  21  22
ENDBRANCH   1  21
TORSDOF 8
ENDMDL
MODEL 7
REMARK VINA RESULT:      -7.1      1.816      2.405
REMARK  Name = 
REMARK  12 active torsions:
REMARK  status: ('A' for Active; 'I' for Inactive)
REMARK    1  A    between atoms: C_1  and  O_2
REMARK    2  A    between atoms: O_2  and  C_3
REMARK    3  A    between atoms: C_9  and  C_10
REMARK    4  A    between atoms: C_10  and  C_11
REMARK    5  A    between atoms: C_10  and  C_12
REMARK    6  A    between atoms: C_10  and  C_13
REMARK    7  A    between atoms: C_13  and  C_14
REMARK    8  A    between atoms: C_14  and  O_15
REMARK    9  A    between atoms: C_14  and  C_16
REMARK   10  A    between atoms: C_14  and  C_28
REMARK   11  A    between atoms: C_16  and  C_17
REMARK   12  A    between atoms: C_20  and  C_21
REMARK                            x       y       z     vdW  Elec       q    Type
REMARK                         _______ _______ _______ _____ _____    ______ ____
ROOT
ATOM      1  C   UNL     1       2.307   4.094  20.064  0.00  0.00    +0.000 C 
ENDROOT
BRANCH   1   2
ATOM      2  C   UNL     1       0.876   3.485  20.349  0.00  0.00    +0.000 C 
ATOM      3  F   UNL     1      -0.077   4.442  20.498  0.00  0.00    +0.000 F 
ATOM      4  F   UNL     1       0.451   2.694  19.331  0.00  0.00    +0.000 F 
ATOM      5  F   UNL     1       0.829   2.741  21.481  0.00  0.00    +0.000 F 
ENDBRANCH   1   2
BRANCH   1   6
ATOM      6  O   UNL     1       3.359   3.247  20.575  0.00  0.00    +0.000 OA
ATOM      7  H   UNL     1       3.799   3.693  21.312  0.00  0.00    +0.000 HD
ENDBRANCH   1   6
BRANCH   1   8
ATOM      8  C   UNL     1       2.438   4.184  18.496  0.00  0.00    +0.000 C 
BRANCH   8   9
ATOM      9  C   UNL     1       3.615   3.588  17.624  0.00  0.00    +0.000 C 
ATOM     10  C   UNL     1       3.078   3.421  16.180  0.00  0.00    +0.000 C 
ATOM     11  C   UNL     1       3.870   2.159  18.203  0.00  0.00    +0.000 C 
BRANCH   9  18
ATOM     12  C   UNL     1       5.777   4.549  16.459  0.00  0.00    +0.000 A 
ATOM     13  C   UNL     1       7.038   5.168  16.556  0.00  0.00    +0.000 A 
ATOM     14  C   UNL     1       7.563   5.531  17.793  0.00  0.00    +0.000 A 
ATOM     15  C   UNL     1       6.821   5.289  18.933  0.00  0.00    +0.000 A 
ATOM     16  F   UNL     1       7.297   5.664  20.126  0.00  0.00    +0.000 F 
ATOM     17  C   UNL     1       5.576   4.676  18.852  0.00  0.00    +0.000 A 
ATOM     18  C   UNL     1       5.025   4.246  17.623  0.00  0.00    +0.000 A 
BRANCH  12  20
ATOM     19  C   UNL     1       6.084   3.908  14.172  0.00  0.00    +0.000 C 
ATOM     20  O   UNL     1       5.211   4.220  15.257  0.00  0.00    +0.000 OA
ENDBRANCH  12  20
ENDBRANCH   9  18
ENDBRANCH   8   9
ENDBRANCH   1   8
BRANCH   1  21
ATOM     21  C   UNL     1       2.431   5.460  20.824  0.00  0.00    +0.000 C 
BRANCH  21  22
ATOM     22  C   UNL     1       2.283   6.792  20.058  0.00  0.00    +0.000 A 
ATOM     23  C   UNL     1       2.939   6.989  18.833  0.00  0.00    +0.000 A 
ATOM     24  C   UNL     1       2.730   8.125  18.060  0.00  0.00    +0.000 A 
ATOM     25  C   UNL     1       1.847   9.118  18.476  0.00  0.00    +0.000 A 
ATOM     26  C   UNL     1       1.611  10.275  17.541  0.00  0.00    +0.000 C 
ATOM     27  C   UNL     1       1.214   9.001  19.735  0.00  0.00    +0.000 A 
ATOM     28  C   UNL     1       0.363  10.025  20.220  0.00  0.00    +0.000 A 
ATOM     29  C   UNL     1      -0.276   9.925  21.456  0.00  0.00    +0.000 A 
ATOM     30  C   UNL     1      -0.080   8.800  22.233  0.00  0.00    +0.000 A 
ATOM     31  C   UNL     1       0.754   7.771  21.782  0.00  0.00    +0.000 A 
ATOM     32  C   UNL     1       1.425   7.835  20.538  0.00  0.00    +0.000 A 
ENDBRANCH  21  22
ENDBRANCH   1  21
TORSDOF 8
ENDMDL
MODEL 8
REMARK VINA RESULT:      -7.1      2.220      2.879
REMARK  Name = 
REMARK  12 active torsions:
REMARK  status: ('A' for Active; 'I' for Inactive)
REMARK    1  A    between atoms: C_1  and  O_2
REMARK    2  A    between atoms: O_2  and  C_3
REMARK    3  A    between atoms: C_9  and  C_10
REMARK    4  A    between atoms: C_10  and  C_11
REMARK    5  A    between atoms: C_10  and  C_12
REMARK    6  A    between atoms: C_10  and  C_13
REMARK    7  A    between atoms: C_13  and  C_14
REMARK    8  A    between atoms: C_14  and  O_15
REMARK    9  A    between atoms: C_14  and  C_16
REMARK   10  A    between atoms: C_14  and  C_28
REMARK   11  A    between atoms: C_16  and  C_17
REMARK   12  A    between atoms: C_20  and  C_21
REMARK                            x       y       z     vdW  Elec       q    Type
REMARK                         _______ _______ _______ _____ _____    ______ ____
ROOT
ATOM      1  C   UNL     1       2.722   6.617  18.715  0.00  0.00    +0.000 C 
ENDROOT
BRANCH   1   2
ATOM      2  C   UNL     1       3.742   7.413  17.806  0.00  0.00    +0.000 C 
ATOM      3  F   UNL     1       3.542   8.756  17.854  0.00  0.00    +0.000 F 
ATOM      4  F   UNL     1       5.026   7.215  18.194  0.00  0.00    +0.000 F 
ATOM      5  F   UNL     1       3.661   7.078  16.495  0.00  0.00    +0.000 F 
ENDBRANCH   1   2
BRANCH   1   6
ATOM      6  O   UNL     1       1.510   6.293  18.001  0.00  0.00    +0.000 OA
ATOM      7  H   UNL     1       1.193   5.425  18.285  0.00  0.00    +0.000 HD
ENDBRANCH   1   6
BRANCH   1   8
ATOM      8  C   UNL     1       3.452   5.278  19.118  0.00  0.00    +0.000 C 
BRANCH   8   9
ATOM      9  C   UNL     1       3.858   4.107  18.136  0.00  0.00    +0.000 C 
ATOM     10  C   UNL     1       2.569   3.646  17.412  0.00  0.00    +0.000 C 
ATOM     11  C   UNL     1       4.325   2.939  19.063  0.00  0.00    +0.000 C 
BRANCH   9  18
ATOM     12  C   UNL     1       6.384   4.510  17.495  0.00  0.00    +0.000 A 
ATOM     13  C   UNL     1       7.387   4.624  16.513  0.00  0.00    +0.000 A 
ATOM     14  C   UNL     1       7.085   4.475  15.162  0.00  0.00    +0.000 A 
ATOM     15  C   UNL     1       5.784   4.195  14.793  0.00  0.00    +0.000 A 
ATOM     16  F   UNL     1       5.485   4.013  13.501  0.00  0.00    +0.000 F 
ATOM     17  C   UNL     1       4.783   4.082  15.752  0.00  0.00    +0.000 A 
ATOM     18  C   UNL     1       5.034   4.275  17.130  0.00  0.00    +0.000 A 
BRANCH  12  20
ATOM     19  C   UNL     1       7.552   5.629  19.260  0.00  0.00    +0.000 C 
ATOM     20  O   UNL     1       6.653   4.606  18.833  0.00  0.00    +0.000 OA
ENDBRANCH  12  20
ENDBRANCH   9  18
ENDBRANCH   8   9
ENDBRANCH   1   8
BRANCH   1  21
ATOM     21  C   UNL     1       2.298   7.532  19.915  0.00  0.00    +0.000 C 
BRANCH  21  22
ATOM     22  C   UNL     1       1.296   8.685  19.698  0.00  0.00    +0.000 A 
ATOM     23  C   UNL     1       0.989   9.131  18.403  0.00  0.00    +0.000 A 
ATOM     24  C   UNL     1       0.002  10.081  18.165  0.00  0.00    +0.000 A 
ATOM     25  C   UNL     1      -0.730  10.627  19.216  0.00  0.00    +0.000 A 
ATOM     26  C   UNL     1      -1.839  11.585  18.868  0.00  0.00    +0.000 C 
ATOM     27  C   UNL     1      -0.412  10.264  20.546  0.00  0.00    +0.000 A 
ATOM     28  C   UNL     1      -1.089  10.852  21.642  0.00  0.00    +0.000 A 
ATOM     29  C   UNL     1      -0.795  10.501  22.961  0.00  0.00    +0.000 A 
ATOM     30  C   UNL     1       0.181   9.556  23.211  0.00  0.00    +0.000 A 
ATOM     31  C   UNL     1       0.867   8.957  22.149  0.00  0.00    +0.000 A 
ATOM     32  C   UNL     1       0.604   9.287  20.798  0.00  0.00    +0.000 A 
ENDBRANCH  21  22
ENDBRANCH   1  21
TORSDOF 8
ENDMDL
MODEL 9
REMARK VINA RESULT:      -7.1      1.101      1.385
REMARK  Name = 
REMARK  12 active torsions:
REMARK  status: ('A' for Active; 'I' for Inactive)
REMARK    1  A    between atoms: C_1  and  O_2
REMARK    2  A    between atoms: O_2  and  C_3
REMARK    3  A    between atoms: C_9  and  C_10
REMARK    4  A    between atoms: C_10  and  C_11
REMARK    5  A    between atoms: C_10  and  C_12
REMARK    6  A    between atoms: C_10  and  C_13
REMARK    7  A    between atoms: C_13  and  C_14
REMARK    8  A    between atoms: C_14  and  O_15
REMARK    9  A    between atoms: C_14  and  C_16
REMARK   10  A    between atoms: C_14  and  C_28
REMARK   11  A    between atoms: C_16  and  C_17
REMARK   12  A    between atoms: C_20  and  C_21
REMARK                            x       y       z     vdW  Elec       q    Type
REMARK                         _______ _______ _______ _____ _____    ______ ____
ROOT
ATOM      1  C   UNL     1       2.328   4.398  19.969  0.00  0.00    +0.000 C 
ENDROOT
BRANCH   1   2
ATOM      2  C   UNL     1       1.081   3.486  19.633  0.00  0.00    +0.000 C 
ATOM      3  F   UNL     1       0.001   3.776  20.405  0.00  0.00    +0.000 F 
ATOM      4  F   UNL     1       0.672   3.641  18.350  0.00  0.00    +0.000 F 
ATOM      5  F   UNL     1       1.322   2.165  19.821  0.00  0.00    +0.000 F 
ENDBRANCH   1   2
BRANCH   1   6
ATOM      6  O   UNL     1       3.251   3.734  20.859  0.00  0.00    +0.000 OA
ATOM      7  H   UNL     1       3.301   2.796  20.629  0.00  0.00    +0.000 HD
ENDBRANCH   1   6
BRANCH   1   8
ATOM      8  C   UNL     1       3.050   4.672  18.595  0.00  0.00    +0.000 C 
BRANCH   8   9
ATOM      9  C   UNL     1       3.996   3.668  17.823  0.00  0.00    +0.000 C 
ATOM     10  C   UNL     1       3.086   2.677  17.054  0.00  0.00    +0.000 C 
ATOM     11  C   UNL     1       4.736   2.863  18.939  0.00  0.00    +0.000 C 
BRANCH   9  18
ATOM     12  C   UNL     1       6.211   5.019  17.350  0.00  0.00    +0.000 A 
ATOM     13  C   UNL     1       7.225   5.420  16.459  0.00  0.00    +0.000 A 
ATOM     14  C   UNL     1       7.229   4.983  15.137  0.00  0.00    +0.000 A 
ATOM     15  C   UNL     1       6.229   4.131  14.710  0.00  0.00    +0.000 A 
ATOM     16  F   UNL     1       6.240   3.674  13.453  0.00  0.00    +0.000 F 
ATOM     17  C   UNL     1       5.220   3.729  15.579  0.00  0.00    +0.000 A 
ATOM     18  C   UNL     1       5.148   4.188  16.914  0.00  0.00    +0.000 A 
BRANCH  12  20
ATOM     19  C   UNL     1       7.446   5.729  19.274  0.00  0.00    +0.000 C 
ATOM     20  O   UNL     1       6.200   5.394  18.666  0.00  0.00    +0.000 OA
ENDBRANCH  12  20
ENDBRANCH   9  18
ENDBRANCH   8   9
ENDBRANCH   1   8
BRANCH   1  21
ATOM     21  C   UNL     1       1.826   5.676  20.726  0.00  0.00    +0.000 C 
BRANCH  21  22
ATOM     22  C   UNL     1       1.876   7.057  20.038  0.00  0.00    +0.000 A 
ATOM     23  C   UNL     1       2.528   7.218  18.806  0.00  0.00    +0.000 A 
ATOM     24  C   UNL     1       2.487   8.416  18.102  0.00  0.00    +0.000 A 
ATOM     25  C   UNL     1       1.784   9.510  18.598  0.00  0.00    +0.000 A 
ATOM     26  C   UNL     1       1.716  10.743  17.735  0.00  0.00    +0.000 C 
ATOM     27  C   UNL     1       1.169   9.422  19.869  0.00  0.00    +0.000 A 
ATOM     28  C   UNL     1       0.505  10.539  20.435  0.00  0.00    +0.000 A 
ATOM     29  C   UNL     1      -0.114  10.470  21.684  0.00  0.00    +0.000 A 
ATOM     30  C   UNL     1      -0.084   9.284  22.393  0.00  0.00    +0.000 A 
ATOM     31  C   UNL     1       0.564   8.164  21.860  0.00  0.00    +0.000 A 
ATOM     32  C   UNL     1       1.209   8.193  20.601  0.00  0.00    +0.000 A 
ENDBRANCH  21  22
ENDBRANCH   1  21
TORSDOF 8
ENDMDL
