MODEL 1
REMARK VINA RESULT:      -7.2      0.000      0.000
REMARK  Name = 
REMARK  15 active torsions:
REMARK  status: ('A' for Active; 'I' for Inactive)
REMARK    1  A    between atoms: C_1  and  C_2
REMARK    2  A    between atoms: C_3  and  C_4
REMARK    3  A    between atoms: N_6  and  C_7
REMARK    4  A    between atoms: C_11  and  C_12
REMARK    5  A    between atoms: C_18  and  C_19
REMARK    6  A    between atoms: N_25  and  C_26
REMARK    7  A    between atoms: C_26  and  C_27
REMARK    8  A    between atoms: C_27  and  C_28
REMARK    9  A    between atoms: C_28  and  N_29
REMARK   10  A    between atoms: N_29  and  C_30
REMARK   11  A    between atoms: N_29  and  C_33
REMARK   12  A    between atoms: C_30  and  C_31
REMARK   13  A    between atoms: C_31  and  O_32
REMARK   14  A    between atoms: C_33  and  C_34
REMARK   15  A    between atoms: C_34  and  O_35
REMARK                            x       y       z     vdW  Elec       q    Type
REMARK                         _______ _______ _______ _____ _____    ______ ____
ROOT
ATOM      1  C   UNL     1       2.371   9.762  18.297  0.00  0.00    +0.000 C 
ATOM      2  C   UNL     1       1.901   8.625  19.159  0.00  0.00    +0.000 A 
ATOM      3  C   UNL     1       1.203   8.700  20.357  0.00  0.00    +0.000 A 
ATOM      4  C   UNL     1       1.096   7.355  20.817  0.00  0.00    +0.000 A 
ATOM      5  C   UNL     1       1.762   6.484  19.946  0.00  0.00    +0.000 A 
ATOM      6  N   UNL     1       2.147   7.287  18.862  0.00  0.00    +0.000 N 
ENDROOT
BRANCH   5   7
ATOM      7  C   UNL     1       1.937   5.001  20.105  0.00  0.00    +0.000 A 
ATOM      8  C   UNL     1       2.324   4.459  21.344  0.00  0.00    +0.000 A 
ATOM      9  C   UNL     1       2.348   3.072  21.570  0.00  0.00    +0.000 A 
ATOM     10  C   UNL     1       1.942   2.191  20.576  0.00  0.00    +0.000 A 
ATOM     11  C   UNL     1       1.619   2.693  19.326  0.00  0.00    +0.000 A 
ATOM     12  C   UNL     1       1.701   4.071  19.081  0.00  0.00    +0.000 A 
ENDBRANCH   5   7
BRANCH   3  13
ATOM     13  C   UNL     1       0.754   9.970  20.960  0.00  0.00    +0.000 C 
ATOM     14  O   UNL     1       1.331  10.458  21.931  0.00  0.00    +0.000 OA
ATOM     15  N   UNL     1      -0.371  10.556  20.402  0.00  0.00    +0.000 N 
ATOM     16  H   UNL     1      -0.994   9.949  19.890  0.00  0.00    +0.000 HD
BRANCH  15  17
ATOM     17  C   UNL     1      -0.878  11.783  20.887  0.00  0.00    +0.000 A 
ATOM     18  C   UNL     1      -0.413  12.968  20.322  0.00  0.00    +0.000 A 
ATOM     19  C   UNL     1      -0.969  14.192  20.705  0.00  0.00    +0.000 A 
ATOM     20  C   UNL     1      -1.931  14.243  21.713  0.00  0.00    +0.000 A 
ATOM     21  C   UNL     1      -2.358  13.067  22.353  0.00  0.00    +0.000 A 
ATOM     22  C   UNL     1      -1.834  11.832  21.909  0.00  0.00    +0.000 A 
BRANCH  21  23
ATOM     23  C   UNL     1      -3.342  13.109  23.491  0.00  0.00    +0.000 C 
ATOM     24  F   UNL     1      -3.472  11.917  24.147  0.00  0.00    +0.000 F 
ATOM     25  F   UNL     1      -3.015  14.021  24.451  0.00  0.00    +0.000 F 
ATOM     26  F   UNL     1      -4.595  13.439  23.077  0.00  0.00    +0.000 F 
ENDBRANCH  21  23
ENDBRANCH  15  17
ENDBRANCH   3  13
BRANCH   6  27
ATOM     27  C   UNL     1       2.815   6.874  17.630  0.00  0.00    +0.000 C 
BRANCH  27  28
ATOM     28  C   UNL     1       4.346   6.893  17.616  0.00  0.00    +0.000 C 
BRANCH  28  29
ATOM     29  C   UNL     1       5.011   6.603  16.273  0.00  0.00    +0.000 C 
BRANCH  29  30
ATOM     30  N   UNL     1       6.482   6.356  16.415  0.00  0.00    +0.000 NA
BRANCH  30  31
ATOM     31  C   UNL     1       6.959   6.795  17.766  0.00  0.00    +0.000 C 
BRANCH  31  32
ATOM     32  C   UNL     1       7.679   5.759  18.658  0.00  0.00    +0.000 C 
BRANCH  32  33
ATOM     33  O   UNL     1       6.871   5.343  19.752  0.00  0.00    +0.000 OA
ATOM     34  H   UNL     1       7.439   4.795  20.322  0.00  0.00    +0.000 HD
ENDBRANCH  32  33
ENDBRANCH  31  32
ENDBRANCH  30  31
BRANCH  30  35
ATOM     35  C   UNL     1       6.774   4.914  16.216  0.00  0.00    +0.000 C 
BRANCH  35  36
ATOM     36  C   UNL     1       6.949   4.511  14.741  0.00  0.00    +0.000 C 
BRANCH  36  37
ATOM     37  O   UNL     1       7.781   5.452  14.068  0.00  0.00    +0.000 OA
ATOM     38  H   UNL     1       7.355   6.320  14.208  0.00  0.00    +0.000 HD
ENDBRANCH  36  37
ENDBRANCH  35  36
ENDBRANCH  30  35
ENDBRANCH  29  30
ENDBRANCH  28  29
ENDBRANCH  27  28
ENDBRANCH   6  27
TORSDOF 14
ENDMDL
MODEL 2
REMARK VINA RESULT:      -7.1      0.977      1.180
REMARK  Name = 
REMARK  15 active torsions:
REMARK  status: ('A' for Active; 'I' for Inactive)
REMARK    1  A    between atoms: C_1  and  C_2
REMARK    2  A    between atoms: C_3  and  C_4
REMARK    3  A    between atoms: N_6  and  C_7
REMARK    4  A    between atoms: C_11  and  C_12
REMARK    5  A    between atoms: C_18  and  C_19
REMARK    6  A    between atoms: N_25  and  C_26
REMARK    7  A    between atoms: C_26  and  C_27
REMARK    8  A    between atoms: C_27  and  C_28
REMARK    9  A    between atoms: C_28  and  N_29
REMARK   10  A    between atoms: N_29  and  C_30
REMARK   11  A    between atoms: N_29  and  C_33
REMARK   12  A    between atoms: C_30  and  C_31
REMARK   13  A    between atoms: C_31  and  O_32
REMARK   14  A    between atoms: C_33  and  C_34
REMARK   15  A    between atoms: C_34  and  O_35
REMARK                            x       y       z     vdW  Elec       q    Type
REMARK                         _______ _______ _______ _____ _____    ______ ____
ROOT
ATOM      1  C   UNL     1       2.011   9.744  17.952  0.00  0.00    +0.000 C 
ATOM      2  C   UNL     1       1.852   8.659  18.978  0.00  0.00    +0.000 A 
ATOM      3  C   UNL     1       1.309   8.767  20.251  0.00  0.00    +0.000 A 
ATOM      4  C   UNL     1       1.490   7.486  20.850  0.00  0.00    +0.000 A 
ATOM      5  C   UNL     1       2.179   6.632  19.981  0.00  0.00    +0.000 A 
ATOM      6  N   UNL     1       2.282   7.350  18.780  0.00  0.00    +0.000 N 
ENDROOT
BRANCH   5   7
ATOM      7  C   UNL     1       2.621   5.223  20.255  0.00  0.00    +0.000 A 
ATOM      8  C   UNL     1       1.904   4.416  21.157  0.00  0.00    +0.000 A 
ATOM      9  C   UNL     1       2.196   3.051  21.321  0.00  0.00    +0.000 A 
ATOM     10  C   UNL     1       3.183   2.446  20.555  0.00  0.00    +0.000 A 
ATOM     11  C   UNL     1       3.949   3.230  19.707  0.00  0.00    +0.000 A 
ATOM     12  C   UNL     1       3.718   4.610  19.630  0.00  0.00    +0.000 A 
ENDBRANCH   5   7
BRANCH   3  13
ATOM     13  C   UNL     1       0.731  10.015  20.788  0.00  0.00    +0.000 C 
ATOM     14  O   UNL     1       1.265  10.622  21.715  0.00  0.00    +0.000 OA
ATOM     15  N   UNL     1      -0.459  10.439  20.221  0.00  0.00    +0.000 N 
ATOM     16  H   UNL     1      -1.020   9.737  19.760  0.00  0.00    +0.000 HD
BRANCH  15  17
ATOM     17  C   UNL     1      -1.092  11.631  20.643  0.00  0.00    +0.000 A 
ATOM     18  C   UNL     1      -0.915  12.786  19.884  0.00  0.00    +0.000 A 
ATOM     19  C   UNL     1      -1.609  13.953  20.215  0.00  0.00    +0.000 A 
ATOM     20  C   UNL     1      -2.416  13.995  21.351  0.00  0.00    +0.000 A 
ATOM     21  C   UNL     1      -2.545  12.864  22.176  0.00  0.00    +0.000 A 
ATOM     22  C   UNL     1      -1.890  11.673  21.793  0.00  0.00    +0.000 A 
BRANCH  21  23
ATOM     23  C   UNL     1      -3.354  12.912  23.444  0.00  0.00    +0.000 C 
ATOM     24  F   UNL     1      -2.903  13.835  24.346  0.00  0.00    +0.000 F 
ATOM     25  F   UNL     1      -4.667  13.217  23.235  0.00  0.00    +0.000 F 
ATOM     26  F   UNL     1      -3.351  11.722  24.104  0.00  0.00    +0.000 F 
ENDBRANCH  21  23
ENDBRANCH  15  17
ENDBRANCH   3  13
BRANCH   6  27
ATOM     27  C   UNL     1       2.849   6.901  17.510  0.00  0.00    +0.000 C 
BRANCH  27  28
ATOM     28  C   UNL     1       4.334   7.179  17.263  0.00  0.00    +0.000 C 
BRANCH  28  29
ATOM     29  C   UNL     1       5.049   6.222  16.311  0.00  0.00    +0.000 C 
BRANCH  29  30
ATOM     30  N   UNL     1       6.433   5.891  16.781  0.00  0.00    +0.000 NA
BRANCH  30  31
ATOM     31  C   UNL     1       6.568   6.163  18.249  0.00  0.00    +0.000 C 
BRANCH  31  32
ATOM     32  C   UNL     1       7.981   6.119  18.873  0.00  0.00    +0.000 C 
BRANCH  32  33
ATOM     33  O   UNL     1       8.557   7.415  18.980  0.00  0.00    +0.000 OA
ATOM     34  H   UNL     1       8.910   7.633  18.099  0.00  0.00    +0.000 HD
ENDBRANCH  32  33
ENDBRANCH  31  32
ENDBRANCH  30  31
BRANCH  30  35
ATOM     35  C   UNL     1       6.734   4.464  16.499  0.00  0.00    +0.000 C 
BRANCH  35  36
ATOM     36  C   UNL     1       5.714   3.784  15.568  0.00  0.00    +0.000 C 
BRANCH  36  37
ATOM     37  O   UNL     1       6.312   3.500  14.306  0.00  0.00    +0.000 OA
ATOM     38  H   UNL     1       7.093   2.950  14.508  0.00  0.00    +0.000 HD
ENDBRANCH  36  37
ENDBRANCH  35  36
ENDBRANCH  30  35
ENDBRANCH  29  30
ENDBRANCH  28  29
ENDBRANCH  27  28
ENDBRANCH   6  27
TORSDOF 14
ENDMDL
MODEL 3
REMARK VINA RESULT:      -7.0      1.301      1.740
REMARK  Name = 
REMARK  15 active torsions:
REMARK  status: ('A' for Active; 'I' for Inactive)
REMARK    1  A    between atoms: C_1  and  C_2
REMARK    2  A    between atoms: C_3  and  C_4
REMARK    3  A    between atoms: N_6  and  C_7
REMARK    4  A    between atoms: C_11  and  C_12
REMARK    5  A    between atoms: C_18  and  C_19
REMARK    6  A    between atoms: N_25  and  C_26
REMARK    7  A    between atoms: C_26  and  C_27
REMARK    8  A    between atoms: C_27  and  C_28
REMARK    9  A    between atoms: C_28  and  N_29
REMARK   10  A    between atoms: N_29  and  C_30
REMARK   11  A    between atoms: N_29  and  C_33
REMARK   12  A    between atoms: C_30  and  C_31
REMARK   13  A    between atoms: C_31  and  O_32
REMARK   14  A    between atoms: C_33  and  C_34
REMARK   15  A    between atoms: C_34  and  O_35
REMARK                            x       y       z     vdW  Elec       q    Type
REMARK                         _______ _______ _______ _____ _____    ______ ____
ROOT
ATOM      1  C   UNL     1       2.388   9.595  18.129  0.00  0.00    +0.000 C 
ATOM      2  C   UNL     1       1.849   8.580  19.096  0.00  0.00    +0.000 A 
ATOM      3  C   UNL     1       1.147   8.815  20.271  0.00  0.00    +0.000 A 
ATOM      4  C   UNL     1       0.962   7.533  20.865  0.00  0.00    +0.000 A 
ATOM      5  C   UNL     1       1.587   6.542  20.097  0.00  0.00    +0.000 A 
ATOM      6  N   UNL     1       2.023   7.207  18.942  0.00  0.00    +0.000 N 
ENDROOT
BRANCH   5   7
ATOM      7  C   UNL     1       1.678   5.076  20.409  0.00  0.00    +0.000 A 
ATOM      8  C   UNL     1       2.492   4.622  21.462  0.00  0.00    +0.000 A 
ATOM      9  C   UNL     1       2.484   3.280  21.878  0.00  0.00    +0.000 A 
ATOM     10  C   UNL     1       1.626   2.365  21.283  0.00  0.00    +0.000 A 
ATOM     11  C   UNL     1       0.861   2.769  20.200  0.00  0.00    +0.000 A 
ATOM     12  C   UNL     1       0.958   4.084  19.726  0.00  0.00    +0.000 A 
ENDBRANCH   5   7
BRANCH   3  13
ATOM     13  C   UNL     1       0.764  10.164  20.735  0.00  0.00    +0.000 C 
ATOM     14  O   UNL     1       1.360  10.717  21.657  0.00  0.00    +0.000 OA
ATOM     15  N   UNL     1      -0.324  10.747  20.107  0.00  0.00    +0.000 N 
ATOM     16  H   UNL     1      -0.976  10.125  19.653  0.00  0.00    +0.000 HD
BRANCH  15  17
ATOM     17  C   UNL     1      -0.767  12.044  20.457  0.00  0.00    +0.000 A 
ATOM     18  C   UNL     1      -0.333  13.126  19.695  0.00  0.00    +0.000 A 
ATOM     19  C   UNL     1      -0.833  14.406  19.950  0.00  0.00    +0.000 A 
ATOM     20  C   UNL     1      -1.703  14.623  21.018  0.00  0.00    +0.000 A 
ATOM     21  C   UNL     1      -2.092  13.558  21.849  0.00  0.00    +0.000 A 
ATOM     22  C   UNL     1      -1.629  12.259  21.539  0.00  0.00    +0.000 A 
BRANCH  21  23
ATOM     23  C   UNL     1      -2.972  13.784  23.048  0.00  0.00    +0.000 C 
ATOM     24  F   UNL     1      -2.280  13.895  24.222  0.00  0.00    +0.000 F 
ATOM     25  F   UNL     1      -3.723  14.920  22.958  0.00  0.00    +0.000 F 
ATOM     26  F   UNL     1      -3.857  12.768  23.238  0.00  0.00    +0.000 F 
ENDBRANCH  21  23
ENDBRANCH  15  17
ENDBRANCH   3  13
BRANCH   6  27
ATOM     27  C   UNL     1       2.677   6.634  17.767  0.00  0.00    +0.000 C 
BRANCH  27  28
ATOM     28  C   UNL     1       4.204   6.524  17.792  0.00  0.00    +0.000 C 
BRANCH  28  29
ATOM     29  C   UNL     1       4.785   5.419  18.671  0.00  0.00    +0.000 C 
BRANCH  29  30
ATOM     30  N   UNL     1       5.117   4.189  17.883  0.00  0.00    +0.000 NA
BRANCH  30  31
ATOM     31  C   UNL     1       3.940   3.262  17.835  0.00  0.00    +0.000 C 
BRANCH  31  32
ATOM     32  C   UNL     1       4.029   1.927  18.607  0.00  0.00    +0.000 C 
BRANCH  32  33
ATOM     33  O   UNL     1       4.983   1.983  19.661  0.00  0.00    +0.000 OA
ATOM     34  H   UNL     1       5.738   1.437  19.378  0.00  0.00    +0.000 HD
ENDBRANCH  32  33
ENDBRANCH  31  32
ENDBRANCH  30  31
BRANCH  30  35
ATOM     35  C   UNL     1       5.523   4.567  16.505  0.00  0.00    +0.000 C 
BRANCH  35  36
ATOM     36  C   UNL     1       7.045   4.552  16.278  0.00  0.00    +0.000 C 
BRANCH  36  37
ATOM     37  O   UNL     1       7.499   5.849  15.900  0.00  0.00    +0.000 OA
ATOM     38  H   UNL     1       8.427   5.727  15.618  0.00  0.00    +0.000 HD
ENDBRANCH  36  37
ENDBRANCH  35  36
ENDBRANCH  30  35
ENDBRANCH  29  30
ENDBRANCH  28  29
ENDBRANCH  27  28
ENDBRANCH   6  27
TORSDOF 14
ENDMDL
MODEL 4
REMARK VINA RESULT:      -7.0      1.623      2.066
REMARK  Name = 
REMARK  15 active torsions:
REMARK  status: ('A' for Active; 'I' for Inactive)
REMARK    1  A    between atoms: C_1  and  C_2
REMARK    2  A    between atoms: C_3  and  C_4
REMARK    3  A    between atoms: N_6  and  C_7
REMARK    4  A    between atoms: C_11  and  C_12
REMARK    5  A    between atoms: C_18  and  C_19
REMARK    6  A    between atoms: N_25  and  C_26
REMARK    7  A    between atoms: C_26  and  C_27
REMARK    8  A    between atoms: C_27  and  C_28
REMARK    9  A    between atoms: C_28  and  N_29
REMARK   10  A    between atoms: N_29  and  C_30
REMARK   11  A    between atoms: N_29  and  C_33
REMARK   12  A    between atoms: C_30  and  C_31
REMARK   13  A    between atoms: C_31  and  O_32
REMARK   14  A    between atoms: C_33  and  C_34
REMARK   15  A    between atoms: C_34  and  O_35
REMARK                            x       y       z     vdW  Elec       q    Type
REMARK                         _______ _______ _______ _____ _____    ______ ____
ROOT
ATOM      1  C   UNL     1       2.262   9.703  18.348  0.00  0.00    +0.000 C 
ATOM      2  C   UNL     1       1.841   8.556  19.222  0.00  0.00    +0.000 A 
ATOM      3  C   UNL     1       1.238   8.616  20.471  0.00  0.00    +0.000 A 
ATOM      4  C   UNL     1       1.146   7.264  20.912  0.00  0.00    +0.000 A 
ATOM      5  C   UNL     1       1.731   6.402  19.977  0.00  0.00    +0.000 A 
ATOM      6  N   UNL     1       2.044   7.221  18.882  0.00  0.00    +0.000 N 
ENDROOT
BRANCH   5   7
ATOM      7  C   UNL     1       1.894   4.913  20.093  0.00  0.00    +0.000 A 
ATOM      8  C   UNL     1       2.311   4.336  21.306  0.00  0.00    +0.000 A 
ATOM      9  C   UNL     1       2.327   2.944  21.497  0.00  0.00    +0.000 A 
ATOM     10  C   UNL     1       1.883   2.092  20.494  0.00  0.00    +0.000 A 
ATOM     11  C   UNL     1       1.530   2.629  19.266  0.00  0.00    +0.000 A 
ATOM     12  C   UNL     1       1.619   4.011  19.054  0.00  0.00    +0.000 A 
ENDBRANCH   5   7
BRANCH   3  13
ATOM     13  C   UNL     1       0.856   9.880  21.131  0.00  0.00    +0.000 C 
ATOM     14  O   UNL     1       1.587  10.416  21.962  0.00  0.00    +0.000 OA
ATOM     15  N   UNL     1      -0.383  10.402  20.796  0.00  0.00    +0.000 N 
ATOM     16  H   UNL     1      -1.065   9.756  20.426  0.00  0.00    +0.000 HD
BRANCH  15  17
ATOM     17  C   UNL     1      -0.843  11.617  21.353  0.00  0.00    +0.000 A 
ATOM     18  C   UNL     1      -1.468  11.588  22.598  0.00  0.00    +0.000 A 
ATOM     19  C   UNL     1      -1.840  12.782  23.221  0.00  0.00    +0.000 A 
ATOM     20  C   UNL     1      -1.666  14.002  22.569  0.00  0.00    +0.000 A 
ATOM     21  C   UNL     1      -1.111  14.048  21.278  0.00  0.00    +0.000 A 
ATOM     22  C   UNL     1      -0.680  12.839  20.688  0.00  0.00    +0.000 A 
BRANCH  21  23
ATOM     23  C   UNL     1      -0.982  15.347  20.530  0.00  0.00    +0.000 C 
ATOM     24  F   UNL     1      -2.033  16.199  20.726  0.00  0.00    +0.000 F 
ATOM     25  F   UNL     1       0.132  16.057  20.871  0.00  0.00    +0.000 F 
ATOM     26  F   UNL     1      -0.906  15.163  19.184  0.00  0.00    +0.000 F 
ENDBRANCH  21  23
ENDBRANCH  15  17
ENDBRANCH   3  13
BRANCH   6  27
ATOM     27  C   UNL     1       2.609   6.823  17.594  0.00  0.00    +0.000 C 
BRANCH  27  28
ATOM     28  C   UNL     1       4.134   6.853  17.454  0.00  0.00    +0.000 C 
BRANCH  28  29
ATOM     29  C   UNL     1       4.879   5.606  17.926  0.00  0.00    +0.000 C 
BRANCH  29  30
ATOM     30  N   UNL     1       6.176   5.417  17.202  0.00  0.00    +0.000 NA
BRANCH  30  31
ATOM     31  C   UNL     1       7.241   4.948  18.146  0.00  0.00    +0.000 C 
BRANCH  31  32
ATOM     32  C   UNL     1       7.836   5.968  19.143  0.00  0.00    +0.000 C 
BRANCH  32  33
ATOM     33  O   UNL     1       7.984   5.417  20.446  0.00  0.00    +0.000 OA
ATOM     34  H   UNL     1       7.795   4.465  20.365  0.00  0.00    +0.000 HD
ENDBRANCH  32  33
ENDBRANCH  31  32
ENDBRANCH  30  31
BRANCH  30  35
ATOM     35  C   UNL     1       6.002   4.433  16.103  0.00  0.00    +0.000 C 
BRANCH  35  36
ATOM     36  C   UNL     1       6.367   4.982  14.712  0.00  0.00    +0.000 C 
BRANCH  36  37
ATOM     37  O   UNL     1       7.741   5.359  14.677  0.00  0.00    +0.000 OA
ATOM     38  H   UNL     1       8.168   4.727  14.067  0.00  0.00    +0.000 HD
ENDBRANCH  36  37
ENDBRANCH  35  36
ENDBRANCH  30  35
ENDBRANCH  29  30
ENDBRANCH  28  29
ENDBRANCH  27  28
ENDBRANCH   6  27
TORSDOF 14
ENDMDL
MODEL 5
REMARK VINA RESULT:      -7.0      0.896      1.113
REMARK  Name = 
REMARK  15 active torsions:
REMARK  status: ('A' for Active; 'I' for Inactive)
REMARK    1  A    between atoms: C_1  and  C_2
REMARK    2  A    between atoms: C_3  and  C_4
REMARK    3  A    between atoms: N_6  and  C_7
REMARK    4  A    between atoms: C_11  and  C_12
REMARK    5  A    between atoms: C_18  and  C_19
REMARK    6  A    between atoms: N_25  and  C_26
REMARK    7  A    between atoms: C_26  and  C_27
REMARK    8  A    between atoms: C_27  and  C_28
REMARK    9  A    between atoms: C_28  and  N_29
REMARK   10  A    between atoms: N_29  and  C_30
REMARK   11  A    between atoms: N_29  and  C_33
REMARK   12  A    between atoms: C_30  and  C_31
REMARK   13  A    between atoms: C_31  and  O_32
REMARK   14  A    between atoms: C_33  and  C_34
REMARK   15  A    between atoms: C_34  and  O_35
REMARK                            x       y       z     vdW  Elec       q    Type
REMARK                         _______ _______ _______ _____ _____    ______ ____
ROOT
ATOM      1  C   UNL     1       2.238   9.756  18.706  0.00  0.00    +0.000 C 
ATOM      2  C   UNL     1       1.817   8.553  19.501  0.00  0.00    +0.000 A 
ATOM      3  C   UNL     1       1.221   8.530  20.755  0.00  0.00    +0.000 A 
ATOM      4  C   UNL     1       1.125   7.152  21.104  0.00  0.00    +0.000 A 
ATOM      5  C   UNL     1       1.702   6.353  20.109  0.00  0.00    +0.000 A 
ATOM      6  N   UNL     1       2.012   7.244  19.071  0.00  0.00    +0.000 N 
ENDROOT
BRANCH   5   7
ATOM      7  C   UNL     1       1.860   4.860  20.123  0.00  0.00    +0.000 A 
ATOM      8  C   UNL     1       2.373   4.209  21.259  0.00  0.00    +0.000 A 
ATOM      9  C   UNL     1       2.392   2.808  21.365  0.00  0.00    +0.000 A 
ATOM     10  C   UNL     1       1.855   2.020  20.356  0.00  0.00    +0.000 A 
ATOM     11  C   UNL     1       1.403   2.631  19.197  0.00  0.00    +0.000 A 
ATOM     12  C   UNL     1       1.488   4.023  19.060  0.00  0.00    +0.000 A 
ENDBRANCH   5   7
BRANCH   3  13
ATOM     13  C   UNL     1       0.847   9.748  21.502  0.00  0.00    +0.000 C 
ATOM     14  O   UNL     1       1.312   9.985  22.616  0.00  0.00    +0.000 OA
ATOM     15  N   UNL     1      -0.081  10.582  20.900  0.00  0.00    +0.000 N 
ATOM     16  H   UNL     1      -0.684  10.166  20.205  0.00  0.00    +0.000 HD
BRANCH  15  17
ATOM     17  C   UNL     1      -0.497  11.785  21.516  0.00  0.00    +0.000 A 
ATOM     18  C   UNL     1       0.267  12.933  21.321  0.00  0.00    +0.000 A 
ATOM     19  C   UNL     1      -0.172  14.159  21.829  0.00  0.00    +0.000 A 
ATOM     20  C   UNL     1      -1.331  14.228  22.602  0.00  0.00    +0.000 A 
ATOM     21  C   UNL     1      -2.074  13.067  22.877  0.00  0.00    +0.000 A 
ATOM     22  C   UNL     1      -1.653  11.846  22.303  0.00  0.00    +0.000 A 
BRANCH  21  23
ATOM     23  C   UNL     1      -3.286  13.109  23.768  0.00  0.00    +0.000 C 
ATOM     24  F   UNL     1      -4.415  13.548  23.135  0.00  0.00    +0.000 F 
ATOM     25  F   UNL     1      -3.612  11.893  24.293  0.00  0.00    +0.000 F 
ATOM     26  F   UNL     1      -3.116  13.939  24.833  0.00  0.00    +0.000 F 
ENDBRANCH  21  23
ENDBRANCH  15  17
ENDBRANCH   3  13
BRANCH   6  27
ATOM     27  C   UNL     1       2.570   6.932  17.756  0.00  0.00    +0.000 C 
BRANCH  27  28
ATOM     28  C   UNL     1       4.030   6.476  17.698  0.00  0.00    +0.000 C 
BRANCH  28  29
ATOM     29  C   UNL     1       4.800   6.838  16.430  0.00  0.00    +0.000 C 
BRANCH  29  30
ATOM     30  N   UNL     1       6.168   6.230  16.410  0.00  0.00    +0.000 NA
BRANCH  30  31
ATOM     31  C   UNL     1       6.741   6.179  17.794  0.00  0.00    +0.000 C 
BRANCH  31  32
ATOM     32  C   UNL     1       7.865   7.174  18.157  0.00  0.00    +0.000 C 
BRANCH  32  33
ATOM     33  O   UNL     1       7.917   8.273  17.255  0.00  0.00    +0.000 OA
ATOM     34  H   UNL     1       8.614   8.868  17.585  0.00  0.00    +0.000 HD
ENDBRANCH  32  33
ENDBRANCH  31  32
ENDBRANCH  30  31
BRANCH  30  35
ATOM     35  C   UNL     1       6.105   4.862  15.835  0.00  0.00    +0.000 C 
BRANCH  35  36
ATOM     36  C   UNL     1       6.701   4.751  14.421  0.00  0.00    +0.000 C 
BRANCH  36  37
ATOM     37  O   UNL     1       7.905   5.509  14.333  0.00  0.00    +0.000 OA
ATOM     38  H   UNL     1       7.890   5.918  13.446  0.00  0.00    +0.000 HD
ENDBRANCH  36  37
ENDBRANCH  35  36
ENDBRANCH  30  35
ENDBRANCH  29  30
ENDBRANCH  28  29
ENDBRANCH  27  28
ENDBRANCH   6  27
TORSDOF 14
ENDMDL
MODEL 6
REMARK VINA RESULT:      -6.9      5.296     10.867
REMARK  Name = 
REMARK  15 active torsions:
REMARK  status: ('A' for Active; 'I' for Inactive)
REMARK    1  A    between atoms: C_1  and  C_2
REMARK    2  A    between atoms: C_3  and  C_4
REMARK    3  A    between atoms: N_6  and  C_7
REMARK    4  A    between atoms: C_11  and  C_12
REMARK    5  A    between atoms: C_18  and  C_19
REMARK    6  A    between atoms: N_25  and  C_26
REMARK    7  A    between atoms: C_26  and  C_27
REMARK    8  A    between atoms: C_27  and  C_28
REMARK    9  A    between atoms: C_28  and  N_29
REMARK   10  A    between atoms: N_29  and  C_30
REMARK   11  A    between atoms: N_29  and  C_33
REMARK   12  A    between atoms: C_30  and  C_31
REMARK   13  A    between atoms: C_31  and  O_32
REMARK   14  A    between atoms: C_33  and  C_34
REMARK   15  A    between atoms: C_34  and  O_35
REMARK                            x       y       z     vdW  Elec       q    Type
REMARK                         _______ _______ _______ _____ _____    ______ ____
ROOT
ATOM      1  C   UNL     1       1.916   6.564  20.801  0.00  0.00    +0.000 C 
ATOM      2  C   UNL     1       1.781   7.659  19.782  0.00  0.00    +0.000 A 
ATOM      3  C   UNL     1       2.402   7.748  18.543  0.00  0.00    +0.000 A 
ATOM      4  C   UNL     1       2.024   9.019  18.021  0.00  0.00    +0.000 A 
ATOM      5  C   UNL     1       1.235   9.715  18.945  0.00  0.00    +0.000 A 
ATOM      6  N   UNL     1       0.999   8.795  19.977  0.00  0.00    +0.000 N 
ENDROOT
BRANCH   5   7
ATOM      7  C   UNL     1       0.688  11.106  18.804  0.00  0.00    +0.000 A 
ATOM      8  C   UNL     1       1.542  12.219  18.895  0.00  0.00    +0.000 A 
ATOM      9  C   UNL     1       1.094  13.521  18.618  0.00  0.00    +0.000 A 
ATOM     10  C   UNL     1      -0.211  13.741  18.198  0.00  0.00    +0.000 A 
ATOM     11  C   UNL     1      -1.093  12.672  18.164  0.00  0.00    +0.000 A 
ATOM     12  C   UNL     1      -0.661  11.395  18.545  0.00  0.00    +0.000 A 
ENDBRANCH   5   7
BRANCH   3  13
ATOM     13  C   UNL     1       3.289   6.701  17.999  0.00  0.00    +0.000 C 
ATOM     14  O   UNL     1       2.907   5.538  17.876  0.00  0.00    +0.000 OA
ATOM     15  N   UNL     1       4.579   7.089  17.678  0.00  0.00    +0.000 N 
ATOM     16  H   UNL     1       4.935   7.915  18.137  0.00  0.00    +0.000 HD
BRANCH  15  17
ATOM     17  C   UNL     1       5.508   6.173  17.132  0.00  0.00    +0.000 A 
ATOM     18  C   UNL     1       6.561   5.733  17.931  0.00  0.00    +0.000 A 
ATOM     19  C   UNL     1       7.435   4.751  17.457  0.00  0.00    +0.000 A 
ATOM     20  C   UNL     1       7.311   4.265  16.156  0.00  0.00    +0.000 A 
ATOM     21  C   UNL     1       6.305   4.755  15.305  0.00  0.00    +0.000 A 
ATOM     22  C   UNL     1       5.389   5.700  15.820  0.00  0.00    +0.000 A 
BRANCH  21  23
ATOM     23  C   UNL     1       6.200   4.296  13.876  0.00  0.00    +0.000 C 
ATOM     24  F   UNL     1       7.072   4.928  13.033  0.00  0.00    +0.000 F 
ATOM     25  F   UNL     1       6.441   2.963  13.718  0.00  0.00    +0.000 F 
ATOM     26  F   UNL     1       4.962   4.513  13.353  0.00  0.00    +0.000 F 
ENDBRANCH  21  23
ENDBRANCH  15  17
ENDBRANCH   3  13
BRANCH   6  27
ATOM     27  C   UNL     1       0.169   8.972  21.167  0.00  0.00    +0.000 C 
BRANCH  27  28
ATOM     28  C   UNL     1       0.243  10.323  21.884  0.00  0.00    +0.000 C 
BRANCH  28  29
ATOM     29  C   UNL     1      -0.913  10.650  22.827  0.00  0.00    +0.000 C 
BRANCH  29  30
ATOM     30  N   UNL     1      -1.013  12.118  23.107  0.00  0.00    +0.000 NA
BRANCH  30  31
ATOM     31  C   UNL     1      -0.663  12.911  21.884  0.00  0.00    +0.000 C 
BRANCH  31  32
ATOM     32  C   UNL     1       0.312  14.099  22.037  0.00  0.00    +0.000 C 
BRANCH  32  33
ATOM     33  O   UNL     1      -0.340  15.265  22.527  0.00  0.00    +0.000 OA
ATOM     34  H   UNL     1      -1.269  15.203  22.239  0.00  0.00    +0.000 HD
ENDBRANCH  32  33
ENDBRANCH  31  32
ENDBRANCH  30  31
BRANCH  30  35
ATOM     35  C   UNL     1      -2.389  12.454  23.554  0.00  0.00    +0.000 C 
BRANCH  35  36
ATOM     36  C   UNL     1      -3.244  13.142  22.475  0.00  0.00    +0.000 C 
BRANCH  36  37
ATOM     37  O   UNL     1      -4.274  12.263  22.030  0.00  0.00    +0.000 OA
ATOM     38  H   UNL     1      -4.221  12.275  21.054  0.00  0.00    +0.000 HD
ENDBRANCH  36  37
ENDBRANCH  35  36
ENDBRANCH  30  35
ENDBRANCH  29  30
ENDBRANCH  28  29
ENDBRANCH  27  28
ENDBRANCH   6  27
TORSDOF 14
ENDMDL
MODEL 7
REMARK VINA RESULT:      -6.8      0.940      1.899
REMARK  Name = 
REMARK  15 active torsions:
REMARK  status: ('A' for Active; 'I' for Inactive)
REMARK    1  A    between atoms: C_1  and  C_2
REMARK    2  A    between atoms: C_3  and  C_4
REMARK    3  A    between atoms: N_6  and  C_7
REMARK    4  A    between atoms: C_11  and  C_12
REMARK    5  A    between atoms: C_18  and  C_19
REMARK    6  A    between atoms: N_25  and  C_26
REMARK    7  A    between atoms: C_26  and  C_27
REMARK    8  A    between atoms: C_27  and  C_28
REMARK    9  A    between atoms: C_28  and  N_29
REMARK   10  A    between atoms: N_29  and  C_30
REMARK   11  A    between atoms: N_29  and  C_33
REMARK   12  A    between atoms: C_30  and  C_31
REMARK   13  A    between atoms: C_31  and  O_32
REMARK   14  A    between atoms: C_33  and  C_34
REMARK   15  A    between atoms: C_34  and  O_35
REMARK                            x       y       z     vdW  Elec       q    Type
REMARK                         _______ _______ _______ _____ _____    ______ ____
ROOT
ATOM      1  C   UNL     1       1.993  10.188  18.885  0.00  0.00    +0.000 C 
ATOM      2  C   UNL     1       1.677   8.911  19.609  0.00  0.00    +0.000 A 
ATOM      3  C   UNL     1       1.088   8.765  20.857  0.00  0.00    +0.000 A 
ATOM      4  C   UNL     1       1.110   7.366  21.126  0.00  0.00    +0.000 A 
ATOM      5  C   UNL     1       1.751   6.678  20.089  0.00  0.00    +0.000 A 
ATOM      6  N   UNL     1       1.983   7.649  19.104  0.00  0.00    +0.000 N 
ENDROOT
BRANCH   5   7
ATOM      7  C   UNL     1       2.035   5.205  20.018  0.00  0.00    +0.000 A 
ATOM      8  C   UNL     1       2.316   4.477  21.188  0.00  0.00    +0.000 A 
ATOM      9  C   UNL     1       2.435   3.077  21.179  0.00  0.00    +0.000 A 
ATOM     10  C   UNL     1       2.232   2.362  20.006  0.00  0.00    +0.000 A 
ATOM     11  C   UNL     1       2.020   3.057  18.826  0.00  0.00    +0.000 A 
ATOM     12  C   UNL     1       2.009   4.458  18.830  0.00  0.00    +0.000 A 
ENDBRANCH   5   7
BRANCH   3  13
ATOM     13  C   UNL     1       0.613   9.902  21.671  0.00  0.00    +0.000 C 
ATOM     14  O   UNL     1       0.962  10.042  22.842  0.00  0.00    +0.000 OA
ATOM     15  N   UNL     1      -0.275  10.772  21.060  0.00  0.00    +0.000 N 
ATOM     16  H   UNL     1      -0.798  10.413  20.274  0.00  0.00    +0.000 HD
BRANCH  15  17
ATOM     17  C   UNL     1      -0.779  11.905  21.739  0.00  0.00    +0.000 A 
ATOM     18  C   UNL     1      -0.086  13.109  21.633  0.00  0.00    +0.000 A 
ATOM     19  C   UNL     1      -0.612  14.271  22.205  0.00  0.00    +0.000 A 
ATOM     20  C   UNL     1      -1.788  14.218  22.953  0.00  0.00    +0.000 A 
ATOM     21  C   UNL     1      -2.461  12.998  23.139  0.00  0.00    +0.000 A 
ATOM     22  C   UNL     1      -1.952  11.845  22.500  0.00  0.00    +0.000 A 
BRANCH  21  23
ATOM     23  C   UNL     1      -3.691  12.909  24.001  0.00  0.00    +0.000 C 
ATOM     24  F   UNL     1      -4.854  13.140  23.321  0.00  0.00    +0.000 F 
ATOM     25  F   UNL     1      -3.849  11.688  24.589  0.00  0.00    +0.000 F 
ATOM     26  F   UNL     1      -3.676  13.812  25.019  0.00  0.00    +0.000 F 
ENDBRANCH  21  23
ENDBRANCH  15  17
ENDBRANCH   3  13
BRANCH   6  27
ATOM     27  C   UNL     1       2.562   7.463  17.776  0.00  0.00    +0.000 C 
BRANCH  27  28
ATOM     28  C   UNL     1       4.079   7.279  17.687  0.00  0.00    +0.000 C 
BRANCH  28  29
ATOM     29  C   UNL     1       4.602   6.585  16.430  0.00  0.00    +0.000 C 
BRANCH  29  30
ATOM     30  N   UNL     1       5.449   5.394  16.755  0.00  0.00    +0.000 NA
BRANCH  30  31
ATOM     31  C   UNL     1       5.365   4.375  15.658  0.00  0.00    +0.000 C 
BRANCH  31  32
ATOM     32  C   UNL     1       6.602   4.171  14.755  0.00  0.00    +0.000 C 
BRANCH  32  33
ATOM     33  O   UNL     1       6.865   5.311  13.945  0.00  0.00    +0.000 OA
ATOM     34  H   UNL     1       5.999   5.694  13.720  0.00  0.00    +0.000 HD
ENDBRANCH  32  33
ENDBRANCH  31  32
ENDBRANCH  30  31
BRANCH  30  35
ATOM     35  C   UNL     1       6.859   5.815  16.952  0.00  0.00    +0.000 C 
BRANCH  35  36
ATOM     36  C   UNL     1       7.550   5.141  18.151  0.00  0.00    +0.000 C 
BRANCH  36  37
ATOM     37  O   UNL     1       8.284   3.998  17.718  0.00  0.00    +0.000 OA
ATOM     38  H   UNL     1       8.827   3.733  18.486  0.00  0.00    +0.000 HD
ENDBRANCH  36  37
ENDBRANCH  35  36
ENDBRANCH  30  35
ENDBRANCH  29  30
ENDBRANCH  28  29
ENDBRANCH  27  28
ENDBRANCH   6  27
TORSDOF 14
ENDMDL
MODEL 8
REMARK VINA RESULT:      -6.8      1.928      2.984
REMARK  Name = 
REMARK  15 active torsions:
REMARK  status: ('A' for Active; 'I' for Inactive)
REMARK    1  A    between atoms: C_1  and  C_2
REMARK    2  A    between atoms: C_3  and  C_4
REMARK    3  A    between atoms: N_6  and  C_7
REMARK    4  A    between atoms: C_11  and  C_12
REMARK    5  A    between atoms: C_18  and  C_19
REMARK    6  A    between atoms: N_25  and  C_26
REMARK    7  A    between atoms: C_26  and  C_27
REMARK    8  A    between atoms: C_27  and  C_28
REMARK    9  A    between atoms: C_28  and  N_29
REMARK   10  A    between atoms: N_29  and  C_30
REMARK   11  A    between atoms: N_29  and  C_33
REMARK   12  A    between atoms: C_30  and  C_31
REMARK   13  A    between atoms: C_31  and  O_32
REMARK   14  A    between atoms: C_33  and  C_34
REMARK   15  A    between atoms: C_34  and  O_35
REMARK                            x       y       z     vdW  Elec       q    Type
REMARK                         _______ _______ _______ _____ _____    ______ ____
ROOT
ATOM      1  C   UNL     1       2.459   9.736  18.254  0.00  0.00    +0.000 C 
ATOM      2  C   UNL     1       1.880   8.681  19.154  0.00  0.00    +0.000 A 
ATOM      3  C   UNL     1       1.104   8.866  20.290  0.00  0.00    +0.000 A 
ATOM      4  C   UNL     1       0.908   7.562  20.831  0.00  0.00    +0.000 A 
ATOM      5  C   UNL     1       1.596   6.608  20.072  0.00  0.00    +0.000 A 
ATOM      6  N   UNL     1       2.089   7.317  18.967  0.00  0.00    +0.000 N 
ENDROOT
BRANCH   5   7
ATOM      7  C   UNL     1       1.695   5.134  20.343  0.00  0.00    +0.000 A 
ATOM      8  C   UNL     1       2.389   4.663  21.471  0.00  0.00    +0.000 A 
ATOM      9  C   UNL     1       2.373   3.307  21.838  0.00  0.00    +0.000 A 
ATOM     10  C   UNL     1       1.623   2.391  21.111  0.00  0.00    +0.000 A 
ATOM     11  C   UNL     1       0.984   2.814  19.956  0.00  0.00    +0.000 A 
ATOM     12  C   UNL     1       1.095   4.149  19.543  0.00  0.00    +0.000 A 
ENDBRANCH   5   7
BRANCH   3  13
ATOM     13  C   UNL     1       0.669  10.192  20.772  0.00  0.00    +0.000 C 
ATOM     14  O   UNL     1       1.240  10.754  21.706  0.00  0.00    +0.000 OA
ATOM     15  N   UNL     1      -0.437  10.744  20.147  0.00  0.00    +0.000 N 
ATOM     16  H   UNL     1      -1.064  10.105  19.680  0.00  0.00    +0.000 HD
BRANCH  15  17
ATOM     17  C   UNL     1      -0.930  12.018  20.514  0.00  0.00    +0.000 A 
ATOM     18  C   UNL     1      -1.886  12.098  21.524  0.00  0.00    +0.000 A 
ATOM     19  C   UNL     1      -2.316  13.347  21.982  0.00  0.00    +0.000 A 
ATOM     20  C   UNL     1      -1.855  14.516  21.377  0.00  0.00    +0.000 A 
ATOM     21  C   UNL     1      -0.951  14.455  20.303  0.00  0.00    +0.000 A 
ATOM     22  C   UNL     1      -0.476  13.188  19.895  0.00  0.00    +0.000 A 
BRANCH  21  23
ATOM     23  C   UNL     1      -0.498  15.702  19.592  0.00  0.00    +0.000 C 
ATOM     24  F   UNL     1      -1.272  16.796  19.860  0.00  0.00    +0.000 F 
ATOM     25  F   UNL     1       0.776  16.070  19.909  0.00  0.00    +0.000 F 
ATOM     26  F   UNL     1      -0.518  15.560  18.239  0.00  0.00    +0.000 F 
ENDBRANCH  21  23
ENDBRANCH  15  17
ENDBRANCH   3  13
BRANCH   6  27
ATOM     27  C   UNL     1       2.824   6.793  17.817  0.00  0.00    +0.000 C 
BRANCH  27  28
ATOM     28  C   UNL     1       4.002   5.857  18.100  0.00  0.00    +0.000 C 
BRANCH  28  29
ATOM     29  C   UNL     1       4.864   5.478  16.897  0.00  0.00    +0.000 C 
BRANCH  29  30
ATOM     30  N   UNL     1       6.258   5.107  17.299  0.00  0.00    +0.000 NA
BRANCH  30  31
ATOM     31  C   UNL     1       6.958   4.401  16.176  0.00  0.00    +0.000 C 
BRANCH  31  32
ATOM     32  C   UNL     1       6.716   4.902  14.735  0.00  0.00    +0.000 C 
BRANCH  32  33
ATOM     33  O   UNL     1       7.895   5.445  14.154  0.00  0.00    +0.000 OA
ATOM     34  H   UNL     1       7.637   5.794  13.282  0.00  0.00    +0.000 HD
ENDBRANCH  32  33
ENDBRANCH  31  32
ENDBRANCH  30  31
BRANCH  30  35
ATOM     35  C   UNL     1       7.014   6.326  17.683  0.00  0.00    +0.000 C 
BRANCH  35  36
ATOM     36  C   UNL     1       7.936   6.130  18.900  0.00  0.00    +0.000 C 
BRANCH  36  37
ATOM     37  O   UNL     1       7.227   5.485  19.955  0.00  0.00    +0.000 OA
ATOM     38  H   UNL     1       7.738   4.675  20.153  0.00  0.00    +0.000 HD
ENDBRANCH  36  37
ENDBRANCH  35  36
ENDBRANCH  30  35
ENDBRANCH  29  30
ENDBRANCH  28  29
ENDBRANCH  27  28
ENDBRANCH   6  27
TORSDOF 14
ENDMDL
MODEL 9
REMARK VINA RESULT:      -6.8      4.846      9.507
REMARK  Name = 
REMARK  15 active torsions:
REMARK  status: ('A' for Active; 'I' for Inactive)
REMARK    1  A    between atoms: C_1  and  C_2
REMARK    2  A    between atoms: C_3  and  C_4
REMARK    3  A    between atoms: N_6  and  C_7
REMARK    4  A    between atoms: C_11  and  C_12
REMARK    5  A    between atoms: C_18  and  C_19
REMARK    6  A    between atoms: N_25  and  C_26
REMARK    7  A    between atoms: C_26  and  C_27
REMARK    8  A    between atoms: C_27  and  C_28
REMARK    9  A    between atoms: C_28  and  N_29
REMARK   10  A    between atoms: N_29  and  C_30
REMARK   11  A    between atoms: N_29  and  C_33
REMARK   12  A    between atoms: C_30  and  C_31
REMARK   13  A    between atoms: C_31  and  O_32
REMARK   14  A    between atoms: C_33  and  C_34
REMARK   15  A    between atoms: C_34  and  O_35
REMARK                            x       y       z     vdW  Elec       q    Type
REMARK                         _______ _______ _______ _____ _____    ______ ____
ROOT
ATOM      1  C   UNL     1       2.547  11.905  17.997  0.00  0.00    +0.000 C 
ATOM      2  C   UNL     1       1.479  11.362  18.903  0.00  0.00    +0.000 A 
ATOM      3  C   UNL     1       1.073  10.041  19.041  0.00  0.00    +0.000 A 
ATOM      4  C   UNL     1      -0.031  10.077  19.941  0.00  0.00    +0.000 A 
ATOM      5  C   UNL     1      -0.329  11.397  20.301  0.00  0.00    +0.000 A 
ATOM      6  N   UNL     1       0.703  12.162  19.738  0.00  0.00    +0.000 N 
ENDROOT
BRANCH   5   7
ATOM      7  C   UNL     1      -1.454  11.866  21.177  0.00  0.00    +0.000 A 
ATOM      8  C   UNL     1      -1.438  11.602  22.558  0.00  0.00    +0.000 A 
ATOM      9  C   UNL     1      -2.393  12.155  23.429  0.00  0.00    +0.000 A 
ATOM     10  C   UNL     1      -3.362  13.025  22.948  0.00  0.00    +0.000 A 
ATOM     11  C   UNL     1      -3.442  13.251  21.583  0.00  0.00    +0.000 A 
ATOM     12  C   UNL     1      -2.551  12.609  20.713  0.00  0.00    +0.000 A 
ENDBRANCH   5   7
BRANCH   3  13
ATOM     13  C   UNL     1       1.700   8.916  18.319  0.00  0.00    +0.000 C 
ATOM     14  O   UNL     1       1.842   8.938  17.097  0.00  0.00    +0.000 OA
ATOM     15  N   UNL     1       2.079   7.825  19.083  0.00  0.00    +0.000 N 
ATOM     16  H   UNL     1       1.612   7.706  19.971  0.00  0.00    +0.000 HD
BRANCH  15  17
ATOM     17  C   UNL     1       2.706   6.700  18.500  0.00  0.00    +0.000 A 
ATOM     18  C   UNL     1       3.877   6.893  17.771  0.00  0.00    +0.000 A 
ATOM     19  C   UNL     1       4.578   5.792  17.270  0.00  0.00    +0.000 A 
ATOM     20  C   UNL     1       4.068   4.503  17.424  0.00  0.00    +0.000 A 
ATOM     21  C   UNL     1       2.847   4.293  18.087  0.00  0.00    +0.000 A 
ATOM     22  C   UNL     1       2.184   5.409  18.644  0.00  0.00    +0.000 A 
BRANCH  21  23
ATOM     23  C   UNL     1       2.246   2.918  18.200  0.00  0.00    +0.000 C 
ATOM     24  F   UNL     1       2.587   2.086  17.171  0.00  0.00    +0.000 F 
ATOM     25  F   UNL     1       2.614   2.261  19.338  0.00  0.00    +0.000 F 
ATOM     26  F   UNL     1       0.886   2.948  18.213  0.00  0.00    +0.000 F 
ENDBRANCH  21  23
ENDBRANCH  15  17
ENDBRANCH   3  13
BRANCH   6  27
ATOM     27  C   UNL     1       0.927  13.601  19.864  0.00  0.00    +0.000 C 
BRANCH  27  28
ATOM     28  C   UNL     1       1.482  14.114  21.195  0.00  0.00    +0.000 C 
BRANCH  28  29
ATOM     29  C   UNL     1       2.884  14.719  21.153  0.00  0.00    +0.000 C 
BRANCH  29  30
ATOM     30  N   UNL     1       3.201  15.313  19.815  0.00  0.00    +0.000 NA
BRANCH  30  31
ATOM     31  C   UNL     1       2.870  16.775  19.798  0.00  0.00    +0.000 C 
BRANCH  31  32
ATOM     32  C   UNL     1       1.790  17.269  18.810  0.00  0.00    +0.000 C 
BRANCH  32  33
ATOM     33  O   UNL     1       2.351  17.675  17.567  0.00  0.00    +0.000 OA
ATOM     34  H   UNL     1       3.117  17.095  17.407  0.00  0.00    +0.000 HD
ENDBRANCH  32  33
ENDBRANCH  31  32
ENDBRANCH  30  31
BRANCH  30  35
ATOM     35  C   UNL     1       4.639  15.114  19.501  0.00  0.00    +0.000 C 
BRANCH  35  36
ATOM     36  C   UNL     1       4.914  14.781  18.024  0.00  0.00    +0.000 C 
BRANCH  36  37
ATOM     37  O   UNL     1       3.763  15.066  17.232  0.00  0.00    +0.000 OA
ATOM     38  H   UNL     1       4.089  15.124  16.313  0.00  0.00    +0.000 HD
ENDBRANCH  36  37
ENDBRANCH  35  36
ENDBRANCH  30  35
ENDBRANCH  29  30
ENDBRANCH  28  29
ENDBRANCH  27  28
ENDBRANCH   6  27
TORSDOF 14
ENDMDL
