MODEL 1
REMARK VINA RESULT:      -8.3      0.000      0.000
REMARK  Name = 
REMARK  6 active torsions:
REMARK  status: ('A' for Active; 'I' for Inactive)
REMARK    1  A    between atoms: C_2  and  C_3
REMARK    2  A    between atoms: C_3  and  S_4
REMARK    3  A    between atoms: S_4  and  C_5
REMARK    4  A    between atoms: C_7  and  C_8
REMARK    5  A    between atoms: C_8  and  C_9
REMARK    6  A    between atoms: N_21  and  C_22
REMARK                            x       y       z     vdW  Elec       q    Type
REMARK                         _______ _______ _______ _____ _____    ______ ____
ROOT
ATOM      1  C   UNL     1       6.810   7.064  17.481  0.00  0.00    +0.000 A 
ATOM      2  N   UNL     1       5.572   6.746  17.352  0.00  0.00    +0.000 NA
ATOM      3  C   UNL     1       5.260   5.399  17.411  0.00  0.00    +0.000 A 
ATOM      4  C   UNL     1       6.189   4.446  17.597  0.00  0.00    +0.000 A 
ATOM      5  C   UNL     1       7.596   4.847  17.732  0.00  0.00    +0.000 A 
ATOM      6  O   UNL     1       8.487   4.024  17.892  0.00  0.00    +0.000 OA
ATOM      7  N   UNL     1       7.824   6.184  17.681  0.00  0.00    +0.000 N 
ATOM      8  H   UNL     1       8.776   6.505  17.761  0.00  0.00    +0.000 HD
ENDROOT
BRANCH   1   9
ATOM      9  S   UNL     1       7.355   8.715  17.384  0.00  0.00    +0.000 S 
BRANCH   9  10
ATOM     10  C   UNL     1       8.482   8.717  18.807  0.00  0.00    +0.000 C 
BRANCH  10  12
ATOM     11  O   UNL     1       9.490  10.371  20.195  0.00  0.00    +0.000 OA
ATOM     12  C   UNL     1       9.195  10.049  19.045  0.00  0.00    +0.000 C 
ATOM     13  N   UNL     1       9.435  10.819  17.923  0.00  0.00    +0.000 N 
ATOM     14  H   UNL     1       9.002  10.484  17.067  0.00  0.00    +0.000 HD
BRANCH  13  15
ATOM     15  C   UNL     1      10.105  12.060  17.857  0.00  0.00    +0.000 A 
ATOM     16  C   UNL     1      11.497  12.186  17.799  0.00  0.00    +0.000 A 
ATOM     17  C   UNL     1      12.098  13.449  17.768  0.00  0.00    +0.000 A 
ATOM     18  C   UNL     1      11.306  14.590  17.795  0.00  0.00    +0.000 A 
ATOM     19  F   UNL     1      11.902  15.792  17.789  0.00  0.00    +0.000 F 
ATOM     20  C   UNL     1       9.919  14.481  17.830  0.00  0.00    +0.000 A 
ATOM     21 CL   UNL     1       8.929  15.890  17.867  0.00  0.00    +0.000 Cl
ATOM     22  C   UNL     1       9.317  13.219  17.847  0.00  0.00    +0.000 A 
ENDBRANCH  13  15
ENDBRANCH  10  12
ENDBRANCH   9  10
ENDBRANCH   1   9
BRANCH   3  23
ATOM     23  C   UNL     1       3.781   5.042  17.347  0.00  0.00    +0.000 C 
BRANCH  23  24
ATOM     24  C   UNL     1       3.179   4.615  18.675  0.00  0.00    +0.000 A 
ATOM     25  C   UNL     1       2.690   5.561  19.601  0.00  0.00    +0.000 A 
ATOM     26 CL   UNL     1       2.657   7.259  19.265  0.00  0.00    +0.000 Cl
ATOM     27  C   UNL     1       2.174   5.168  20.844  0.00  0.00    +0.000 A 
ATOM     28  C   UNL     1       2.124   3.823  21.190  0.00  0.00    +0.000 A 
ATOM     29  C   UNL     1       2.576   2.870  20.285  0.00  0.00    +0.000 A 
ATOM     30  C   UNL     1       3.096   3.257  19.041  0.00  0.00    +0.000 A 
ATOM     31 CL   UNL     1       3.584   1.979  17.982  0.00  0.00    +0.000 Cl
ENDBRANCH  23  24
ENDBRANCH   3  23
TORSDOF 6
ENDMDL
MODEL 2
REMARK VINA RESULT:      -8.3      1.292      1.359
REMARK  Name = 
REMARK  6 active torsions:
REMARK  status: ('A' for Active; 'I' for Inactive)
REMARK    1  A    between atoms: C_2  and  C_3
REMARK    2  A    between atoms: C_3  and  S_4
REMARK    3  A    between atoms: S_4  and  C_5
REMARK    4  A    between atoms: C_7  and  C_8
REMARK    5  A    between atoms: C_8  and  C_9
REMARK    6  A    between atoms: N_21  and  C_22
REMARK                            x       y       z     vdW  Elec       q    Type
REMARK                         _______ _______ _______ _____ _____    ______ ____
ROOT
ATOM      1  C   UNL     1       6.600   5.823  17.609  0.00  0.00    +0.000 A 
ATOM      2  N   UNL     1       5.348   5.843  17.898  0.00  0.00    +0.000 NA
ATOM      3  C   UNL     1       4.498   5.136  17.066  0.00  0.00    +0.000 A 
ATOM      4  C   UNL     1       4.936   4.447  15.999  0.00  0.00    +0.000 A 
ATOM      5  C   UNL     1       6.373   4.454  15.692  0.00  0.00    +0.000 A 
ATOM      6  O   UNL     1       6.828   3.855  14.727  0.00  0.00    +0.000 OA
ATOM      7  N   UNL     1       7.146   5.154  16.561  0.00  0.00    +0.000 N 
ATOM      8  H   UNL     1       8.138   5.193  16.386  0.00  0.00    +0.000 HD
ENDROOT
BRANCH   1   9
ATOM      9  S   UNL     1       7.778   6.701  18.541  0.00  0.00    +0.000 S 
BRANCH   9  10
ATOM     10  C   UNL     1       7.716   8.281  17.647  0.00  0.00    +0.000 C 
BRANCH  10  12
ATOM     11  O   UNL     1       9.100   9.189  19.360  0.00  0.00    +0.000 OA
ATOM     12  C   UNL     1       8.544   9.398  18.282  0.00  0.00    +0.000 C 
ATOM     13  N   UNL     1       8.583  10.594  17.592  0.00  0.00    +0.000 N 
ATOM     14  H   UNL     1       7.956  10.655  16.795  0.00  0.00    +0.000 HD
BRANCH  13  15
ATOM     15  C   UNL     1       9.299  11.762  17.932  0.00  0.00    +0.000 A 
ATOM     16  C   UNL     1      10.670  11.776  18.211  0.00  0.00    +0.000 A 
ATOM     17  C   UNL     1      11.311  12.966  18.573  0.00  0.00    +0.000 A 
ATOM     18  C   UNL     1      10.582  14.145  18.660  0.00  0.00    +0.000 A 
ATOM     19  F   UNL     1      11.210  15.270  19.032  0.00  0.00    +0.000 F 
ATOM     20  C   UNL     1       9.222  14.150  18.364  0.00  0.00    +0.000 A 
ATOM     21 CL   UNL     1       8.307  15.606  18.470  0.00  0.00    +0.000 Cl
ATOM     22  C   UNL     1       8.582  12.965  17.988  0.00  0.00    +0.000 A 
ENDBRANCH  13  15
ENDBRANCH  10  12
ENDBRANCH   9  10
ENDBRANCH   1   9
BRANCH   3  23
ATOM     23  C   UNL     1       3.031   5.094  17.472  0.00  0.00    +0.000 C 
BRANCH  23  24
ATOM     24  C   UNL     1       2.773   4.471  18.833  0.00  0.00    +0.000 A 
ATOM     25  C   UNL     1       2.475   5.265  19.962  0.00  0.00    +0.000 A 
ATOM     26 CL   UNL     1       2.298   6.984  19.869  0.00  0.00    +0.000 Cl
ATOM     27  C   UNL     1       2.279   4.691  21.226  0.00  0.00    +0.000 A 
ATOM     28  C   UNL     1       2.365   3.314  21.395  0.00  0.00    +0.000 A 
ATOM     29  C   UNL     1       2.631   2.509  20.293  0.00  0.00    +0.000 A 
ATOM     30  C   UNL     1       2.831   3.077  19.026  0.00  0.00    +0.000 A 
ATOM     31 CL   UNL     1       3.109   1.971  17.725  0.00  0.00    +0.000 Cl
ENDBRANCH  23  24
ENDBRANCH   3  23
TORSDOF 6
ENDMDL
MODEL 3
REMARK VINA RESULT:      -8.2      1.083      1.131
REMARK  Name = 
REMARK  6 active torsions:
REMARK  status: ('A' for Active; 'I' for Inactive)
REMARK    1  A    between atoms: C_2  and  C_3
REMARK    2  A    between atoms: C_3  and  S_4
REMARK    3  A    between atoms: S_4  and  C_5
REMARK    4  A    between atoms: C_7  and  C_8
REMARK    5  A    between atoms: C_8  and  C_9
REMARK    6  A    between atoms: N_21  and  C_22
REMARK                            x       y       z     vdW  Elec       q    Type
REMARK                         _______ _______ _______ _____ _____    ______ ____
ROOT
ATOM      1  C   UNL     1       7.395   7.650  17.890  0.00  0.00    +0.000 A 
ATOM      2  N   UNL     1       6.302   7.223  17.366  0.00  0.00    +0.000 NA
ATOM      3  C   UNL     1       5.863   5.971  17.760  0.00  0.00    +0.000 A 
ATOM      4  C   UNL     1       6.527   5.216  18.651  0.00  0.00    +0.000 A 
ATOM      5  C   UNL     1       7.778   5.732  19.222  0.00  0.00    +0.000 A 
ATOM      6  O   UNL     1       8.432   5.085  20.029  0.00  0.00    +0.000 OA
ATOM      7  N   UNL     1       8.138   6.972  18.803  0.00  0.00    +0.000 N 
ATOM      8  H   UNL     1       8.993   7.364  19.163  0.00  0.00    +0.000 HD
ENDROOT
BRANCH   1   9
ATOM      9  S   UNL     1       8.090   9.186  17.457  0.00  0.00    +0.000 S 
BRANCH   9  10
ATOM     10  C   UNL     1       8.902   9.576  19.033  0.00  0.00    +0.000 C 
BRANCH  10  12
ATOM     11  O   UNL     1      10.414  11.150  19.988  0.00  0.00    +0.000 OA
ATOM     12  C   UNL     1       9.687  10.888  19.030  0.00  0.00    +0.000 C 
ATOM     13  N   UNL     1       9.494  11.710  17.936  0.00  0.00    +0.000 N 
ATOM     14  H   UNL     1       8.754  11.421  17.302  0.00  0.00    +0.000 HD
BRANCH  13  15
ATOM     15  C   UNL     1      10.120  12.946  17.667  0.00  0.00    +0.000 A 
ATOM     16  C   UNL     1      11.419  13.062  17.161  0.00  0.00    +0.000 A 
ATOM     17  C   UNL     1      11.991  14.321  16.946  0.00  0.00    +0.000 A 
ATOM     18  C   UNL     1      11.265  15.468  17.239  0.00  0.00    +0.000 A 
ATOM     19  F   UNL     1      11.839  16.664  17.050  0.00  0.00    +0.000 F 
ATOM     20  C   UNL     1       9.963  15.369  17.722  0.00  0.00    +0.000 A 
ATOM     21 CL   UNL     1       9.054  16.785  18.091  0.00  0.00    +0.000 Cl
ATOM     22  C   UNL     1       9.385  14.112  17.923  0.00  0.00    +0.000 A 
ENDBRANCH  13  15
ENDBRANCH  10  12
ENDBRANCH   9  10
ENDBRANCH   1   9
BRANCH   3  23
ATOM     23  C   UNL     1       4.521   5.517  17.201  0.00  0.00    +0.000 C 
BRANCH  23  24
ATOM     24  C   UNL     1       3.476   5.197  18.255  0.00  0.00    +0.000 A 
ATOM     25  C   UNL     1       2.721   6.214  18.878  0.00  0.00    +0.000 A 
ATOM     26 CL   UNL     1       2.863   7.880  18.433  0.00  0.00    +0.000 Cl
ATOM     27  C   UNL     1       1.787   5.920  19.882  0.00  0.00    +0.000 A 
ATOM     28  C   UNL     1       1.576   4.606  20.283  0.00  0.00    +0.000 A 
ATOM     29  C   UNL     1       2.288   3.584  19.666  0.00  0.00    +0.000 A 
ATOM     30  C   UNL     1       3.225   3.872  18.663  0.00  0.00    +0.000 A 
ATOM     31 CL   UNL     1       4.015   2.513  17.940  0.00  0.00    +0.000 Cl
ENDBRANCH  23  24
ENDBRANCH   3  23
TORSDOF 6
ENDMDL
MODEL 4
REMARK VINA RESULT:      -8.0      1.062      2.025
REMARK  Name = 
REMARK  6 active torsions:
REMARK  status: ('A' for Active; 'I' for Inactive)
REMARK    1  A    between atoms: C_2  and  C_3
REMARK    2  A    between atoms: C_3  and  S_4
REMARK    3  A    between atoms: S_4  and  C_5
REMARK    4  A    between atoms: C_7  and  C_8
REMARK    5  A    between atoms: C_8  and  C_9
REMARK    6  A    between atoms: N_21  and  C_22
REMARK                            x       y       z     vdW  Elec       q    Type
REMARK                         _______ _______ _______ _____ _____    ______ ____
ROOT
ATOM      1  C   UNL     1       7.378   7.611  17.890  0.00  0.00    +0.000 A 
ATOM      2  N   UNL     1       6.328   7.132  17.324  0.00  0.00    +0.000 NA
ATOM      3  C   UNL     1       5.947   5.851  17.685  0.00  0.00    +0.000 A 
ATOM      4  C   UNL     1       6.624   5.121  18.587  0.00  0.00    +0.000 A 
ATOM      5  C   UNL     1       7.825   5.697  19.207  0.00  0.00    +0.000 A 
ATOM      6  O   UNL     1       8.489   5.075  20.025  0.00  0.00    +0.000 OA
ATOM      7  N   UNL     1       8.128   6.962  18.817  0.00  0.00    +0.000 N 
ATOM      8  H   UNL     1       8.948   7.395  19.210  0.00  0.00    +0.000 HD
ENDROOT
BRANCH   1   9
ATOM      9  S   UNL     1       7.998   9.190  17.501  0.00  0.00    +0.000 S 
BRANCH   9  10
ATOM     10  C   UNL     1       8.964   9.486  19.009  0.00  0.00    +0.000 C 
BRANCH  10  12
ATOM     11  O   UNL     1      10.039  11.277  20.156  0.00  0.00    +0.000 OA
ATOM     12  C   UNL     1       9.629  10.862  19.072  0.00  0.00    +0.000 C 
ATOM     13  N   UNL     1       9.696  11.560  17.882  0.00  0.00    +0.000 N 
ATOM     14  H   UNL     1       9.185  11.146  17.107  0.00  0.00    +0.000 HD
BRANCH  13  15
ATOM     15  C   UNL     1      10.288  12.821  17.656  0.00  0.00    +0.000 A 
ATOM     16  C   UNL     1      11.600  12.990  17.200  0.00  0.00    +0.000 A 
ATOM     17  C   UNL     1      12.136  14.271  17.027  0.00  0.00    +0.000 A 
ATOM     18  C   UNL     1      11.360  15.387  17.311  0.00  0.00    +0.000 A 
ATOM     19  F   UNL     1      11.899  16.606  17.162  0.00  0.00    +0.000 F 
ATOM     20  C   UNL     1      10.046  15.236  17.744  0.00  0.00    +0.000 A 
ATOM     21 CL   UNL     1       9.076  16.614  18.102  0.00  0.00    +0.000 Cl
ATOM     22  C   UNL     1       9.505  13.957  17.904  0.00  0.00    +0.000 A 
ENDBRANCH  13  15
ENDBRANCH  10  12
ENDBRANCH   9  10
ENDBRANCH   1   9
BRANCH   3  23
ATOM     23  C   UNL     1       4.652   5.332  17.076  0.00  0.00    +0.000 C 
BRANCH  23  24
ATOM     24  C   UNL     1       3.559   5.030  18.086  0.00  0.00    +0.000 A 
ATOM     25  C   UNL     1       3.260   3.707  18.476  0.00  0.00    +0.000 A 
ATOM     26 CL   UNL     1       4.161   2.344  17.905  0.00  0.00    +0.000 Cl
ATOM     27  C   UNL     1       2.222   3.428  19.376  0.00  0.00    +0.000 A 
ATOM     28  C   UNL     1       1.464   4.459  19.917  0.00  0.00    +0.000 A 
ATOM     29  C   UNL     1       1.756   5.773  19.570  0.00  0.00    +0.000 A 
ATOM     30  C   UNL     1       2.792   6.059  18.668  0.00  0.00    +0.000 A 
ATOM     31 CL   UNL     1       3.089   7.733  18.348  0.00  0.00    +0.000 Cl
ENDBRANCH  23  24
ENDBRANCH   3  23
TORSDOF 6
ENDMDL
MODEL 5
REMARK VINA RESULT:      -8.0      6.077      7.230
REMARK  Name = 
REMARK  6 active torsions:
REMARK  status: ('A' for Active; 'I' for Inactive)
REMARK    1  A    between atoms: C_2  and  C_3
REMARK    2  A    between atoms: C_3  and  S_4
REMARK    3  A    between atoms: S_4  and  C_5
REMARK    4  A    between atoms: C_7  and  C_8
REMARK    5  A    between atoms: C_8  and  C_9
REMARK    6  A    between atoms: N_21  and  C_22
REMARK                            x       y       z     vdW  Elec       q    Type
REMARK                         _______ _______ _______ _____ _____    ______ ____
ROOT
ATOM      1  C   UNL     1       4.964   6.138  17.254  0.00  0.00    +0.000 A 
ATOM      2  N   UNL     1       4.167   5.167  17.525  0.00  0.00    +0.000 NA
ATOM      3  C   UNL     1       4.614   3.889  17.240  0.00  0.00    +0.000 A 
ATOM      4  C   UNL     1       5.823   3.644  16.708  0.00  0.00    +0.000 A 
ATOM      5  C   UNL     1       6.705   4.780  16.403  0.00  0.00    +0.000 A 
ATOM      6  O   UNL     1       7.812   4.620  15.908  0.00  0.00    +0.000 OA
ATOM      7  N   UNL     1       6.207   6.001  16.725  0.00  0.00    +0.000 N 
ATOM      8  H   UNL     1       6.774   6.810  16.526  0.00  0.00    +0.000 HD
ENDROOT
BRANCH   1   9
ATOM      9  S   UNL     1       4.519   7.800  17.518  0.00  0.00    +0.000 S 
BRANCH   9  10
ATOM     10  C   UNL     1       2.719   7.589  17.627  0.00  0.00    +0.000 C 
BRANCH  10  12
ATOM     11  O   UNL     1       2.391   7.052  19.925  0.00  0.00    +0.000 OA
ATOM     12  C   UNL     1       2.137   7.844  19.018  0.00  0.00    +0.000 C 
ATOM     13  N   UNL     1       1.329   8.958  19.145  0.00  0.00    +0.000 N 
ATOM     14  H   UNL     1       1.099   9.427  18.273  0.00  0.00    +0.000 HD
BRANCH  13  15
ATOM     15  C   UNL     1       0.704   9.440  20.315  0.00  0.00    +0.000 A 
ATOM     16  C   UNL     1       0.239   8.611  21.342  0.00  0.00    +0.000 A 
ATOM     17  C   UNL     1      -0.401   9.154  22.461  0.00  0.00    +0.000 A 
ATOM     18  C   UNL     1      -0.578  10.529  22.555  0.00  0.00    +0.000 A 
ATOM     19  F   UNL     1      -1.215  11.028  23.625  0.00  0.00    +0.000 F 
ATOM     20  C   UNL     1      -0.101  11.367  21.553  0.00  0.00    +0.000 A 
ATOM     21 CL   UNL     1      -0.318  13.073  21.659  0.00  0.00    +0.000 Cl
ATOM     22  C   UNL     1       0.551  10.827  20.440  0.00  0.00    +0.000 A 
ENDBRANCH  13  15
ENDBRANCH  10  12
ENDBRANCH   9  10
ENDBRANCH   1   9
BRANCH   3  23
ATOM     23  C   UNL     1       3.697   2.743  17.648  0.00  0.00    +0.000 C 
BRANCH  23  24
ATOM     24  C   UNL     1       2.910   2.992  18.924  0.00  0.00    +0.000 A 
ATOM     25  C   UNL     1       3.381   2.550  20.178  0.00  0.00    +0.000 A 
ATOM     26 CL   UNL     1       4.916   1.774  20.374  0.00  0.00    +0.000 Cl
ATOM     27  C   UNL     1       2.634   2.744  21.349  0.00  0.00    +0.000 A 
ATOM     28  C   UNL     1       1.404   3.390  21.299  0.00  0.00    +0.000 A 
ATOM     29  C   UNL     1       0.931   3.858  20.078  0.00  0.00    +0.000 A 
ATOM     30  C   UNL     1       1.673   3.666  18.904  0.00  0.00    +0.000 A 
ATOM     31 CL   UNL     1       1.002   4.332  17.455  0.00  0.00    +0.000 Cl
ENDBRANCH  23  24
ENDBRANCH   3  23
TORSDOF 6
ENDMDL
MODEL 6
REMARK VINA RESULT:      -7.8      1.841      2.718
REMARK  Name = 
REMARK  6 active torsions:
REMARK  status: ('A' for Active; 'I' for Inactive)
REMARK    1  A    between atoms: C_2  and  C_3
REMARK    2  A    between atoms: C_3  and  S_4
REMARK    3  A    between atoms: S_4  and  C_5
REMARK    4  A    between atoms: C_7  and  C_8
REMARK    5  A    between atoms: C_8  and  C_9
REMARK    6  A    between atoms: N_21  and  C_22
REMARK                            x       y       z     vdW  Elec       q    Type
REMARK                         _______ _______ _______ _____ _____    ______ ____
ROOT
ATOM      1  C   UNL     1       8.020   8.292  17.979  0.00  0.00    +0.000 A 
ATOM      2  N   UNL     1       7.029   8.046  17.199  0.00  0.00    +0.000 NA
ATOM      3  C   UNL     1       6.431   6.803  17.314  0.00  0.00    +0.000 A 
ATOM      4  C   UNL     1       6.846   5.878  18.195  0.00  0.00    +0.000 A 
ATOM      5  C   UNL     1       7.988   6.190  19.065  0.00  0.00    +0.000 A 
ATOM      6  O   UNL     1       8.417   5.383  19.878  0.00  0.00    +0.000 OA
ATOM      7  N   UNL     1       8.512   7.433  18.908  0.00  0.00    +0.000 N 
ATOM      8  H   UNL     1       9.302   7.688  19.478  0.00  0.00    +0.000 HD
ENDROOT
BRANCH   1   9
ATOM      9  S   UNL     1       8.895   9.796  17.916  0.00  0.00    +0.000 S 
BRANCH   9  10
ATOM     10  C   UNL     1       9.070  10.088  19.700  0.00  0.00    +0.000 C 
BRANCH  10  12
ATOM     11  O   UNL     1       9.810  11.742  21.247  0.00  0.00    +0.000 OA
ATOM     12  C   UNL     1       9.641  11.460  20.061  0.00  0.00    +0.000 C 
ATOM     13  N   UNL     1       9.904  12.307  19.002  0.00  0.00    +0.000 N 
ATOM     14  H   UNL     1       9.575  11.984  18.096  0.00  0.00    +0.000 HD
BRANCH  13  15
ATOM     15  C   UNL     1      10.466  13.601  19.053  0.00  0.00    +0.000 A 
ATOM     16  C   UNL     1      11.842  13.850  19.009  0.00  0.00    +0.000 A 
ATOM     17  C   UNL     1      12.333  15.157  19.097  0.00  0.00    +0.000 A 
ATOM     18  C   UNL     1      11.448  16.219  19.230  0.00  0.00    +0.000 A 
ATOM     19  F   UNL     1      11.940  17.462  19.336  0.00  0.00    +0.000 F 
ATOM     20  C   UNL     1      10.076  15.989  19.252  0.00  0.00    +0.000 A 
ATOM     21 CL   UNL     1       8.970  17.299  19.420  0.00  0.00    +0.000 Cl
ATOM     22  C   UNL     1       9.583  14.685  19.151  0.00  0.00    +0.000 A 
ENDBRANCH  13  15
ENDBRANCH  10  12
ENDBRANCH   9  10
ENDBRANCH   1   9
BRANCH   3  23
ATOM     23  C   UNL     1       5.203   6.560  16.448  0.00  0.00    +0.000 C 
BRANCH  23  24
ATOM     24  C   UNL     1       4.232   5.534  17.009  0.00  0.00    +0.000 A 
ATOM     25  C   UNL     1       4.361   4.160  16.715  0.00  0.00    +0.000 A 
ATOM     26 CL   UNL     1       5.669   3.529  15.774  0.00  0.00    +0.000 Cl
ATOM     27  C   UNL     1       3.439   3.220  17.199  0.00  0.00    +0.000 A 
ATOM     28  C   UNL     1       2.373   3.625  17.994  0.00  0.00    +0.000 A 
ATOM     29  C   UNL     1       2.240   4.971  18.319  0.00  0.00    +0.000 A 
ATOM     30  C   UNL     1       3.157   5.915  17.836  0.00  0.00    +0.000 A 
ATOM     31 CL   UNL     1       2.913   7.551  18.346  0.00  0.00    +0.000 Cl
ENDBRANCH  23  24
ENDBRANCH   3  23
TORSDOF 6
ENDMDL
MODEL 7
REMARK VINA RESULT:      -7.7      6.109      7.174
REMARK  Name = 
REMARK  6 active torsions:
REMARK  status: ('A' for Active; 'I' for Inactive)
REMARK    1  A    between atoms: C_2  and  C_3
REMARK    2  A    between atoms: C_3  and  S_4
REMARK    3  A    between atoms: S_4  and  C_5
REMARK    4  A    between atoms: C_7  and  C_8
REMARK    5  A    between atoms: C_8  and  C_9
REMARK    6  A    between atoms: N_21  and  C_22
REMARK                            x       y       z     vdW  Elec       q    Type
REMARK                         _______ _______ _______ _____ _____    ______ ____
ROOT
ATOM      1  C   UNL     1       4.972   6.156  17.236  0.00  0.00    +0.000 A 
ATOM      2  N   UNL     1       4.188   5.174  17.507  0.00  0.00    +0.000 NA
ATOM      3  C   UNL     1       4.635   3.905  17.184  0.00  0.00    +0.000 A 
ATOM      4  C   UNL     1       5.831   3.680  16.615  0.00  0.00    +0.000 A 
ATOM      5  C   UNL     1       6.696   4.827  16.310  0.00  0.00    +0.000 A 
ATOM      6  O   UNL     1       7.791   4.685  15.782  0.00  0.00    +0.000 OA
ATOM      7  N   UNL     1       6.200   6.038  16.670  0.00  0.00    +0.000 N 
ATOM      8  H   UNL     1       6.757   6.855  16.473  0.00  0.00    +0.000 HD
ENDROOT
BRANCH   1   9
ATOM      9  S   UNL     1       4.524   7.809  17.546  0.00  0.00    +0.000 S 
BRANCH   9  10
ATOM     10  C   UNL     1       2.724   7.592  17.651  0.00  0.00    +0.000 C 
BRANCH  10  12
ATOM     11  O   UNL     1       2.394   7.092  19.957  0.00  0.00    +0.000 OA
ATOM     12  C   UNL     1       2.136   7.866  19.036  0.00  0.00    +0.000 C 
ATOM     13  N   UNL     1       1.317   8.974  19.141  0.00  0.00    +0.000 N 
ATOM     14  H   UNL     1       1.086   9.427  18.261  0.00  0.00    +0.000 HD
BRANCH  13  15
ATOM     15  C   UNL     1       0.685   9.471  20.301  0.00  0.00    +0.000 A 
ATOM     16  C   UNL     1       0.468   8.706  21.452  0.00  0.00    +0.000 A 
ATOM     17  C   UNL     1      -0.196   9.252  22.556  0.00  0.00    +0.000 A 
ATOM     18  C   UNL     1      -0.645  10.565  22.511  0.00  0.00    +0.000 A 
ATOM     19  F   UNL     1      -1.300  11.063  23.570  0.00  0.00    +0.000 F 
ATOM     20  C   UNL     1      -0.417  11.346  21.381  0.00  0.00    +0.000 A 
ATOM     21 CL   UNL     1      -0.973  12.975  21.313  0.00  0.00    +0.000 Cl
ATOM     22  C   UNL     1       0.258  10.806  20.282  0.00  0.00    +0.000 A 
ENDBRANCH  13  15
ENDBRANCH  10  12
ENDBRANCH   9  10
ENDBRANCH   1   9
BRANCH   3  23
ATOM     23  C   UNL     1       3.736   2.746  17.593  0.00  0.00    +0.000 C 
BRANCH  23  24
ATOM     24  C   UNL     1       2.941   2.985  18.865  0.00  0.00    +0.000 A 
ATOM     25  C   UNL     1       1.702   3.659  18.844  0.00  0.00    +0.000 A 
ATOM     26 CL   UNL     1       0.955   4.185  17.374  0.00  0.00    +0.000 Cl
ATOM     27  C   UNL     1       0.989   3.916  20.024  0.00  0.00    +0.000 A 
ATOM     28  C   UNL     1       1.490   3.500  21.252  0.00  0.00    +0.000 A 
ATOM     29  C   UNL     1       2.697   2.811  21.297  0.00  0.00    +0.000 A 
ATOM     30  C   UNL     1       3.415   2.553  20.120  0.00  0.00    +0.000 A 
ATOM     31 CL   UNL     1       4.879   1.648  20.298  0.00  0.00    +0.000 Cl
ENDBRANCH  23  24
ENDBRANCH   3  23
TORSDOF 6
ENDMDL
MODEL 8
REMARK VINA RESULT:      -7.7      6.085      6.890
REMARK  Name = 
REMARK  6 active torsions:
REMARK  status: ('A' for Active; 'I' for Inactive)
REMARK    1  A    between atoms: C_2  and  C_3
REMARK    2  A    between atoms: C_3  and  S_4
REMARK    3  A    between atoms: S_4  and  C_5
REMARK    4  A    between atoms: C_7  and  C_8
REMARK    5  A    between atoms: C_8  and  C_9
REMARK    6  A    between atoms: N_21  and  C_22
REMARK                            x       y       z     vdW  Elec       q    Type
REMARK                         _______ _______ _______ _____ _____    ______ ____
ROOT
ATOM      1  C   UNL     1       4.541   6.127  17.113  0.00  0.00    +0.000 A 
ATOM      2  N   UNL     1       3.914   5.074  17.499  0.00  0.00    +0.000 NA
ATOM      3  C   UNL     1       4.474   3.852  17.170  0.00  0.00    +0.000 A 
ATOM      4  C   UNL     1       5.623   3.742  16.483  0.00  0.00    +0.000 A 
ATOM      5  C   UNL     1       6.309   4.968  16.050  0.00  0.00    +0.000 A 
ATOM      6  O   UNL     1       7.352   4.930  15.412  0.00  0.00    +0.000 OA
ATOM      7  N   UNL     1       5.710   6.128  16.423  0.00  0.00    +0.000 N 
ATOM      8  H   UNL     1       6.141   6.994  16.141  0.00  0.00    +0.000 HD
ENDROOT
BRANCH   1   9
ATOM      9  S   UNL     1       3.932   7.729  17.417  0.00  0.00    +0.000 S 
BRANCH   9  10
ATOM     10  C   UNL     1       2.552   7.296  18.514  0.00  0.00    +0.000 C 
BRANCH  10  12
ATOM     11  O   UNL     1       1.489   8.478  20.288  0.00  0.00    +0.000 OA
ATOM     12  C   UNL     1       1.811   8.498  19.101  0.00  0.00    +0.000 C 
ATOM     13  N   UNL     1       1.530   9.527  18.223  0.00  0.00    +0.000 N 
ATOM     14  H   UNL     1       1.732   9.330  17.246  0.00  0.00    +0.000 HD
BRANCH  13  15
ATOM     15  C   UNL     1       0.899  10.756  18.510  0.00  0.00    +0.000 A 
ATOM     16  C   UNL     1       1.594  11.948  18.742  0.00  0.00    +0.000 A 
ATOM     17  C   UNL     1       0.905  13.126  19.053  0.00  0.00    +0.000 A 
ATOM     18  C   UNL     1      -0.481  13.113  19.135  0.00  0.00    +0.000 A 
ATOM     19  F   UNL     1      -1.121  14.247  19.458  0.00  0.00    +0.000 F 
ATOM     20  C   UNL     1      -1.187  11.940  18.885  0.00  0.00    +0.000 A 
ATOM     21 CL   UNL     1      -2.907  11.914  18.986  0.00  0.00    +0.000 Cl
ATOM     22  C   UNL     1      -0.502  10.766  18.560  0.00  0.00    +0.000 A 
ENDBRANCH  13  15
ENDBRANCH  10  12
ENDBRANCH   9  10
ENDBRANCH   1   9
BRANCH   3  23
ATOM     23  C   UNL     1       3.768   2.615  17.710  0.00  0.00    +0.000 C 
BRANCH  23  24
ATOM     24  C   UNL     1       2.938   2.860  18.958  0.00  0.00    +0.000 A 
ATOM     25  C   UNL     1       3.403   2.486  20.238  0.00  0.00    +0.000 A 
ATOM     26 CL   UNL     1       4.973   1.805  20.493  0.00  0.00    +0.000 Cl
ATOM     27  C   UNL     1       2.617   2.674  21.384  0.00  0.00    +0.000 A 
ATOM     28  C   UNL     1       1.355   3.247  21.285  0.00  0.00    +0.000 A 
ATOM     29  C   UNL     1       0.886   3.648  20.039  0.00  0.00    +0.000 A 
ATOM     30  C   UNL     1       1.666   3.461  18.889  0.00  0.00    +0.000 A 
ATOM     31 CL   UNL     1       0.994   4.041  17.404  0.00  0.00    +0.000 Cl
ENDBRANCH  23  24
ENDBRANCH   3  23
TORSDOF 6
ENDMDL
MODEL 9
REMARK VINA RESULT:      -7.7      6.256      7.214
REMARK  Name = 
REMARK  6 active torsions:
REMARK  status: ('A' for Active; 'I' for Inactive)
REMARK    1  A    between atoms: C_2  and  C_3
REMARK    2  A    between atoms: C_3  and  S_4
REMARK    3  A    between atoms: S_4  and  C_5
REMARK    4  A    between atoms: C_7  and  C_8
REMARK    5  A    between atoms: C_8  and  C_9
REMARK    6  A    between atoms: N_21  and  C_22
REMARK                            x       y       z     vdW  Elec       q    Type
REMARK                         _______ _______ _______ _____ _____    ______ ____
ROOT
ATOM      1  C   UNL     1       4.924   6.150  17.065  0.00  0.00    +0.000 A 
ATOM      2  N   UNL     1       4.215   5.149  17.447  0.00  0.00    +0.000 NA
ATOM      3  C   UNL     1       4.594   3.899  16.989  0.00  0.00    +0.000 A 
ATOM      4  C   UNL     1       5.654   3.711  16.185  0.00  0.00    +0.000 A 
ATOM      5  C   UNL     1       6.436   4.881  15.762  0.00  0.00    +0.000 A 
ATOM      6  O   UNL     1       7.404   4.773  15.021  0.00  0.00    +0.000 OA
ATOM      7  N   UNL     1       6.016   6.070  16.263  0.00  0.00    +0.000 N 
ATOM      8  H   UNL     1       6.518   6.901  15.993  0.00  0.00    +0.000 HD
ENDROOT
BRANCH   1   9
ATOM      9  S   UNL     1       4.539   7.784  17.527  0.00  0.00    +0.000 S 
BRANCH   9  10
ATOM     10  C   UNL     1       2.829   7.520  18.076  0.00  0.00    +0.000 C 
BRANCH  10  12
ATOM     11  O   UNL     1       2.047   9.654  17.364  0.00  0.00    +0.000 OA
ATOM     12  C   UNL     1       2.018   8.804  18.253  0.00  0.00    +0.000 C 
ATOM     13  N   UNL     1       1.321   8.925  19.439  0.00  0.00    +0.000 N 
ATOM     14  H   UNL     1       1.516   8.206  20.132  0.00  0.00    +0.000 HD
BRANCH  13  15
ATOM     15  C   UNL     1       0.471   9.980  19.835  0.00  0.00    +0.000 A 
ATOM     16  C   UNL     1       0.662  10.733  20.999  0.00  0.00    +0.000 A 
ATOM     17  C   UNL     1      -0.238  11.745  21.349  0.00  0.00    +0.000 A 
ATOM     18  C   UNL     1      -1.334  12.006  20.536  0.00  0.00    +0.000 A 
ATOM     19  F   UNL     1      -2.198  12.964  20.901  0.00  0.00    +0.000 F 
ATOM     20  C   UNL     1      -1.525  11.280  19.364  0.00  0.00    +0.000 A 
ATOM     21 CL   UNL     1      -2.881  11.594  18.349  0.00  0.00    +0.000 Cl
ATOM     22  C   UNL     1      -0.618  10.278  19.005  0.00  0.00    +0.000 A 
ENDBRANCH  13  15
ENDBRANCH  10  12
ENDBRANCH   9  10
ENDBRANCH   1   9
BRANCH   3  23
ATOM     23  C   UNL     1       3.801   2.713  17.521  0.00  0.00    +0.000 C 
BRANCH  23  24
ATOM     24  C   UNL     1       3.013   3.000  18.788  0.00  0.00    +0.000 A 
ATOM     25  C   UNL     1       1.786   3.697  18.751  0.00  0.00    +0.000 A 
ATOM     26 CL   UNL     1       1.048   4.200  17.268  0.00  0.00    +0.000 Cl
ATOM     27  C   UNL     1       1.082   3.999  19.925  0.00  0.00    +0.000 A 
ATOM     28  C   UNL     1       1.577   3.605  21.162  0.00  0.00    +0.000 A 
ATOM     29  C   UNL     1       2.770   2.894  21.223  0.00  0.00    +0.000 A 
ATOM     30  C   UNL     1       3.480   2.591  20.052  0.00  0.00    +0.000 A 
ATOM     31 CL   UNL     1       4.927   1.663  20.252  0.00  0.00    +0.000 Cl
ENDBRANCH  23  24
ENDBRANCH   3  23
TORSDOF 6
ENDMDL
