MODEL 1
REMARK VINA RESULT:      -8.4      0.000      0.000
REMARK  Name = 
REMARK  6 active torsions:
REMARK  status: ('A' for Active; 'I' for Inactive)
REMARK    1  A    between atoms: C_1  and  N_2
REMARK    2  A    between atoms: N_2  and  C_3
REMARK    3  A    between atoms: C_4  and  C_6
REMARK    4  A    between atoms: C_10  and  C_11
REMARK    5  A    between atoms: C_17  and  C_18
REMARK    6  A    between atoms: C_18  and  N_19
REMARK                            x       y       z     vdW  Elec       q    Type
REMARK                         _______ _______ _______ _____ _____    ______ ____
ROOT
ATOM      1  C   UNL     1       1.761   7.704  20.237  0.00  0.00    +0.000 A 
ATOM      2  N   UNL     1       1.666   8.537  19.179  0.00  0.00    +0.000 NA
ATOM      3  C   UNL     1       1.027   9.712  19.320  0.00  0.00    +0.000 A 
ATOM      4  N   UNL     1       0.952  10.522  18.196  0.00  0.00    +0.000 N 
ATOM      5  C   UNL     1       0.450  10.026  20.562  0.00  0.00    +0.000 A 
ATOM      6  C   UNL     1      -0.438  11.059  21.019  0.00  0.00    +0.000 A 
ATOM      7  C   UNL     1      -0.840  10.866  22.331  0.00  0.00    +0.000 A 
ATOM      8  S   UNL     1       0.082   9.632  23.082  0.00  0.00    +0.000 S 
ATOM      9  C   UNL     1       0.715   9.133  21.586  0.00  0.00    +0.000 A 
ATOM     10  N   UNL     1       1.372   7.972  21.491  0.00  0.00    +0.000 NA
ATOM     11  H   UNL     1       1.634  10.237  17.502  0.00  0.00    +0.000 HD
ATOM     12  H   UNL     1       0.901  11.514  18.385  0.00  0.00    +0.000 HD
ENDROOT
BRANCH   1  17
ATOM     13  C   UNL     1       4.265   5.006  19.329  0.00  0.00    +0.000 A 
ATOM     14  C   UNL     1       3.540   3.841  19.605  0.00  0.00    +0.000 A 
ATOM     15  C   UNL     1       2.223   3.928  20.054  0.00  0.00    +0.000 A 
ATOM     16  C   UNL     1       1.639   5.180  20.261  0.00  0.00    +0.000 A 
ATOM     17  C   UNL     1       2.340   6.370  19.988  0.00  0.00    +0.000 A 
ATOM     18  C   UNL     1       3.634   6.245  19.454  0.00  0.00    +0.000 A 
BRANCH  13  22
ATOM     19  C   UNL     1       7.351   4.507  17.144  0.00  0.00    +0.000 C 
ATOM     20  N   UNL     1       5.951   4.656  17.499  0.00  0.00    +0.000 N 
ATOM     21  C   UNL     1       5.000   4.757  16.397  0.00  0.00    +0.000 C 
ATOM     22  C   UNL     1       5.670   4.884  18.853  0.00  0.00    +0.000 C 
ATOM     23  O   UNL     1       6.563   5.006  19.691  0.00  0.00    +0.000 OA
ENDBRANCH  13  22
ENDBRANCH   1  17
BRANCH   7  24
ATOM     24  C   UNL     1      -1.970  11.518  23.083  0.00  0.00    +0.000 C 
BRANCH  24  25
ATOM     25  N   UNL     1      -2.355  12.763  22.409  0.00  0.00    +0.000 NA
ATOM     26  C   UNL     1      -3.700  12.770  21.814  0.00  0.00    +0.000 C 
ATOM     27  C   UNL     1      -4.828  13.135  22.775  0.00  0.00    +0.000 C 
ATOM     28  C   UNL     1      -4.531  14.454  23.461  0.00  0.00    +0.000 C 
ATOM     29  F   UNL     1      -4.532  15.445  22.525  0.00  0.00    +0.000 F 
ATOM     30  C   UNL     1      -3.173  14.421  24.139  0.00  0.00    +0.000 C 
ATOM     31  C   UNL     1      -2.074  13.978  23.173  0.00  0.00    +0.000 C 
ENDBRANCH  24  25
ENDBRANCH   7  24
TORSDOF 4
ENDMDL
MODEL 2
REMARK VINA RESULT:      -8.4      1.296      1.667
REMARK  Name = 
REMARK  6 active torsions:
REMARK  status: ('A' for Active; 'I' for Inactive)
REMARK    1  A    between atoms: C_1  and  N_2
REMARK    2  A    between atoms: N_2  and  C_3
REMARK    3  A    between atoms: C_4  and  C_6
REMARK    4  A    between atoms: C_10  and  C_11
REMARK    5  A    between atoms: C_17  and  C_18
REMARK    6  A    between atoms: C_18  and  N_19
REMARK                            x       y       z     vdW  Elec       q    Type
REMARK                         _______ _______ _______ _____ _____    ______ ____
ROOT
ATOM      1  C   UNL     1       1.791   7.816  19.914  0.00  0.00    +0.000 A 
ATOM      2  N   UNL     1       2.026   8.589  18.835  0.00  0.00    +0.000 NA
ATOM      3  C   UNL     1       1.494   9.824  18.779  0.00  0.00    +0.000 A 
ATOM      4  N   UNL     1       1.761  10.570  17.640  0.00  0.00    +0.000 N 
ATOM      5  C   UNL     1       0.682  10.261  19.839  0.00  0.00    +0.000 A 
ATOM      6  C   UNL     1      -0.179  11.395  20.037  0.00  0.00    +0.000 A 
ATOM      7  C   UNL     1      -0.889  11.316  21.225  0.00  0.00    +0.000 A 
ATOM      8  S   UNL     1      -0.293  10.050  22.215  0.00  0.00    +0.000 S 
ATOM      9  C   UNL     1       0.613   9.409  20.928  0.00  0.00    +0.000 A 
ATOM     10  N   UNL     1       1.153   8.191  21.032  0.00  0.00    +0.000 NA
ATOM     11  H   UNL     1       2.552  10.184  17.136  0.00  0.00    +0.000 HD
ATOM     12  H   UNL     1       1.769  11.572  17.776  0.00  0.00    +0.000 HD
ENDROOT
BRANCH   1  17
ATOM     13  C   UNL     1       3.803   4.768  18.895  0.00  0.00    +0.000 A 
ATOM     14  C   UNL     1       3.318   3.799  19.781  0.00  0.00    +0.000 A 
ATOM     15  C   UNL     1       2.311   4.123  20.689  0.00  0.00    +0.000 A 
ATOM     16  C   UNL     1       1.811   5.426  20.738  0.00  0.00    +0.000 A 
ATOM     17  C   UNL     1       2.273   6.422  19.857  0.00  0.00    +0.000 A 
ATOM     18  C   UNL     1       3.225   6.039  18.897  0.00  0.00    +0.000 A 
BRANCH  13  22
ATOM     19  C   UNL     1       7.158   4.463  17.108  0.00  0.00    +0.000 C 
ATOM     20  N   UNL     1       6.193   4.846  18.123  0.00  0.00    +0.000 N 
ATOM     21  C   UNL     1       6.719   5.481  19.326  0.00  0.00    +0.000 C 
ATOM     22  C   UNL     1       4.879   4.394  17.938  0.00  0.00    +0.000 C 
ATOM     23  O   UNL     1       4.568   3.666  16.995  0.00  0.00    +0.000 OA
ENDBRANCH  13  22
ENDBRANCH   1  17
BRANCH   7  24
ATOM     24  C   UNL     1      -2.089  12.110  21.666  0.00  0.00    +0.000 C 
BRANCH  24  25
ATOM     25  N   UNL     1      -2.001  12.374  23.107  0.00  0.00    +0.000 NA
ATOM     26  C   UNL     1      -1.336  13.631  23.479  0.00  0.00    +0.000 C 
ATOM     27  C   UNL     1      -2.237  14.863  23.475  0.00  0.00    +0.000 C 
ATOM     28  C   UNL     1      -3.462  14.623  24.335  0.00  0.00    +0.000 C 
ATOM     29  F   UNL     1      -3.068  14.479  25.632  0.00  0.00    +0.000 F 
ATOM     30  C   UNL     1      -4.192  13.364  23.902  0.00  0.00    +0.000 C 
ATOM     31  C   UNL     1      -3.249  12.162  23.839  0.00  0.00    +0.000 C 
ENDBRANCH  24  25
ENDBRANCH   7  24
TORSDOF 4
ENDMDL
MODEL 3
REMARK VINA RESULT:      -8.3      0.884      1.063
REMARK  Name = 
REMARK  6 active torsions:
REMARK  status: ('A' for Active; 'I' for Inactive)
REMARK    1  A    between atoms: C_1  and  N_2
REMARK    2  A    between atoms: N_2  and  C_3
REMARK    3  A    between atoms: C_4  and  C_6
REMARK    4  A    between atoms: C_10  and  C_11
REMARK    5  A    between atoms: C_17  and  C_18
REMARK    6  A    between atoms: C_18  and  N_19
REMARK                            x       y       z     vdW  Elec       q    Type
REMARK                         _______ _______ _______ _____ _____    ______ ____
ROOT
ATOM      1  C   UNL     1       1.749   7.631  20.075  0.00  0.00    +0.000 A 
ATOM      2  N   UNL     1       1.680   8.499  19.045  0.00  0.00    +0.000 NA
ATOM      3  C   UNL     1       1.091   9.696  19.228  0.00  0.00    +0.000 A 
ATOM      4  N   UNL     1       1.040  10.543  18.131  0.00  0.00    +0.000 N 
ATOM      5  C   UNL     1       0.539   9.994  20.485  0.00  0.00    +0.000 A 
ATOM      6  C   UNL     1      -0.301  11.048  20.983  0.00  0.00    +0.000 A 
ATOM      7  C   UNL     1      -0.700  10.831  22.292  0.00  0.00    +0.000 A 
ATOM      8  S   UNL     1       0.176   9.537  22.995  0.00  0.00    +0.000 S 
ATOM      9  C   UNL     1       0.775   9.059  21.478  0.00  0.00    +0.000 A 
ATOM     10  N   UNL     1       1.382   7.876  21.341  0.00  0.00    +0.000 NA
ATOM     11  H   UNL     1       1.704  10.251  17.422  0.00  0.00    +0.000 HD
ATOM     12  H   UNL     1       1.033  11.529  18.351  0.00  0.00    +0.000 HD
ENDROOT
BRANCH   1  17
ATOM     13  C   UNL     1       3.799   4.854  18.506  0.00  0.00    +0.000 A 
ATOM     14  C   UNL     1       3.386   3.742  19.249  0.00  0.00    +0.000 A 
ATOM     15  C   UNL     1       2.415   3.884  20.239  0.00  0.00    +0.000 A 
ATOM     16  C   UNL     1       1.879   5.145  20.512  0.00  0.00    +0.000 A 
ATOM     17  C   UNL     1       2.269   6.282  19.780  0.00  0.00    +0.000 A 
ATOM     18  C   UNL     1       3.185   6.088  18.731  0.00  0.00    +0.000 A 
BRANCH  13  22
ATOM     19  C   UNL     1       7.084   4.917  16.570  0.00  0.00    +0.000 C 
ATOM     20  N   UNL     1       6.157   5.097  17.673  0.00  0.00    +0.000 N 
ATOM     21  C   UNL     1       6.728   5.506  18.951  0.00  0.00    +0.000 C 
ATOM     22  C   UNL     1       4.839   4.674  17.457  0.00  0.00    +0.000 C 
ATOM     23  O   UNL     1       4.494   4.128  16.408  0.00  0.00    +0.000 OA
ENDBRANCH  13  22
ENDBRANCH   1  17
BRANCH   7  24
ATOM     24  C   UNL     1      -1.795  11.505  23.075  0.00  0.00    +0.000 C 
BRANCH  24  25
ATOM     25  N   UNL     1      -2.136  12.784  22.441  0.00  0.00    +0.000 NA
ATOM     26  C   UNL     1      -3.510  12.887  21.927  0.00  0.00    +0.000 C 
ATOM     27  C   UNL     1      -4.554  13.308  22.958  0.00  0.00    +0.000 C 
ATOM     28  C   UNL     1      -4.133  14.594  23.641  0.00  0.00    +0.000 C 
ATOM     29  F   UNL     1      -4.123  15.598  22.720  0.00  0.00    +0.000 F 
ATOM     30  C   UNL     1      -2.742  14.462  24.237  0.00  0.00    +0.000 C 
ATOM     31  C   UNL     1      -1.733  13.965  23.203  0.00  0.00    +0.000 C 
ENDBRANCH  24  25
ENDBRANCH   7  24
TORSDOF 4
ENDMDL
MODEL 4
REMARK VINA RESULT:      -7.9      0.947      1.301
REMARK  Name = 
REMARK  6 active torsions:
REMARK  status: ('A' for Active; 'I' for Inactive)
REMARK    1  A    between atoms: C_1  and  N_2
REMARK    2  A    between atoms: N_2  and  C_3
REMARK    3  A    between atoms: C_4  and  C_6
REMARK    4  A    between atoms: C_10  and  C_11
REMARK    5  A    between atoms: C_17  and  C_18
REMARK    6  A    between atoms: C_18  and  N_19
REMARK                            x       y       z     vdW  Elec       q    Type
REMARK                         _______ _______ _______ _____ _____    ______ ____
ROOT
ATOM      1  C   UNL     1       1.731   7.942  20.089  0.00  0.00    +0.000 A 
ATOM      2  N   UNL     1       1.855   8.730  19.001  0.00  0.00    +0.000 NA
ATOM      3  C   UNL     1       1.237   9.925  18.977  0.00  0.00    +0.000 A 
ATOM      4  N   UNL     1       1.391  10.688  17.829  0.00  0.00    +0.000 N 
ATOM      5  C   UNL     1       0.454  10.305  20.081  0.00  0.00    +0.000 A 
ATOM      6  C   UNL     1      -0.471  11.377  20.329  0.00  0.00    +0.000 A 
ATOM      7  C   UNL     1      -1.110  11.249  21.552  0.00  0.00    +0.000 A 
ATOM      8  S   UNL     1      -0.377  10.028  22.504  0.00  0.00    +0.000 S 
ATOM      9  C   UNL     1       0.502   9.450  21.169  0.00  0.00    +0.000 A 
ATOM     10  N   UNL     1       1.129   8.272  21.240  0.00  0.00    +0.000 NA
ATOM     11  H   UNL     1       2.179  10.358  17.283  0.00  0.00    +0.000 HD
ATOM     12  H   UNL     1       1.337  11.688  17.968  0.00  0.00    +0.000 HD
ENDROOT
BRANCH   1  17
ATOM     13  C   UNL     1       4.203   5.140  19.443  0.00  0.00    +0.000 A 
ATOM     14  C   UNL     1       3.499   4.027  19.916  0.00  0.00    +0.000 A 
ATOM     15  C   UNL     1       2.206   4.177  20.414  0.00  0.00    +0.000 A 
ATOM     16  C   UNL     1       1.626   5.446  20.473  0.00  0.00    +0.000 A 
ATOM     17  C   UNL     1       2.305   6.585  20.001  0.00  0.00    +0.000 A 
ATOM     18  C   UNL     1       3.572   6.386  19.425  0.00  0.00    +0.000 A 
BRANCH  13  22
ATOM     19  C   UNL     1       7.181   4.447  17.164  0.00  0.00    +0.000 C 
ATOM     20  N   UNL     1       5.802   4.658  17.566  0.00  0.00    +0.000 N 
ATOM     21  C   UNL     1       4.812   4.746  16.498  0.00  0.00    +0.000 C 
ATOM     22  C   UNL     1       5.583   4.951  18.919  0.00  0.00    +0.000 C 
ATOM     23  O   UNL     1       6.513   5.077  19.716  0.00  0.00    +0.000 OA
ENDBRANCH  13  22
ENDBRANCH   1  17
BRANCH   7  24
ATOM     24  C   UNL     1      -2.337  11.958  22.059  0.00  0.00    +0.000 C 
BRANCH  24  25
ATOM     25  N   UNL     1      -2.017  12.664  23.305  0.00  0.00    +0.000 NA
ATOM     26  C   UNL     1      -1.057  13.770  23.175  0.00  0.00    +0.000 C 
ATOM     27  C   UNL     1      -1.666  15.108  22.766  0.00  0.00    +0.000 C 
ATOM     28  C   UNL     1      -2.798  15.481  23.703  0.00  0.00    +0.000 C 
ATOM     29  F   UNL     1      -2.286  15.693  24.948  0.00  0.00    +0.000 F 
ATOM     30  C   UNL     1      -3.829  14.368  23.779  0.00  0.00    +0.000 C 
ATOM     31  C   UNL     1      -3.181  13.025  24.114  0.00  0.00    +0.000 C 
ENDBRANCH  24  25
ENDBRANCH   7  24
TORSDOF 4
ENDMDL
MODEL 5
REMARK VINA RESULT:      -7.9      1.331      1.754
REMARK  Name = 
REMARK  6 active torsions:
REMARK  status: ('A' for Active; 'I' for Inactive)
REMARK    1  A    between atoms: C_1  and  N_2
REMARK    2  A    between atoms: N_2  and  C_3
REMARK    3  A    between atoms: C_4  and  C_6
REMARK    4  A    between atoms: C_10  and  C_11
REMARK    5  A    between atoms: C_17  and  C_18
REMARK    6  A    between atoms: C_18  and  N_19
REMARK                            x       y       z     vdW  Elec       q    Type
REMARK                         _______ _______ _______ _____ _____    ______ ____
ROOT
ATOM      1  C   UNL     1       1.849   7.671  20.007  0.00  0.00    +0.000 A 
ATOM      2  N   UNL     1       1.924   8.440  18.902  0.00  0.00    +0.000 NA
ATOM      3  C   UNL     1       1.362   9.663  18.909  0.00  0.00    +0.000 A 
ATOM      4  N   UNL     1       1.461  10.404  17.741  0.00  0.00    +0.000 N 
ATOM      5  C   UNL     1       0.686  10.091  20.064  0.00  0.00    +0.000 A 
ATOM      6  C   UNL     1      -0.166  11.208  20.367  0.00  0.00    +0.000 A 
ATOM      7  C   UNL     1      -0.712  11.125  21.638  0.00  0.00    +0.000 A 
ATOM      8  S   UNL     1       0.036   9.881  22.548  0.00  0.00    +0.000 S 
ATOM      9  C   UNL     1       0.779   9.248  21.158  0.00  0.00    +0.000 A 
ATOM     10  N   UNL     1       1.355   8.042  21.197  0.00  0.00    +0.000 NA
ATOM     11  H   UNL     1       2.187  10.031  17.140  0.00  0.00    +0.000 HD
ATOM     12  H   UNL     1       1.465  11.407  17.868  0.00  0.00    +0.000 HD
ENDROOT
BRANCH   1  17
ATOM     13  C   UNL     1       3.912   4.696  18.880  0.00  0.00    +0.000 A 
ATOM     14  C   UNL     1       3.431   3.683  19.718  0.00  0.00    +0.000 A 
ATOM     15  C   UNL     1       2.410   3.954  20.627  0.00  0.00    +0.000 A 
ATOM     16  C   UNL     1       1.892   5.248  20.726  0.00  0.00    +0.000 A 
ATOM     17  C   UNL     1       2.351   6.287  19.895  0.00  0.00    +0.000 A 
ATOM     18  C   UNL     1       3.318   5.959  18.930  0.00  0.00    +0.000 A 
BRANCH  13  22
ATOM     19  C   UNL     1       7.284   4.534  17.106  0.00  0.00    +0.000 C 
ATOM     20  N   UNL     1       6.303   4.863  18.124  0.00  0.00    +0.000 N 
ATOM     21  C   UNL     1       6.805   5.482  19.346  0.00  0.00    +0.000 C 
ATOM     22  C   UNL     1       5.004   4.378  17.920  0.00  0.00    +0.000 C 
ATOM     23  O   UNL     1       4.719   3.666  16.957  0.00  0.00    +0.000 OA
ENDBRANCH  13  22
ENDBRANCH   1  17
BRANCH   7  24
ATOM     24  C   UNL     1      -1.861  11.897  22.229  0.00  0.00    +0.000 C 
BRANCH  24  25
ATOM     25  N   UNL     1      -1.344  12.989  23.061  0.00  0.00    +0.000 NA
ATOM     26  C   UNL     1      -0.399  13.898  22.394  0.00  0.00    +0.000 C 
ATOM     27  C   UNL     1      -1.045  15.030  21.600  0.00  0.00    +0.000 C 
ATOM     28  C   UNL     1      -2.015  15.801  22.473  0.00  0.00    +0.000 C 
ATOM     29  F   UNL     1      -1.315  16.422  23.464  0.00  0.00    +0.000 F 
ATOM     30  C   UNL     1      -3.037  14.871  23.102  0.00  0.00    +0.000 C 
ATOM     31  C   UNL     1      -2.364  13.704  23.826  0.00  0.00    +0.000 C 
ENDBRANCH  24  25
ENDBRANCH   7  24
TORSDOF 4
ENDMDL
MODEL 6
REMARK VINA RESULT:      -7.9      3.550      4.617
REMARK  Name = 
REMARK  6 active torsions:
REMARK  status: ('A' for Active; 'I' for Inactive)
REMARK    1  A    between atoms: C_1  and  N_2
REMARK    2  A    between atoms: N_2  and  C_3
REMARK    3  A    between atoms: C_4  and  C_6
REMARK    4  A    between atoms: C_10  and  C_11
REMARK    5  A    between atoms: C_17  and  C_18
REMARK    6  A    between atoms: C_18  and  N_19
REMARK                            x       y       z     vdW  Elec       q    Type
REMARK                         _______ _______ _______ _____ _____    ______ ____
ROOT
ATOM      1  C   UNL     1       1.646   7.672  20.270  0.00  0.00    +0.000 A 
ATOM      2  N   UNL     1       1.081   7.914  21.471  0.00  0.00    +0.000 NA
ATOM      3  C   UNL     1       0.625   9.149  21.749  0.00  0.00    +0.000 A 
ATOM      4  N   UNL     1       0.064   9.342  23.002  0.00  0.00    +0.000 N 
ATOM      5  C   UNL     1       0.778  10.161  20.785  0.00  0.00    +0.000 A 
ATOM      6  C   UNL     1       0.594  11.586  20.795  0.00  0.00    +0.000 A 
ATOM      7  C   UNL     1       1.011  12.179  19.614  0.00  0.00    +0.000 A 
ATOM      8  S   UNL     1       1.326  11.000  18.411  0.00  0.00    +0.000 S 
ATOM      9  C   UNL     1       1.275   9.749  19.560  0.00  0.00    +0.000 A 
ATOM     10  N   UNL     1       1.708   8.526  19.239  0.00  0.00    +0.000 NA
ATOM     11  H   UNL     1      -0.177   8.454  23.428  0.00  0.00    +0.000 HD
ATOM     12  H   UNL     1      -0.644  10.062  23.049  0.00  0.00    +0.000 HD
ENDROOT
BRANCH   1  17
ATOM     13  C   UNL     1       4.206   5.008  19.419  0.00  0.00    +0.000 A 
ATOM     14  C   UNL     1       3.532   3.838  19.789  0.00  0.00    +0.000 A 
ATOM     15  C   UNL     1       2.230   3.908  20.282  0.00  0.00    +0.000 A 
ATOM     16  C   UNL     1       1.612   5.151  20.442  0.00  0.00    +0.000 A 
ATOM     17  C   UNL     1       2.261   6.345  20.075  0.00  0.00    +0.000 A 
ATOM     18  C   UNL     1       3.538   6.231  19.498  0.00  0.00    +0.000 A 
BRANCH  13  22
ATOM     19  C   UNL     1       7.223   4.513  17.140  0.00  0.00    +0.000 C 
ATOM     20  N   UNL     1       5.834   4.640  17.540  0.00  0.00    +0.000 N 
ATOM     21  C   UNL     1       4.842   4.685  16.471  0.00  0.00    +0.000 C 
ATOM     22  C   UNL     1       5.596   4.904  18.896  0.00  0.00    +0.000 C 
ATOM     23  O   UNL     1       6.515   5.072  19.697  0.00  0.00    +0.000 OA
ENDBRANCH  13  22
ENDBRANCH   1  17
BRANCH   7  24
ATOM     24  C   UNL     1       1.274  13.633  19.323  0.00  0.00    +0.000 C 
BRANCH  24  25
ATOM     25  N   UNL     1       2.708  13.910  19.465  0.00  0.00    +0.000 NA
ATOM     26  C   UNL     1       3.447  14.070  18.204  0.00  0.00    +0.000 C 
ATOM     27  C   UNL     1       3.403  15.473  17.604  0.00  0.00    +0.000 C 
ATOM     28  C   UNL     1       3.848  16.499  18.628  0.00  0.00    +0.000 C 
ATOM     29  F   UNL     1       5.161  16.284  18.923  0.00  0.00    +0.000 F 
ATOM     30  C   UNL     1       3.033  16.382  19.903  0.00  0.00    +0.000 C 
ATOM     31  C   UNL     1       3.031  14.951  20.440  0.00  0.00    +0.000 C 
ENDBRANCH  24  25
ENDBRANCH   7  24
TORSDOF 4
ENDMDL
MODEL 7
REMARK VINA RESULT:      -7.7      2.192      3.158
REMARK  Name = 
REMARK  6 active torsions:
REMARK  status: ('A' for Active; 'I' for Inactive)
REMARK    1  A    between atoms: C_1  and  N_2
REMARK    2  A    between atoms: N_2  and  C_3
REMARK    3  A    between atoms: C_4  and  C_6
REMARK    4  A    between atoms: C_10  and  C_11
REMARK    5  A    between atoms: C_17  and  C_18
REMARK    6  A    between atoms: C_18  and  N_19
REMARK                            x       y       z     vdW  Elec       q    Type
REMARK                         _______ _______ _______ _____ _____    ______ ____
ROOT
ATOM      1  C   UNL     1       2.265   8.927  18.529  0.00  0.00    +0.000 A 
ATOM      2  N   UNL     1       2.619  10.036  17.848  0.00  0.00    +0.000 NA
ATOM      3  C   UNL     1       2.018  11.206  18.135  0.00  0.00    +0.000 A 
ATOM      4  N   UNL     1       2.415  12.311  17.396  0.00  0.00    +0.000 N 
ATOM      5  C   UNL     1       1.016  11.230  19.119  0.00  0.00    +0.000 A 
ATOM      6  C   UNL     1       0.058  12.212  19.546  0.00  0.00    +0.000 A 
ATOM      7  C   UNL     1      -0.829  11.710  20.485  0.00  0.00    +0.000 A 
ATOM      8  S   UNL     1      -0.316  10.178  21.058  0.00  0.00    +0.000 S 
ATOM      9  C   UNL     1       0.830  10.045  19.811  0.00  0.00    +0.000 A 
ATOM     10  N   UNL     1       1.430   8.874  19.575  0.00  0.00    +0.000 NA
ATOM     11  H   UNL     1       3.302  12.136  16.938  0.00  0.00    +0.000 HD
ATOM     12  H   UNL     1       2.331  13.198  17.873  0.00  0.00    +0.000 HD
ENDROOT
BRANCH   1  17
ATOM     13  C   UNL     1       2.668   5.214  17.875  0.00  0.00    +0.000 A 
ATOM     14  C   UNL     1       3.851   5.184  17.128  0.00  0.00    +0.000 A 
ATOM     15  C   UNL     1       4.541   6.366  16.864  0.00  0.00    +0.000 A 
ATOM     16  C   UNL     1       4.031   7.585  17.316  0.00  0.00    +0.000 A 
ATOM     17  C   UNL     1       2.847   7.649  18.074  0.00  0.00    +0.000 A 
ATOM     18  C   UNL     1       2.224   6.430  18.397  0.00  0.00    +0.000 A 
BRANCH  13  22
ATOM     19  C   UNL     1       1.616   1.851  19.334  0.00  0.00    +0.000 C 
ATOM     20  N   UNL     1       2.351   3.094  19.188  0.00  0.00    +0.000 N 
ATOM     21  C   UNL     1       3.286   3.436  20.254  0.00  0.00    +0.000 C 
ATOM     22  C   UNL     1       1.951   3.936  18.141  0.00  0.00    +0.000 C 
ATOM     23  O   UNL     1       0.993   3.665  17.417  0.00  0.00    +0.000 OA
ENDBRANCH  13  22
ENDBRANCH   1  17
BRANCH   7  24
ATOM     24  C   UNL     1      -2.138  12.285  20.956  0.00  0.00    +0.000 C 
BRANCH  24  25
ATOM     25  N   UNL     1      -2.150  12.342  22.422  0.00  0.00    +0.000 NA
ATOM     26  C   UNL     1      -1.199  13.288  23.025  0.00  0.00    +0.000 C 
ATOM     27  C   UNL     1      -1.699  14.727  23.129  0.00  0.00    +0.000 C 
ATOM     28  C   UNL     1      -3.035  14.771  23.845  0.00  0.00    +0.000 C 
ATOM     29  F   UNL     1      -2.857  14.366  25.134  0.00  0.00    +0.000 F 
ATOM     30  C   UNL     1      -4.040  13.849  23.176  0.00  0.00    +0.000 C 
ATOM     31  C   UNL     1      -3.484  12.434  23.015  0.00  0.00    +0.000 C 
ENDBRANCH  24  25
ENDBRANCH   7  24
TORSDOF 4
ENDMDL
MODEL 8
REMARK VINA RESULT:      -7.6      3.035      3.752
REMARK  Name = 
REMARK  6 active torsions:
REMARK  status: ('A' for Active; 'I' for Inactive)
REMARK    1  A    between atoms: C_1  and  N_2
REMARK    2  A    between atoms: N_2  and  C_3
REMARK    3  A    between atoms: C_4  and  C_6
REMARK    4  A    between atoms: C_10  and  C_11
REMARK    5  A    between atoms: C_17  and  C_18
REMARK    6  A    between atoms: C_18  and  N_19
REMARK                            x       y       z     vdW  Elec       q    Type
REMARK                         _______ _______ _______ _____ _____    ______ ____
ROOT
ATOM      1  C   UNL     1       1.431   7.680  20.404  0.00  0.00    +0.000 A 
ATOM      2  N   UNL     1       0.626   7.773  21.482  0.00  0.00    +0.000 NA
ATOM      3  C   UNL     1       0.129   8.974  21.833  0.00  0.00    +0.000 A 
ATOM      4  N   UNL     1      -0.683   9.011  22.956  0.00  0.00    +0.000 N 
ATOM      5  C   UNL     1       0.489  10.103  21.078  0.00  0.00    +0.000 A 
ATOM      6  C   UNL     1       0.317  11.519  21.253  0.00  0.00    +0.000 A 
ATOM      7  C   UNL     1       0.977  12.254  20.282  0.00  0.00    +0.000 A 
ATOM      8  S   UNL     1       1.533  11.242  19.016  0.00  0.00    +0.000 S 
ATOM      9  C   UNL     1       1.232   9.847  19.937  0.00  0.00    +0.000 A 
ATOM     10  N   UNL     1       1.715   8.666  19.542  0.00  0.00    +0.000 NA
ATOM     11  H   UNL     1      -1.015   8.082  23.190  0.00  0.00    +0.000 HD
ATOM     12  H   UNL     1      -1.381   9.743  22.957  0.00  0.00    +0.000 HD
ENDROOT
BRANCH   1  17
ATOM     13  C   UNL     1       4.033   5.090  19.454  0.00  0.00    +0.000 A 
ATOM     14  C   UNL     1       3.371   3.896  19.763  0.00  0.00    +0.000 A 
ATOM     15  C   UNL     1       2.065   3.927  20.249  0.00  0.00    +0.000 A 
ATOM     16  C   UNL     1       1.428   5.153  20.460  0.00  0.00    +0.000 A 
ATOM     17  C   UNL     1       2.065   6.371  20.153  0.00  0.00    +0.000 A 
ATOM     18  C   UNL     1       3.348   6.300  19.583  0.00  0.00    +0.000 A 
BRANCH  13  22
ATOM     19  C   UNL     1       7.079   4.630  17.206  0.00  0.00    +0.000 C 
ATOM     20  N   UNL     1       5.683   4.709  17.597  0.00  0.00    +0.000 N 
ATOM     21  C   UNL     1       4.694   4.652  16.526  0.00  0.00    +0.000 C 
ATOM     22  C   UNL     1       5.427   5.028  18.938  0.00  0.00    +0.000 C 
ATOM     23  O   UNL     1       6.334   5.281  19.731  0.00  0.00    +0.000 OA
ENDBRANCH  13  22
ENDBRANCH   1  17
BRANCH   7  24
ATOM     24  C   UNL     1       1.306  13.724  20.265  0.00  0.00    +0.000 C 
BRANCH  24  25
ATOM     25  N   UNL     1       0.979  14.284  18.949  0.00  0.00    +0.000 NA
ATOM     26  C   UNL     1      -0.369  14.859  18.824  0.00  0.00    +0.000 C 
ATOM     27  C   UNL     1      -0.499  16.306  19.291  0.00  0.00    +0.000 C 
ATOM     28  C   UNL     1       0.529  17.179  18.596  0.00  0.00    +0.000 C 
ATOM     29  F   UNL     1       0.248  17.212  17.263  0.00  0.00    +0.000 F 
ATOM     30  C   UNL     1       1.930  16.626  18.789  0.00  0.00    +0.000 C 
ATOM     31  C   UNL     1       2.012  15.153  18.386  0.00  0.00    +0.000 C 
ENDBRANCH  24  25
ENDBRANCH   7  24
TORSDOF 4
ENDMDL
MODEL 9
REMARK VINA RESULT:      -7.6      2.243      3.122
REMARK  Name = 
REMARK  6 active torsions:
REMARK  status: ('A' for Active; 'I' for Inactive)
REMARK    1  A    between atoms: C_1  and  N_2
REMARK    2  A    between atoms: N_2  and  C_3
REMARK    3  A    between atoms: C_4  and  C_6
REMARK    4  A    between atoms: C_10  and  C_11
REMARK    5  A    between atoms: C_17  and  C_18
REMARK    6  A    between atoms: C_18  and  N_19
REMARK                            x       y       z     vdW  Elec       q    Type
REMARK                         _______ _______ _______ _____ _____    ______ ____
ROOT
ATOM      1  C   UNL     1       2.259   8.938  18.326  0.00  0.00    +0.000 A 
ATOM      2  N   UNL     1       2.717  10.059  17.733  0.00  0.00    +0.000 NA
ATOM      3  C   UNL     1       2.081  11.226  17.947  0.00  0.00    +0.000 A 
ATOM      4  N   UNL     1       2.589  12.344  17.303  0.00  0.00    +0.000 N 
ATOM      5  C   UNL     1       0.936  11.234  18.763  0.00  0.00    +0.000 A 
ATOM      6  C   UNL     1      -0.075  12.212  19.055  0.00  0.00    +0.000 A 
ATOM      7  C   UNL     1      -1.099  11.694  19.833  0.00  0.00    +0.000 A 
ATOM      8  S   UNL     1      -0.684  10.149  20.447  0.00  0.00    +0.000 S 
ATOM      9  C   UNL     1       0.643  10.036  19.392  0.00  0.00    +0.000 A 
ATOM     10  N   UNL     1       1.270   8.867  19.228  0.00  0.00    +0.000 NA
ATOM     11  H   UNL     1       3.537  12.174  16.985  0.00  0.00    +0.000 HD
ATOM     12  H   UNL     1       2.433  13.222  17.780  0.00  0.00    +0.000 HD
ENDROOT
BRANCH   1  17
ATOM     13  C   UNL     1       2.808   5.222  17.804  0.00  0.00    +0.000 A 
ATOM     14  C   UNL     1       4.031   5.209  17.123  0.00  0.00    +0.000 A 
ATOM     15  C   UNL     1       4.699   6.405  16.863  0.00  0.00    +0.000 A 
ATOM     16  C   UNL     1       4.129   7.620  17.250  0.00  0.00    +0.000 A 
ATOM     17  C   UNL     1       2.903   7.667  17.941  0.00  0.00    +0.000 A 
ATOM     18  C   UNL     1       2.300   6.438  18.265  0.00  0.00    +0.000 A 
BRANCH  13  22
ATOM     19  C   UNL     1       1.914   1.764  19.139  0.00  0.00    +0.000 C 
ATOM     20  N   UNL     1       2.639   3.013  18.988  0.00  0.00    +0.000 N 
ATOM     21  C   UNL     1       3.709   3.272  19.945  0.00  0.00    +0.000 C 
ATOM     22  C   UNL     1       2.117   3.931  18.067  0.00  0.00    +0.000 C 
ATOM     23  O   UNL     1       1.069   3.717  17.457  0.00  0.00    +0.000 OA
ENDBRANCH  13  22
ENDBRANCH   1  17
BRANCH   7  24
ATOM     24  C   UNL     1      -2.464  12.266  20.106  0.00  0.00    +0.000 C 
BRANCH  24  25
ATOM     25  N   UNL     1      -2.381  13.234  21.205  0.00  0.00    +0.000 NA
ATOM     26  C   UNL     1      -3.642  13.906  21.553  0.00  0.00    +0.000 C 
ATOM     27  C   UNL     1      -4.538  13.135  22.519  0.00  0.00    +0.000 C 
ATOM     28  C   UNL     1      -3.764  12.755  23.767  0.00  0.00    +0.000 C 
ATOM     29  F   UNL     1      -3.422  13.892  24.435  0.00  0.00    +0.000 F 
ATOM     30  C   UNL     1      -2.499  11.995  23.410  0.00  0.00    +0.000 C 
ATOM     31  C   UNL     1      -1.659  12.755  22.383  0.00  0.00    +0.000 C 
ENDBRANCH  24  25
ENDBRANCH   7  24
TORSDOF 4
ENDMDL
