MODEL 1
REMARK VINA RESULT:      -7.3      0.000      0.000
REMARK  Name = 
REMARK  9 active torsions:
REMARK  status: ('A' for Active; 'I' for Inactive)
REMARK    1  A    between atoms: C_1  and  O_2
REMARK    2  A    between atoms: O_2  and  C_3
REMARK    3  A    between atoms: C_8  and  C_9
REMARK    4  A    between atoms: C_9  and  C_11
REMARK    5  A    between atoms: N_13  and  C_14
REMARK    6  A    between atoms: C_16  and  C_17
REMARK    7  A    between atoms: C_16  and  C_18
REMARK    8  A    between atoms: C_20  and  C_21
REMARK    9  A    between atoms: C_20  and  C_22
REMARK                            x       y       z     vdW  Elec       q    Type
REMARK                         _______ _______ _______ _____ _____    ______ ____
ROOT
ATOM      1  C   UNL     1       0.677   7.982  21.311  0.00  0.00    +0.000 C 
ATOM      2  O   UNL     1      -0.422   7.460  21.213  0.00  0.00    +0.000 OA
ATOM      3  N   UNL     1       1.878   7.434  20.904  0.00  0.00    +0.000 N 
ATOM      4  H   UNL     1       2.712   7.981  21.098  0.00  0.00    +0.000 HD
ENDROOT
BRANCH   3   5
ATOM      5  C   UNL     1       2.004   6.162  20.187  0.00  0.00    +0.000 C 
ATOM      6  C   UNL     1       1.875   4.996  21.171  0.00  0.00    +0.000 C 
ATOM      7  C   UNL     1       2.097   3.616  20.520  0.00  0.00    +0.000 C 
ATOM      8  C   UNL     1       2.261   2.572  21.649  0.00  0.00    +0.000 C 
ATOM      9  C   UNL     1       0.883   3.172  19.682  0.00  0.00    +0.000 C 
ATOM     10  N   UNL     1       3.344   3.584  19.751  0.00  0.00    +0.000 NA
ATOM     11  C   UNL     1       3.646   4.700  18.842  0.00  0.00    +0.000 C 
ATOM     12  C   UNL     1       5.165   4.601  18.570  0.00  0.00    +0.000 C 
ATOM     13  C   UNL     1       2.946   4.550  17.480  0.00  0.00    +0.000 C 
ATOM     14  C   UNL     1       3.359   6.078  19.477  0.00  0.00    +0.000 C 
ATOM     15  H   UNL     1       3.456   2.689  19.275  0.00  0.00    +0.000 HD
ENDBRANCH   3   5
BRANCH   1  16
ATOM     16  C   UNL     1       0.836   9.332  22.015  0.00  0.00    +0.000 C 
ATOM     17  O   UNL     1       1.846   9.503  22.689  0.00  0.00    +0.000 OA
BRANCH  16  23
ATOM     18  C   UNL     1      -0.372  11.207  20.756  0.00  0.00    +0.000 A 
ATOM     19  C   UNL     1      -1.293  12.267  20.814  0.00  0.00    +0.000 A 
ATOM     20  C   UNL     1      -2.051  12.512  21.961  0.00  0.00    +0.000 A 
ATOM     21  C   UNL     1      -1.891  11.701  23.074  0.00  0.00    +0.000 A 
ATOM     22  C   UNL     1      -0.952  10.666  23.049  0.00  0.00    +0.000 A 
ATOM     23  C   UNL     1      -0.184  10.408  21.896  0.00  0.00    +0.000 A 
BRANCH  18  25
ATOM     24  C   UNL     1      -0.293  10.368  18.553  0.00  0.00    +0.000 C 
ATOM     25  O   UNL     1       0.399  10.977  19.644  0.00  0.00    +0.000 OA
ENDBRANCH  18  25
ENDBRANCH  16  23
ENDBRANCH   1  16
TORSDOF 4
ENDMDL
MODEL 2
REMARK VINA RESULT:      -7.1      3.251      8.051
REMARK  Name = 
REMARK  9 active torsions:
REMARK  status: ('A' for Active; 'I' for Inactive)
REMARK    1  A    between atoms: C_1  and  O_2
REMARK    2  A    between atoms: O_2  and  C_3
REMARK    3  A    between atoms: C_8  and  C_9
REMARK    4  A    between atoms: C_9  and  C_11
REMARK    5  A    between atoms: N_13  and  C_14
REMARK    6  A    between atoms: C_16  and  C_17
REMARK    7  A    between atoms: C_16  and  C_18
REMARK    8  A    between atoms: C_20  and  C_21
REMARK    9  A    between atoms: C_20  and  C_22
REMARK                            x       y       z     vdW  Elec       q    Type
REMARK                         _______ _______ _______ _____ _____    ______ ____
ROOT
ATOM      1  C   UNL     1       2.638   5.021  18.386  0.00  0.00    +0.000 C 
ATOM      2  O   UNL     1       1.620   4.759  17.766  0.00  0.00    +0.000 OA
ATOM      3  N   UNL     1       2.884   6.180  19.098  0.00  0.00    +0.000 N 
ATOM      4  H   UNL     1       3.802   6.263  19.523  0.00  0.00    +0.000 HD
ENDROOT
BRANCH   3   5
ATOM      5  C   UNL     1       1.899   7.246  19.304  0.00  0.00    +0.000 C 
ATOM      6  C   UNL     1       2.285   8.477  18.479  0.00  0.00    +0.000 C 
ATOM      7  C   UNL     1       1.359   9.688  18.714  0.00  0.00    +0.000 C 
ATOM      8  C   UNL     1       2.030  10.934  18.091  0.00  0.00    +0.000 C 
ATOM      9  C   UNL     1       0.001   9.519  18.008  0.00  0.00    +0.000 C 
ATOM     10  N   UNL     1       1.210   9.976  20.143  0.00  0.00    +0.000 NA
ATOM     11  C   UNL     1       0.941   8.864  21.067  0.00  0.00    +0.000 C 
ATOM     12  C   UNL     1       1.302   9.406  22.469  0.00  0.00    +0.000 C 
ATOM     13  C   UNL     1      -0.550   8.489  21.113  0.00  0.00    +0.000 C 
ATOM     14  C   UNL     1       1.827   7.631  20.785  0.00  0.00    +0.000 C 
ATOM     15  H   UNL     1       0.551  10.739  20.294  0.00  0.00    +0.000 HD
ENDBRANCH   3   5
BRANCH   1  16
ATOM     16  C   UNL     1       3.835   4.068  18.352  0.00  0.00    +0.000 C 
ATOM     17  O   UNL     1       3.837   3.133  19.146  0.00  0.00    +0.000 OA
BRANCH  16  23
ATOM     18  C   UNL     1       6.281   4.564  17.772  0.00  0.00    +0.000 A 
ATOM     19  C   UNL     1       7.227   4.824  16.766  0.00  0.00    +0.000 A 
ATOM     20  C   UNL     1       6.896   4.733  15.413  0.00  0.00    +0.000 A 
ATOM     21  C   UNL     1       5.604   4.388  15.045  0.00  0.00    +0.000 A 
ATOM     22  C   UNL     1       4.639   4.164  16.030  0.00  0.00    +0.000 A 
ATOM     23  C   UNL     1       4.962   4.251  17.399  0.00  0.00    +0.000 A 
BRANCH  18  25
ATOM     24  C   UNL     1       7.537   5.702  19.411  0.00  0.00    +0.000 C 
ATOM     25  O   UNL     1       6.588   4.680  19.105  0.00  0.00    +0.000 OA
ENDBRANCH  18  25
ENDBRANCH  16  23
ENDBRANCH   1  16
TORSDOF 4
ENDMDL
MODEL 3
REMARK VINA RESULT:      -7.1      1.013      1.976
REMARK  Name = 
REMARK  9 active torsions:
REMARK  status: ('A' for Active; 'I' for Inactive)
REMARK    1  A    between atoms: C_1  and  O_2
REMARK    2  A    between atoms: O_2  and  C_3
REMARK    3  A    between atoms: C_8  and  C_9
REMARK    4  A    between atoms: C_9  and  C_11
REMARK    5  A    between atoms: N_13  and  C_14
REMARK    6  A    between atoms: C_16  and  C_17
REMARK    7  A    between atoms: C_16  and  C_18
REMARK    8  A    between atoms: C_20  and  C_21
REMARK    9  A    between atoms: C_20  and  C_22
REMARK                            x       y       z     vdW  Elec       q    Type
REMARK                         _______ _______ _______ _____ _____    ______ ____
ROOT
ATOM      1  C   UNL     1       0.938   8.074  21.137  0.00  0.00    +0.000 C 
ATOM      2  O   UNL     1      -0.170   7.564  21.196  0.00  0.00    +0.000 OA
ATOM      3  N   UNL     1       2.086   7.474  20.654  0.00  0.00    +0.000 N 
ATOM      4  H   UNL     1       2.940   8.020  20.715  0.00  0.00    +0.000 HD
ENDROOT
BRANCH   3   5
ATOM      5  C   UNL     1       2.125   6.147  20.035  0.00  0.00    +0.000 C 
ATOM      6  C   UNL     1       1.947   5.068  21.107  0.00  0.00    +0.000 C 
ATOM      7  C   UNL     1       2.077   3.631  20.559  0.00  0.00    +0.000 C 
ATOM      8  C   UNL     1       2.201   2.668  21.763  0.00  0.00    +0.000 C 
ATOM      9  C   UNL     1       0.826   3.198  19.775  0.00  0.00    +0.000 C 
ATOM     10  N   UNL     1       3.307   3.469  19.779  0.00  0.00    +0.000 NA
ATOM     11  C   UNL     1       3.656   4.493  18.783  0.00  0.00    +0.000 C 
ATOM     12  C   UNL     1       5.161   4.285  18.499  0.00  0.00    +0.000 C 
ATOM     13  C   UNL     1       2.925   4.283  17.446  0.00  0.00    +0.000 C 
ATOM     14  C   UNL     1       3.460   5.929  19.315  0.00  0.00    +0.000 C 
ATOM     15  H   UNL     1       3.358   2.536  19.371  0.00  0.00    +0.000 HD
ENDBRANCH   3   5
BRANCH   1  16
ATOM     16  C   UNL     1       1.181   9.473  21.707  0.00  0.00    +0.000 C 
ATOM     17  O   UNL     1       1.805   9.555  22.760  0.00  0.00    +0.000 OA
BRANCH  16  23
ATOM     18  C   UNL     1      -0.111  11.684  21.630  0.00  0.00    +0.000 A 
ATOM     19  C   UNL     1      -0.604  12.737  20.842  0.00  0.00    +0.000 A 
ATOM     20  C   UNL     1      -0.282  12.847  19.488  0.00  0.00    +0.000 A 
ATOM     21  C   UNL     1       0.537  11.896  18.899  0.00  0.00    +0.000 A 
ATOM     22  C   UNL     1       1.007  10.820  19.657  0.00  0.00    +0.000 A 
ATOM     23  C   UNL     1       0.689  10.700  21.025  0.00  0.00    +0.000 A 
BRANCH  18  25
ATOM     24  C   UNL     1      -1.850  11.495  23.211  0.00  0.00    +0.000 C 
ATOM     25  O   UNL     1      -0.447  11.550  22.955  0.00  0.00    +0.000 OA
ENDBRANCH  18  25
ENDBRANCH  16  23
ENDBRANCH   1  16
TORSDOF 4
ENDMDL
MODEL 4
REMARK VINA RESULT:      -7.1      3.185      7.625
REMARK  Name = 
REMARK  9 active torsions:
REMARK  status: ('A' for Active; 'I' for Inactive)
REMARK    1  A    between atoms: C_1  and  O_2
REMARK    2  A    between atoms: O_2  and  C_3
REMARK    3  A    between atoms: C_8  and  C_9
REMARK    4  A    between atoms: C_9  and  C_11
REMARK    5  A    between atoms: N_13  and  C_14
REMARK    6  A    between atoms: C_16  and  C_17
REMARK    7  A    between atoms: C_16  and  C_18
REMARK    8  A    between atoms: C_20  and  C_21
REMARK    9  A    between atoms: C_20  and  C_22
REMARK                            x       y       z     vdW  Elec       q    Type
REMARK                         _______ _______ _______ _____ _____    ______ ____
ROOT
ATOM      1  C   UNL     1       2.630   5.650  18.372  0.00  0.00    +0.000 C 
ATOM      2  O   UNL     1       1.628   5.005  18.638  0.00  0.00    +0.000 OA
ATOM      3  N   UNL     1       2.763   7.022  18.460  0.00  0.00    +0.000 N 
ATOM      4  H   UNL     1       3.651   7.410  18.158  0.00  0.00    +0.000 HD
ENDROOT
BRANCH   3   5
ATOM      5  C   UNL     1       1.732   7.918  18.992  0.00  0.00    +0.000 C 
ATOM      6  C   UNL     1       1.939   9.332  18.443  0.00  0.00    +0.000 C 
ATOM      7  C   UNL     1       0.958  10.368  19.031  0.00  0.00    +0.000 C 
ATOM      8  C   UNL     1       1.468  11.779  18.656  0.00  0.00    +0.000 C 
ATOM      9  C   UNL     1      -0.452  10.234  18.428  0.00  0.00    +0.000 C 
ATOM     10  N   UNL     1       0.944  10.316  20.496  0.00  0.00    +0.000 NA
ATOM     11  C   UNL     1       0.856   9.006  21.158  0.00  0.00    +0.000 C 
ATOM     12  C   UNL     1       1.325   9.254  22.610  0.00  0.00    +0.000 C 
ATOM     13  C   UNL     1      -0.591   8.492  21.248  0.00  0.00    +0.000 C 
ATOM     14  C   UNL     1       1.792   7.955  20.523  0.00  0.00    +0.000 C 
ATOM     15  H   UNL     1       0.252  10.961  20.877  0.00  0.00    +0.000 HD
ENDBRANCH   3   5
BRANCH   1  16
ATOM     16  C   UNL     1       3.870   4.958  17.802  0.00  0.00    +0.000 C 
ATOM     17  O   UNL     1       3.702   3.913  17.183  0.00  0.00    +0.000 OA
BRANCH  16  23
ATOM     18  C   UNL     1       5.952   6.209  16.987  0.00  0.00    +0.000 A 
ATOM     19  C   UNL     1       7.281   6.586  17.245  0.00  0.00    +0.000 A 
ATOM     20  C   UNL     1       7.886   6.327  18.477  0.00  0.00    +0.000 A 
ATOM     21  C   UNL     1       7.168   5.676  19.469  0.00  0.00    +0.000 A 
ATOM     22  C   UNL     1       5.859   5.259  19.218  0.00  0.00    +0.000 A 
ATOM     23  C   UNL     1       5.237   5.517  17.980  0.00  0.00    +0.000 A 
BRANCH  18  25
ATOM     24  C   UNL     1       5.714   5.497  14.752  0.00  0.00    +0.000 C 
ATOM     25  O   UNL     1       5.358   6.433  15.769  0.00  0.00    +0.000 OA
ENDBRANCH  18  25
ENDBRANCH  16  23
ENDBRANCH   1  16
TORSDOF 4
ENDMDL
MODEL 5
REMARK VINA RESULT:      -7.1      2.045      3.442
REMARK  Name = 
REMARK  9 active torsions:
REMARK  status: ('A' for Active; 'I' for Inactive)
REMARK    1  A    between atoms: C_1  and  O_2
REMARK    2  A    between atoms: O_2  and  C_3
REMARK    3  A    between atoms: C_8  and  C_9
REMARK    4  A    between atoms: C_9  and  C_11
REMARK    5  A    between atoms: N_13  and  C_14
REMARK    6  A    between atoms: C_16  and  C_17
REMARK    7  A    between atoms: C_16  and  C_18
REMARK    8  A    between atoms: C_20  and  C_21
REMARK    9  A    between atoms: C_20  and  C_22
REMARK                            x       y       z     vdW  Elec       q    Type
REMARK                         _______ _______ _______ _____ _____    ______ ____
ROOT
ATOM      1  C   UNL     1       1.935   8.369  18.986  0.00  0.00    +0.000 C 
ATOM      2  O   UNL     1       1.759   8.111  20.166  0.00  0.00    +0.000 OA
ATOM      3  N   UNL     1       2.637   7.597  18.079  0.00  0.00    +0.000 N 
ATOM      4  H   UNL     1       2.729   7.975  17.141  0.00  0.00    +0.000 HD
ENDROOT
BRANCH   3   5
ATOM      5  C   UNL     1       3.200   6.278  18.381  0.00  0.00    +0.000 C 
ATOM      6  C   UNL     1       4.162   5.857  17.267  0.00  0.00    +0.000 C 
ATOM      7  C   UNL     1       4.726   4.432  17.449  0.00  0.00    +0.000 C 
ATOM      8  C   UNL     1       5.408   4.013  16.126  0.00  0.00    +0.000 C 
ATOM      9  C   UNL     1       5.810   4.377  18.541  0.00  0.00    +0.000 C 
ATOM     10  N   UNL     1       3.654   3.461  17.681  0.00  0.00    +0.000 NA
ATOM     11  C   UNL     1       2.599   3.786  18.652  0.00  0.00    +0.000 C 
ATOM     12  C   UNL     1       1.434   2.825  18.322  0.00  0.00    +0.000 C 
ATOM     13  C   UNL     1       3.022   3.480  20.100  0.00  0.00    +0.000 C 
ATOM     14  C   UNL     1       2.085   5.235  18.508  0.00  0.00    +0.000 C 
ATOM     15  H   UNL     1       4.036   2.532  17.859  0.00  0.00    +0.000 HD
ENDBRANCH   3   5
BRANCH   1  16
ATOM     16  C   UNL     1       1.437   9.690  18.397  0.00  0.00    +0.000 C 
ATOM     17  O   UNL     1       2.040  10.141  17.428  0.00  0.00    +0.000 OA
BRANCH  16  23
ATOM     18  C   UNL     1      -1.015  10.432  18.387  0.00  0.00    +0.000 A 
ATOM     19  C   UNL     1      -2.004  11.250  18.958  0.00  0.00    +0.000 A 
ATOM     20  C   UNL     1      -1.752  12.006  20.105  0.00  0.00    +0.000 A 
ATOM     21  C   UNL     1      -0.497  11.960  20.694  0.00  0.00    +0.000 A 
ATOM     22  C   UNL     1       0.511  11.183  20.118  0.00  0.00    +0.000 A 
ATOM     23  C   UNL     1       0.267  10.415  18.962  0.00  0.00    +0.000 A 
BRANCH  18  25
ATOM     24  C   UNL     1      -2.362  10.151  16.471  0.00  0.00    +0.000 C 
ATOM     25  O   UNL     1      -1.244   9.709  17.242  0.00  0.00    +0.000 OA
ENDBRANCH  18  25
ENDBRANCH  16  23
ENDBRANCH   1  16
TORSDOF 4
ENDMDL
MODEL 6
REMARK VINA RESULT:      -7.1      2.108      3.633
REMARK  Name = 
REMARK  9 active torsions:
REMARK  status: ('A' for Active; 'I' for Inactive)
REMARK    1  A    between atoms: C_1  and  O_2
REMARK    2  A    between atoms: O_2  and  C_3
REMARK    3  A    between atoms: C_8  and  C_9
REMARK    4  A    between atoms: C_9  and  C_11
REMARK    5  A    between atoms: N_13  and  C_14
REMARK    6  A    between atoms: C_16  and  C_17
REMARK    7  A    between atoms: C_16  and  C_18
REMARK    8  A    between atoms: C_20  and  C_21
REMARK    9  A    between atoms: C_20  and  C_22
REMARK                            x       y       z     vdW  Elec       q    Type
REMARK                         _______ _______ _______ _____ _____    ______ ____
ROOT
ATOM      1  C   UNL     1       1.929   8.448  18.895  0.00  0.00    +0.000 C 
ATOM      2  O   UNL     1       1.716   8.236  20.078  0.00  0.00    +0.000 OA
ATOM      3  N   UNL     1       2.629   7.625  18.033  0.00  0.00    +0.000 N 
ATOM      4  H   UNL     1       2.756   7.968  17.086  0.00  0.00    +0.000 HD
ENDROOT
BRANCH   3   5
ATOM      5  C   UNL     1       3.145   6.302  18.394  0.00  0.00    +0.000 C 
ATOM      6  C   UNL     1       4.123   5.815  17.320  0.00  0.00    +0.000 C 
ATOM      7  C   UNL     1       4.640   4.382  17.565  0.00  0.00    +0.000 C 
ATOM      8  C   UNL     1       5.343   3.898  16.276  0.00  0.00    +0.000 C 
ATOM      9  C   UNL     1       5.693   4.334  18.688  0.00  0.00    +0.000 C 
ATOM     10  N   UNL     1       3.533   3.450  17.801  0.00  0.00    +0.000 NA
ATOM     11  C   UNL     1       2.464   3.839  18.733  0.00  0.00    +0.000 C 
ATOM     12  C   UNL     1       1.280   2.901  18.404  0.00  0.00    +0.000 C 
ATOM     13  C   UNL     1       2.841   3.570  20.200  0.00  0.00    +0.000 C 
ATOM     14  C   UNL     1       1.997   5.296  18.526  0.00  0.00    +0.000 C 
ATOM     15  H   UNL     1       3.883   2.518  18.021  0.00  0.00    +0.000 HD
ENDBRANCH   3   5
BRANCH   1  16
ATOM     16  C   UNL     1       1.485   9.762  18.248  0.00  0.00    +0.000 C 
ATOM     17  O   UNL     1       2.262  10.300  17.467  0.00  0.00    +0.000 OA
BRANCH  16  23
ATOM     18  C   UNL     1      -0.097  11.227  19.632  0.00  0.00    +0.000 A 
ATOM     19  C   UNL     1      -1.417  11.651  19.862  0.00  0.00    +0.000 A 
ATOM     20  C   UNL     1      -2.459  11.284  19.009  0.00  0.00    +0.000 A 
ATOM     21  C   UNL     1      -2.196  10.477  17.913  0.00  0.00    +0.000 A 
ATOM     22  C   UNL     1      -0.897  10.013  17.689  0.00  0.00    +0.000 A 
ATOM     23  C   UNL     1       0.163  10.379  18.542  0.00  0.00    +0.000 A 
BRANCH  18  25
ATOM     24  C   UNL     1       1.456  12.872  20.298  0.00  0.00    +0.000 C 
ATOM     25  O   UNL     1       0.930  11.557  20.482  0.00  0.00    +0.000 OA
ENDBRANCH  18  25
ENDBRANCH  16  23
ENDBRANCH   1  16
TORSDOF 4
ENDMDL
MODEL 7
REMARK VINA RESULT:      -7.1      2.647      3.239
REMARK  Name = 
REMARK  9 active torsions:
REMARK  status: ('A' for Active; 'I' for Inactive)
REMARK    1  A    between atoms: C_1  and  O_2
REMARK    2  A    between atoms: O_2  and  C_3
REMARK    3  A    between atoms: C_8  and  C_9
REMARK    4  A    between atoms: C_9  and  C_11
REMARK    5  A    between atoms: N_13  and  C_14
REMARK    6  A    between atoms: C_16  and  C_17
REMARK    7  A    between atoms: C_16  and  C_18
REMARK    8  A    between atoms: C_20  and  C_21
REMARK    9  A    between atoms: C_20  and  C_22
REMARK                            x       y       z     vdW  Elec       q    Type
REMARK                         _______ _______ _______ _____ _____    ______ ____
ROOT
ATOM      1  C   UNL     1       1.886   8.749  18.393  0.00  0.00    +0.000 C 
ATOM      2  O   UNL     1       1.983   9.125  17.235  0.00  0.00    +0.000 OA
ATOM      3  N   UNL     1       2.353   7.553  18.904  0.00  0.00    +0.000 N 
ATOM      4  H   UNL     1       2.152   7.371  19.882  0.00  0.00    +0.000 HD
ENDROOT
BRANCH   3   5
ATOM      5  C   UNL     1       3.138   6.581  18.139  0.00  0.00    +0.000 C 
ATOM      6  C   UNL     1       3.289   5.286  18.942  0.00  0.00    +0.000 C 
ATOM      7  C   UNL     1       4.191   4.239  18.256  0.00  0.00    +0.000 C 
ATOM      8  C   UNL     1       4.519   3.137  19.290  0.00  0.00    +0.000 C 
ATOM      9  C   UNL     1       3.476   3.544  17.083  0.00  0.00    +0.000 C 
ATOM     10  N   UNL     1       5.475   4.822  17.859  0.00  0.00    +0.000 NA
ATOM     11  C   UNL     1       5.483   6.121  17.170  0.00  0.00    +0.000 C 
ATOM     12  C   UNL     1       6.929   6.648  17.316  0.00  0.00    +0.000 C 
ATOM     13  C   UNL     1       5.217   5.984  15.661  0.00  0.00    +0.000 C 
ATOM     14  C   UNL     1       4.528   7.144  17.822  0.00  0.00    +0.000 C 
ATOM     15  H   UNL     1       6.043   4.141  17.354  0.00  0.00    +0.000 HD
ENDBRANCH   3   5
BRANCH   1  16
ATOM     16  C   UNL     1       1.117   9.585  19.419  0.00  0.00    +0.000 C 
ATOM     17  O   UNL     1       0.987   9.119  20.546  0.00  0.00    +0.000 OA
BRANCH  16  23
ATOM     18  C   UNL     1      -0.744  11.116  18.550  0.00  0.00    +0.000 A 
ATOM     19  C   UNL     1      -1.124  12.414  18.167  0.00  0.00    +0.000 A 
ATOM     20  C   UNL     1      -0.271  13.505  18.344  0.00  0.00    +0.000 A 
ATOM     21  C   UNL     1       0.983  13.311  18.902  0.00  0.00    +0.000 A 
ATOM     22  C   UNL     1       1.394  12.023  19.253  0.00  0.00    +0.000 A 
ATOM     23  C   UNL     1       0.541  10.914  19.081  0.00  0.00    +0.000 A 
BRANCH  18  25
ATOM     24  C   UNL     1      -2.061   9.896  17.021  0.00  0.00    +0.000 C 
ATOM     25  O   UNL     1      -1.564  10.032  18.353  0.00  0.00    +0.000 OA
ENDBRANCH  18  25
ENDBRANCH  16  23
ENDBRANCH   1  16
TORSDOF 4
ENDMDL
MODEL 8
REMARK VINA RESULT:      -6.9      2.915      7.943
REMARK  Name = 
REMARK  9 active torsions:
REMARK  status: ('A' for Active; 'I' for Inactive)
REMARK    1  A    between atoms: C_1  and  O_2
REMARK    2  A    between atoms: O_2  and  C_3
REMARK    3  A    between atoms: C_8  and  C_9
REMARK    4  A    between atoms: C_9  and  C_11
REMARK    5  A    between atoms: N_13  and  C_14
REMARK    6  A    between atoms: C_16  and  C_17
REMARK    7  A    between atoms: C_16  and  C_18
REMARK    8  A    between atoms: C_20  and  C_21
REMARK    9  A    between atoms: C_20  and  C_22
REMARK                            x       y       z     vdW  Elec       q    Type
REMARK                         _______ _______ _______ _____ _____    ______ ____
ROOT
ATOM      1  C   UNL     1       2.329   7.808  18.912  0.00  0.00    +0.000 C 
ATOM      2  O   UNL     1       2.017   7.598  20.074  0.00  0.00    +0.000 OA
ATOM      3  N   UNL     1       1.992   8.921  18.167  0.00  0.00    +0.000 N 
ATOM      4  H   UNL     1       2.294   8.923  17.197  0.00  0.00    +0.000 HD
ENDROOT
BRANCH   3   5
ATOM      5  C   UNL     1       1.281  10.087  18.700  0.00  0.00    +0.000 C 
ATOM      6  C   UNL     1      -0.107  10.185  18.062  0.00  0.00    +0.000 C 
ATOM      7  C   UNL     1      -0.891  11.444  18.488  0.00  0.00    +0.000 C 
ATOM      8  C   UNL     1      -2.110  11.592  17.549  0.00  0.00    +0.000 C 
ATOM      9  C   UNL     1      -1.448  11.318  19.918  0.00  0.00    +0.000 C 
ATOM     10  N   UNL     1      -0.088  12.656  18.309  0.00  0.00    +0.000 NA
ATOM     11  C   UNL     1       1.304  12.663  18.782  0.00  0.00    +0.000 C 
ATOM     12  C   UNL     1       1.976  13.847  18.049  0.00  0.00    +0.000 C 
ATOM     13  C   UNL     1       1.409  12.964  20.288  0.00  0.00    +0.000 C 
ATOM     14  C   UNL     1       2.064  11.372  18.409  0.00  0.00    +0.000 C 
ATOM     15  H   UNL     1      -0.589  13.478  18.647  0.00  0.00    +0.000 HD
ENDBRANCH   3   5
BRANCH   1  16
ATOM     16  C   UNL     1       3.092   6.751  18.110  0.00  0.00    +0.000 C 
ATOM     17  O   UNL     1       3.779   7.140  17.171  0.00  0.00    +0.000 OA
BRANCH  16  23
ATOM     18  C   UNL     1       3.971   4.610  19.208  0.00  0.00    +0.000 A 
ATOM     19  C   UNL     1       3.844   3.218  19.352  0.00  0.00    +0.000 A 
ATOM     20  C   UNL     1       2.772   2.522  18.789  0.00  0.00    +0.000 A 
ATOM     21  C   UNL     1       1.813   3.211  18.063  0.00  0.00    +0.000 A 
ATOM     22  C   UNL     1       1.942   4.590  17.877  0.00  0.00    +0.000 A 
ATOM     23  C   UNL     1       3.018   5.303  18.442  0.00  0.00    +0.000 A 
BRANCH  18  25
ATOM     24  C   UNL     1       6.261   5.139  19.015  0.00  0.00    +0.000 C 
ATOM     25  O   UNL     1       5.036   5.299  19.732  0.00  0.00    +0.000 OA
ENDBRANCH  18  25
ENDBRANCH  16  23
ENDBRANCH   1  16
TORSDOF 4
ENDMDL
MODEL 9
REMARK VINA RESULT:      -6.9      2.889      7.996
REMARK  Name = 
REMARK  9 active torsions:
REMARK  status: ('A' for Active; 'I' for Inactive)
REMARK    1  A    between atoms: C_1  and  O_2
REMARK    2  A    between atoms: O_2  and  C_3
REMARK    3  A    between atoms: C_8  and  C_9
REMARK    4  A    between atoms: C_9  and  C_11
REMARK    5  A    between atoms: N_13  and  C_14
REMARK    6  A    between atoms: C_16  and  C_17
REMARK    7  A    between atoms: C_16  and  C_18
REMARK    8  A    between atoms: C_20  and  C_21
REMARK    9  A    between atoms: C_20  and  C_22
REMARK                            x       y       z     vdW  Elec       q    Type
REMARK                         _______ _______ _______ _____ _____    ______ ____
ROOT
ATOM      1  C   UNL     1       2.220   7.484  19.033  0.00  0.00    +0.000 C 
ATOM      2  O   UNL     1       2.058   7.402  20.240  0.00  0.00    +0.000 OA
ATOM      3  N   UNL     1       1.833   8.539  18.228  0.00  0.00    +0.000 N 
ATOM      4  H   UNL     1       2.002   8.432  17.233  0.00  0.00    +0.000 HD
ENDROOT
BRANCH   3   5
ATOM      5  C   UNL     1       1.250   9.787  18.729  0.00  0.00    +0.000 C 
ATOM      6  C   UNL     1      -0.133   9.999  18.108  0.00  0.00    +0.000 C 
ATOM      7  C   UNL     1      -0.781  11.344  18.500  0.00  0.00    +0.000 C 
ATOM      8  C   UNL     1      -1.998  11.578  17.574  0.00  0.00    +0.000 C 
ATOM      9  C   UNL     1      -1.322  11.325  19.942  0.00  0.00    +0.000 C 
ATOM     10  N   UNL     1       0.133  12.464  18.264  0.00  0.00    +0.000 NA
ATOM     11  C   UNL     1       1.528  12.350  18.715  0.00  0.00    +0.000 C 
ATOM     12  C   UNL     1       2.299  13.435  17.929  0.00  0.00    +0.000 C 
ATOM     13  C   UNL     1       1.690  12.692  20.207  0.00  0.00    +0.000 C 
ATOM     14  C   UNL     1       2.150  10.977  18.379  0.00  0.00    +0.000 C 
ATOM     15  H   UNL     1      -0.278  13.342  18.579  0.00  0.00    +0.000 HD
ENDBRANCH   3   5
BRANCH   1  16
ATOM     16  C   UNL     1       2.823   6.316  18.249  0.00  0.00    +0.000 C 
ATOM     17  O   UNL     1       2.047   5.537  17.707  0.00  0.00    +0.000 OA
BRANCH  16  23
ATOM     18  C   UNL     1       5.036   5.205  18.906  0.00  0.00    +0.000 A 
ATOM     19  C   UNL     1       6.436   5.196  18.784  0.00  0.00    +0.000 A 
ATOM     20  C   UNL     1       7.094   6.039  17.886  0.00  0.00    +0.000 A 
ATOM     21  C   UNL     1       6.358   6.913  17.101  0.00  0.00    +0.000 A 
ATOM     22  C   UNL     1       4.968   6.964  17.236  0.00  0.00    +0.000 A 
ATOM     23  C   UNL     1       4.293   6.116  18.137  0.00  0.00    +0.000 A 
BRANCH  18  25
ATOM     24  C   UNL     1       4.399   3.010  19.488  0.00  0.00    +0.000 C 
ATOM     25  O   UNL     1       4.381   4.402  19.807  0.00  0.00    +0.000 OA
ENDBRANCH  18  25
ENDBRANCH  16  23
ENDBRANCH   1  16
TORSDOF 4
ENDMDL
