MODEL 1
REMARK VINA RESULT:      -7.6      0.000      0.000
REMARK  Name = 
REMARK  2 active torsions:
REMARK  status: ('A' for Active; 'I' for Inactive)
REMARK    1  A    between atoms: C_8  and  C_9
REMARK    2  A    between atoms: C_11  and  C_12
REMARK                            x       y       z     vdW  Elec       q    Type
REMARK                         _______ _______ _______ _____ _____    ______ ____
ROOT
ATOM      1  C   UNL     1       4.009   4.314  17.515  0.00  0.00    +0.000 A 
ATOM      2  N   UNL     1       4.367   3.761  16.377  0.00  0.00    +0.000 NA
ATOM      3  C   UNL     1       5.253   4.681  15.854  0.00  0.00    +0.000 A 
ATOM      4  N   UNL     1       5.443   5.755  16.638  0.00  0.00    +0.000 NA
ATOM      5  O   UNL     1       4.621   5.515  17.735  0.00  0.00    +0.000 OA
ENDROOT
BRANCH   1  13
ATOM      6  F   UNL     1       1.175   4.526  17.401  0.00  0.00    +0.000 F 
ATOM      7  C   UNL     1       1.743   3.974  18.484  0.00  0.00    +0.000 A 
ATOM      8  C   UNL     1       0.902   3.538  19.508  0.00  0.00    +0.000 A 
ATOM      9  C   UNL     1       1.443   2.944  20.645  0.00  0.00    +0.000 A 
ATOM     10  C   UNL     1       2.823   2.783  20.742  0.00  0.00    +0.000 A 
ATOM     11  C   UNL     1       3.652   3.221  19.706  0.00  0.00    +0.000 A 
ATOM     12  F   UNL     1       4.976   3.058  19.854  0.00  0.00    +0.000 F 
ATOM     13  C   UNL     1       3.133   3.834  18.564  0.00  0.00    +0.000 A 
ENDBRANCH   1  13
BRANCH   3  14
ATOM     14  C   UNL     1       5.912   4.491  14.570  0.00  0.00    +0.000 A 
ATOM     15  C   UNL     1       7.102   5.162  14.279  0.00  0.00    +0.000 A 
ATOM     16  C   UNL     1       7.696   4.947  13.047  0.00  0.00    +0.000 A 
ATOM     17  N   UNL     1       7.192   4.125  12.103  0.00  0.00    +0.000 NA
ATOM     18  C   UNL     1       6.041   3.488  12.402  0.00  0.00    +0.000 A 
ATOM     19  C   UNL     1       5.371   3.636  13.605  0.00  0.00    +0.000 A 
ENDBRANCH   3  14
TORSDOF 2
ENDMDL
MODEL 2
REMARK VINA RESULT:      -7.5      0.228      2.190
REMARK  Name = 
REMARK  2 active torsions:
REMARK  status: ('A' for Active; 'I' for Inactive)
REMARK    1  A    between atoms: C_8  and  C_9
REMARK    2  A    between atoms: C_11  and  C_12
REMARK                            x       y       z     vdW  Elec       q    Type
REMARK                         _______ _______ _______ _____ _____    ______ ____
ROOT
ATOM      1  C   UNL     1       3.866   4.398  17.426  0.00  0.00    +0.000 A 
ATOM      2  N   UNL     1       4.406   3.771  16.404  0.00  0.00    +0.000 NA
ATOM      3  C   UNL     1       5.074   4.782  15.744  0.00  0.00    +0.000 A 
ATOM      4  N   UNL     1       4.961   5.982  16.336  0.00  0.00    +0.000 NA
ATOM      5  O   UNL     1       4.162   5.730  17.446  0.00  0.00    +0.000 OA
ENDROOT
BRANCH   1  13
ATOM      6  F   UNL     1       5.001   3.269  19.777  0.00  0.00    +0.000 F 
ATOM      7  C   UNL     1       3.665   3.328  19.663  0.00  0.00    +0.000 A 
ATOM      8  C   UNL     1       2.900   2.818  20.713  0.00  0.00    +0.000 A 
ATOM      9  C   UNL     1       1.511   2.870  20.649  0.00  0.00    +0.000 A 
ATOM     10  C   UNL     1       0.899   3.444  19.537  0.00  0.00    +0.000 A 
ATOM     11  C   UNL     1       1.678   3.953  18.495  0.00  0.00    +0.000 A 
ATOM     12  F   UNL     1       1.041   4.479  17.438  0.00  0.00    +0.000 F 
ATOM     13  C   UNL     1       3.073   3.896  18.531  0.00  0.00    +0.000 A 
ENDBRANCH   1  13
BRANCH   3  14
ATOM     14  C   UNL     1       5.829   4.552  14.520  0.00  0.00    +0.000 A 
ATOM     15  C   UNL     1       5.320   3.720  13.521  0.00  0.00    +0.000 A 
ATOM     16  C   UNL     1       6.069   3.534  12.372  0.00  0.00    +0.000 A 
ATOM     17  N   UNL     1       7.271   4.111  12.158  0.00  0.00    +0.000 NA
ATOM     18  C   UNL     1       7.746   4.909  13.135  0.00  0.00    +0.000 A 
ATOM     19  C   UNL     1       7.073   5.158  14.319  0.00  0.00    +0.000 A 
ENDBRANCH   3  14
TORSDOF 2
ENDMDL
MODEL 3
REMARK VINA RESULT:      -7.5      1.391      1.549
REMARK  Name = 
REMARK  2 active torsions:
REMARK  status: ('A' for Active; 'I' for Inactive)
REMARK    1  A    between atoms: C_8  and  C_9
REMARK    2  A    between atoms: C_11  and  C_12
REMARK                            x       y       z     vdW  Elec       q    Type
REMARK                         _______ _______ _______ _____ _____    ______ ____
ROOT
ATOM      1  C   UNL     1       4.305   4.123  17.628  0.00  0.00    +0.000 A 
ATOM      2  N   UNL     1       4.334   4.089  16.314  0.00  0.00    +0.000 NA
ATOM      3  C   UNL     1       5.677   4.242  16.034  0.00  0.00    +0.000 A 
ATOM      4  N   UNL     1       6.449   4.356  17.127  0.00  0.00    +0.000 NA
ATOM      5  O   UNL     1       5.544   4.279  18.181  0.00  0.00    +0.000 OA
ENDROOT
BRANCH   1  13
ATOM      6  F   UNL     1       3.591   6.097  19.547  0.00  0.00    +0.000 F 
ATOM      7  C   UNL     1       2.890   4.953  19.499  0.00  0.00    +0.000 A 
ATOM      8  C   UNL     1       1.844   4.793  20.408  0.00  0.00    +0.000 A 
ATOM      9  C   UNL     1       1.078   3.630  20.387  0.00  0.00    +0.000 A 
ATOM     10  C   UNL     1       1.360   2.642  19.446  0.00  0.00    +0.000 A 
ATOM     11  C   UNL     1       2.408   2.820  18.539  0.00  0.00    +0.000 A 
ATOM     12  F   UNL     1       2.651   1.832  17.664  0.00  0.00    +0.000 F 
ATOM     13  C   UNL     1       3.200   3.970  18.553  0.00  0.00    +0.000 A 
ENDBRANCH   1  13
BRANCH   3  14
ATOM     14  C   UNL     1       6.194   4.273  14.673  0.00  0.00    +0.000 A 
ATOM     15  C   UNL     1       7.285   5.082  14.349  0.00  0.00    +0.000 A 
ATOM     16  C   UNL     1       7.745   5.077  13.043  0.00  0.00    +0.000 A 
ATOM     17  N   UNL     1       7.198   4.335  12.057  0.00  0.00    +0.000 NA
ATOM     18  C   UNL     1       6.144   3.563  12.390  0.00  0.00    +0.000 A 
ATOM     19  C   UNL     1       5.611   3.498  13.666  0.00  0.00    +0.000 A 
ENDBRANCH   3  14
TORSDOF 2
ENDMDL
MODEL 4
REMARK VINA RESULT:      -7.5      1.374      1.781
REMARK  Name = 
REMARK  2 active torsions:
REMARK  status: ('A' for Active; 'I' for Inactive)
REMARK    1  A    between atoms: C_8  and  C_9
REMARK    2  A    between atoms: C_11  and  C_12
REMARK                            x       y       z     vdW  Elec       q    Type
REMARK                         _______ _______ _______ _____ _____    ______ ____
ROOT
ATOM      1  C   UNL     1       4.333   4.108  17.601  0.00  0.00    +0.000 A 
ATOM      2  N   UNL     1       4.363   4.082  16.287  0.00  0.00    +0.000 NA
ATOM      3  C   UNL     1       5.707   4.230  16.009  0.00  0.00    +0.000 A 
ATOM      4  N   UNL     1       6.478   4.335  17.104  0.00  0.00    +0.000 NA
ATOM      5  O   UNL     1       5.571   4.255  18.157  0.00  0.00    +0.000 OA
ENDROOT
BRANCH   1  13
ATOM      6  F   UNL     1       2.573   1.873  17.572  0.00  0.00    +0.000 F 
ATOM      7  C   UNL     1       2.368   2.852  18.467  0.00  0.00    +0.000 A 
ATOM      8  C   UNL     1       1.285   2.719  19.337  0.00  0.00    +0.000 A 
ATOM      9  C   UNL     1       1.039   3.700  20.294  0.00  0.00    +0.000 A 
ATOM     10  C   UNL     1       1.888   4.801  20.378  0.00  0.00    +0.000 A 
ATOM     11  C   UNL     1       2.971   4.918  19.503  0.00  0.00    +0.000 A 
ATOM     12  F   UNL     1       3.749   6.005  19.613  0.00  0.00    +0.000 F 
ATOM     13  C   UNL     1       3.226   3.955  18.524  0.00  0.00    +0.000 A 
ENDBRANCH   1  13
BRANCH   3  14
ATOM     14  C   UNL     1       6.225   4.268  14.649  0.00  0.00    +0.000 A 
ATOM     15  C   UNL     1       5.647   3.483  13.649  0.00  0.00    +0.000 A 
ATOM     16  C   UNL     1       6.169   3.554  12.369  0.00  0.00    +0.000 A 
ATOM     17  N   UNL     1       7.211   4.340  12.027  0.00  0.00    +0.000 NA
ATOM     18  C   UNL     1       7.758   5.089  13.007  0.00  0.00    +0.000 A 
ATOM     19  C   UNL     1       7.307   5.088  14.315  0.00  0.00    +0.000 A 
ENDBRANCH   3  14
TORSDOF 2
ENDMDL
MODEL 5
REMARK VINA RESULT:      -7.4      1.326      1.736
REMARK  Name = 
REMARK  2 active torsions:
REMARK  status: ('A' for Active; 'I' for Inactive)
REMARK    1  A    between atoms: C_8  and  C_9
REMARK    2  A    between atoms: C_11  and  C_12
REMARK                            x       y       z     vdW  Elec       q    Type
REMARK                         _______ _______ _______ _____ _____    ______ ____
ROOT
ATOM      1  C   UNL     1       4.368   4.036  17.532  0.00  0.00    +0.000 A 
ATOM      2  N   UNL     1       4.419   3.985  16.219  0.00  0.00    +0.000 NA
ATOM      3  C   UNL     1       5.750   4.232  15.954  0.00  0.00    +0.000 A 
ATOM      4  N   UNL     1       6.496   4.420  17.055  0.00  0.00    +0.000 NA
ATOM      5  O   UNL     1       5.584   4.292  18.098  0.00  0.00    +0.000 OA
ENDROOT
BRANCH   1  13
ATOM      6  F   UNL     1       3.134   6.121  19.022  0.00  0.00    +0.000 F 
ATOM      7  C   UNL     1       2.695   4.862  19.177  0.00  0.00    +0.000 A 
ATOM      8  C   UNL     1       1.652   4.644  20.078  0.00  0.00    +0.000 A 
ATOM      9  C   UNL     1       1.151   3.358  20.263  0.00  0.00    +0.000 A 
ATOM     10  C   UNL     1       1.694   2.302  19.534  0.00  0.00    +0.000 A 
ATOM     11  C   UNL     1       2.736   2.537  18.633  0.00  0.00    +0.000 A 
ATOM     12  F   UNL     1       3.236   1.484  17.969  0.00  0.00    +0.000 F 
ATOM     13  C   UNL     1       3.265   3.815  18.445  0.00  0.00    +0.000 A 
ENDBRANCH   1  13
BRANCH   3  14
ATOM     14  C   UNL     1       6.282   4.282  14.600  0.00  0.00    +0.000 A 
ATOM     15  C   UNL     1       5.752   3.463  13.601  0.00  0.00    +0.000 A 
ATOM     16  C   UNL     1       6.286   3.548  12.326  0.00  0.00    +0.000 A 
ATOM     17  N   UNL     1       7.296   4.377  11.988  0.00  0.00    +0.000 NA
ATOM     18  C   UNL     1       7.796   5.158  12.968  0.00  0.00    +0.000 A 
ATOM     19  C   UNL     1       7.330   5.148  14.271  0.00  0.00    +0.000 A 
ENDBRANCH   3  14
TORSDOF 2
ENDMDL
MODEL 6
REMARK VINA RESULT:      -7.4      1.330      1.356
REMARK  Name = 
REMARK  2 active torsions:
REMARK  status: ('A' for Active; 'I' for Inactive)
REMARK    1  A    between atoms: C_8  and  C_9
REMARK    2  A    between atoms: C_11  and  C_12
REMARK                            x       y       z     vdW  Elec       q    Type
REMARK                         _______ _______ _______ _____ _____    ______ ____
ROOT
ATOM      1  C   UNL     1       4.217   4.101  17.588  0.00  0.00    +0.000 A 
ATOM      2  N   UNL     1       4.263   4.054  16.275  0.00  0.00    +0.000 NA
ATOM      3  C   UNL     1       5.606   4.229  16.010  0.00  0.00    +0.000 A 
ATOM      4  N   UNL     1       6.362   4.369  17.111  0.00  0.00    +0.000 NA
ATOM      5  O   UNL     1       5.445   4.286  18.155  0.00  0.00    +0.000 OA
ENDROOT
BRANCH   1  13
ATOM      6  F   UNL     1       2.352   1.960  17.408  0.00  0.00    +0.000 F 
ATOM      7  C   UNL     1       2.193   2.883  18.370  0.00  0.00    +0.000 A 
ATOM      8  C   UNL     1       1.104   2.742  19.231  0.00  0.00    +0.000 A 
ATOM      9  C   UNL     1       0.904   3.665  20.254  0.00  0.00    +0.000 A 
ATOM     10  C   UNL     1       1.806   4.716  20.412  0.00  0.00    +0.000 A 
ATOM     11  C   UNL     1       2.893   4.841  19.545  0.00  0.00    +0.000 A 
ATOM     12  F   UNL     1       3.722   5.879  19.728  0.00  0.00    +0.000 F 
ATOM     13  C   UNL     1       3.103   3.937  18.501  0.00  0.00    +0.000 A 
ENDBRANCH   1  13
BRANCH   3  14
ATOM     14  C   UNL     1       6.140   4.256  14.655  0.00  0.00    +0.000 A 
ATOM     15  C   UNL     1       7.251   5.043  14.348  0.00  0.00    +0.000 A 
ATOM     16  C   UNL     1       7.727   5.034  13.048  0.00  0.00    +0.000 A 
ATOM     17  N   UNL     1       7.176   4.308  12.052  0.00  0.00    +0.000 NA
ATOM     18  C   UNL     1       6.102   3.557  12.368  0.00  0.00    +0.000 A 
ATOM     19  C   UNL     1       5.553   3.497  13.638  0.00  0.00    +0.000 A 
ENDBRANCH   3  14
TORSDOF 2
ENDMDL
MODEL 7
REMARK VINA RESULT:      -7.4      0.569      1.219
REMARK  Name = 
REMARK  2 active torsions:
REMARK  status: ('A' for Active; 'I' for Inactive)
REMARK    1  A    between atoms: C_8  and  C_9
REMARK    2  A    between atoms: C_11  and  C_12
REMARK                            x       y       z     vdW  Elec       q    Type
REMARK                         _______ _______ _______ _____ _____    ______ ____
ROOT
ATOM      1  C   UNL     1       4.324   4.157  17.827  0.00  0.00    +0.000 A 
ATOM      2  N   UNL     1       4.386   3.867  16.546  0.00  0.00    +0.000 NA
ATOM      3  C   UNL     1       5.596   4.411  16.168  0.00  0.00    +0.000 A 
ATOM      4  N   UNL     1       6.260   5.006  17.172  0.00  0.00    +0.000 NA
ATOM      5  O   UNL     1       5.421   4.840  18.269  0.00  0.00    +0.000 OA
ENDROOT
BRANCH   1  13
ATOM      6  F   UNL     1       1.676   5.195  17.788  0.00  0.00    +0.000 F 
ATOM      7  C   UNL     1       2.038   4.372  18.785  0.00  0.00    +0.000 A 
ATOM      8  C   UNL     1       1.085   4.076  19.761  0.00  0.00    +0.000 A 
ATOM      9  C   UNL     1       1.407   3.216  20.807  0.00  0.00    +0.000 A 
ATOM     10  C   UNL     1       2.680   2.649  20.859  0.00  0.00    +0.000 A 
ATOM     11  C   UNL     1       3.621   2.952  19.872  0.00  0.00    +0.000 A 
ATOM     12  F   UNL     1       4.837   2.396  19.977  0.00  0.00    +0.000 F 
ATOM     13  C   UNL     1       3.325   3.826  18.824  0.00  0.00    +0.000 A 
ENDBRANCH   1  13
BRANCH   3  14
ATOM     14  C   UNL     1       6.093   4.339  14.801  0.00  0.00    +0.000 A 
ATOM     15  C   UNL     1       5.454   3.532  13.857  0.00  0.00    +0.000 A 
ATOM     16  C   UNL     1       5.959   3.498  12.568  0.00  0.00    +0.000 A 
ATOM     17  N   UNL     1       7.038   4.200  12.166  0.00  0.00    +0.000 NA
ATOM     18  C   UNL     1       7.643   4.972  13.093  0.00  0.00    +0.000 A 
ATOM     19  C   UNL     1       7.215   5.074  14.405  0.00  0.00    +0.000 A 
ENDBRANCH   3  14
TORSDOF 2
ENDMDL
MODEL 8
REMARK VINA RESULT:      -7.4      0.877      2.263
REMARK  Name = 
REMARK  2 active torsions:
REMARK  status: ('A' for Active; 'I' for Inactive)
REMARK    1  A    between atoms: C_8  and  C_9
REMARK    2  A    between atoms: C_11  and  C_12
REMARK                            x       y       z     vdW  Elec       q    Type
REMARK                         _______ _______ _______ _____ _____    ______ ____
ROOT
ATOM      1  C   UNL     1       4.471   4.073  18.064  0.00  0.00    +0.000 A 
ATOM      2  N   UNL     1       4.440   3.945  16.756  0.00  0.00    +0.000 NA
ATOM      3  C   UNL     1       5.729   4.270  16.386  0.00  0.00    +0.000 A 
ATOM      4  N   UNL     1       6.528   4.578  17.420  0.00  0.00    +0.000 NA
ATOM      5  O   UNL     1       5.698   4.449  18.529  0.00  0.00    +0.000 OA
ENDROOT
BRANCH   1  13
ATOM      6  F   UNL     1       4.734   2.137  20.131  0.00  0.00    +0.000 F 
ATOM      7  C   UNL     1       3.603   2.855  20.052  0.00  0.00    +0.000 A 
ATOM      8  C   UNL     1       2.605   2.603  20.995  0.00  0.00    +0.000 A 
ATOM      9  C   UNL     1       1.420   3.332  20.964  0.00  0.00    +0.000 A 
ATOM     10  C   UNL     1       1.249   4.318  19.994  0.00  0.00    +0.000 A 
ATOM     11  C   UNL     1       2.258   4.562  19.060  0.00  0.00    +0.000 A 
ATOM     12  F   UNL     1       2.039   5.509  18.136  0.00  0.00    +0.000 F 
ATOM     13  C   UNL     1       3.448   3.831  19.062  0.00  0.00    +0.000 A 
ENDBRANCH   1  13
BRANCH   3  14
ATOM     14  C   UNL     1       6.167   4.274  14.997  0.00  0.00    +0.000 A 
ATOM     15  C   UNL     1       5.484   3.525  14.037  0.00  0.00    +0.000 A 
ATOM     16  C   UNL     1       5.933   3.563  12.728  0.00  0.00    +0.000 A 
ATOM     17  N   UNL     1       6.999   4.283  12.321  0.00  0.00    +0.000 NA
ATOM     18  C   UNL     1       7.647   4.998  13.263  0.00  0.00    +0.000 A 
ATOM     19  C   UNL     1       7.275   5.026  14.596  0.00  0.00    +0.000 A 
ENDBRANCH   3  14
TORSDOF 2
ENDMDL
MODEL 9
REMARK VINA RESULT:      -7.3      1.037      1.041
REMARK  Name = 
REMARK  2 active torsions:
REMARK  status: ('A' for Active; 'I' for Inactive)
REMARK    1  A    between atoms: C_8  and  C_9
REMARK    2  A    between atoms: C_11  and  C_12
REMARK                            x       y       z     vdW  Elec       q    Type
REMARK                         _______ _______ _______ _____ _____    ______ ____
ROOT
ATOM      1  C   UNL     1       4.384   3.961  18.351  0.00  0.00    +0.000 A 
ATOM      2  N   UNL     1       4.366   3.895  17.038  0.00  0.00    +0.000 NA
ATOM      3  C   UNL     1       5.665   4.212  16.697  0.00  0.00    +0.000 A 
ATOM      4  N   UNL     1       6.458   4.456  17.753  0.00  0.00    +0.000 NA
ATOM      5  O   UNL     1       5.613   4.292  18.846  0.00  0.00    +0.000 OA
ENDROOT
BRANCH   1  13
ATOM      6  F   UNL     1       1.866   5.284  18.354  0.00  0.00    +0.000 F 
ATOM      7  C   UNL     1       2.127   4.378  19.309  0.00  0.00    +0.000 A 
ATOM      8  C   UNL     1       1.139   4.140  20.265  0.00  0.00    +0.000 A 
ATOM      9  C   UNL     1       1.355   3.198  21.267  0.00  0.00    +0.000 A 
ATOM     10  C   UNL     1       2.557   2.494  21.296  0.00  0.00    +0.000 A 
ATOM     11  C   UNL     1       3.535   2.741  20.329  0.00  0.00    +0.000 A 
ATOM     12  F   UNL     1       4.681   2.049  20.410  0.00  0.00    +0.000 F 
ATOM     13  C   UNL     1       3.346   3.693  19.325  0.00  0.00    +0.000 A 
ENDBRANCH   1  13
BRANCH   3  14
ATOM     14  C   UNL     1       6.119   4.272  15.314  0.00  0.00    +0.000 A 
ATOM     15  C   UNL     1       7.219   5.057  14.964  0.00  0.00    +0.000 A 
ATOM     16  C   UNL     1       7.618   5.080  13.638  0.00  0.00    +0.000 A 
ATOM     17  N   UNL     1       7.003   4.387  12.657  0.00  0.00    +0.000 NA
ATOM     18  C   UNL     1       5.941   3.636  13.015  0.00  0.00    +0.000 A 
ATOM     19  C   UNL     1       5.466   3.547  14.313  0.00  0.00    +0.000 A 
ENDBRANCH   3  14
TORSDOF 2
ENDMDL
