MODEL 1
REMARK VINA RESULT:      -7.6      0.000      0.000
REMARK  Name = 
REMARK  9 active torsions:
REMARK  status: ('A' for Active; 'I' for Inactive)
REMARK    1  A    between atoms: C_1  and  O_2
REMARK    2  A    between atoms: O_2  and  C_3
REMARK    3  A    between atoms: C_5  and  C_6
REMARK    4  A    between atoms: C_6  and  C_8
REMARK    5  A    between atoms: C_10  and  C_11
REMARK    6  A    between atoms: C_21  and  O_22
REMARK    7  A    between atoms: O_22  and  C_23
REMARK    8  A    between atoms: C_24  and  O_25
REMARK    9  A    between atoms: O_25  and  C_26
REMARK                            x       y       z     vdW  Elec       q    Type
REMARK                         _______ _______ _______ _____ _____    ______ ____
ROOT
ATOM      1  C   UNL     1       0.606  10.711  18.766  0.00  0.00    +0.000 C 
ATOM      2  O   UNL     1       1.319  11.681  18.549  0.00  0.00    +0.000 OA
ENDROOT
BRANCH   1   5
ATOM      3  C   UNL     1      -2.980  11.860  19.064  0.00  0.00    +0.000 A 
ATOM      4  C   UNL     1      -1.655  11.555  19.394  0.00  0.00    +0.000 A 
ATOM      5  C   UNL     1      -0.864  10.791  18.542  0.00  0.00    +0.000 A 
ATOM      6  C   UNL     1      -1.457  10.146  17.464  0.00  0.00    +0.000 A 
ATOM      7  C   UNL     1      -2.818  10.350  17.169  0.00  0.00    +0.000 A 
ATOM      8  C   UNL     1      -3.593  11.239  17.956  0.00  0.00    +0.000 A 
BRANCH   3  10
ATOM      9  C   UNL     1      -2.938  13.322  20.931  0.00  0.00    +0.000 C 
ATOM     10  O   UNL     1      -3.673  12.749  19.846  0.00  0.00    +0.000 OA
ENDBRANCH   3  10
BRANCH   7  11
ATOM     11  O   UNL     1      -3.198   9.634  16.060  0.00  0.00    +0.000 OA
ATOM     12  C   UNL     1      -3.032  10.194  14.768  0.00  0.00    +0.000 C 
ENDBRANCH   7  11
BRANCH   8  13
ATOM     13  O   UNL     1      -4.897  11.406  17.574  0.00  0.00    +0.000 OA
ATOM     14  C   UNL     1      -5.954  10.814  18.310  0.00  0.00    +0.000 C 
ENDBRANCH   8  13
ENDBRANCH   1   5
BRANCH   1  15
ATOM     15  C   UNL     1       1.199   9.425  19.259  0.00  0.00    +0.000 A 
ATOM     16  C   UNL     1       1.961   8.670  18.399  0.00  0.00    +0.000 A 
ATOM     17  C   UNL     1       2.392   7.447  18.874  0.00  0.00    +0.000 A 
ATOM     18  N   UNL     1       2.090   7.029  20.129  0.00  0.00    +0.000 NA
ATOM     19  C   UNL     1       1.382   7.859  20.898  0.00  0.00    +0.000 A 
ATOM     20  N   UNL     1       0.901   9.049  20.525  0.00  0.00    +0.000 NA
BRANCH  17  21
ATOM     21  C   UNL     1       3.178   6.501  18.056  0.00  0.00    +0.000 A 
ATOM     22  C   UNL     1       4.285   6.921  17.298  0.00  0.00    +0.000 A 
ATOM     23  C   UNL     1       5.029   6.018  16.533  0.00  0.00    +0.000 A 
ATOM     24  C   UNL     1       4.683   4.671  16.508  0.00  0.00    +0.000 A 
ATOM     25  C   UNL     1       3.590   4.226  17.248  0.00  0.00    +0.000 A 
ATOM     26  C   UNL     1       2.848   5.132  18.012  0.00  0.00    +0.000 A 
ENDBRANCH  17  21
ENDBRANCH   1  15
TORSDOF 6
ENDMDL
MODEL 2
REMARK VINA RESULT:      -7.5      5.086      7.509
REMARK  Name = 
REMARK  9 active torsions:
REMARK  status: ('A' for Active; 'I' for Inactive)
REMARK    1  A    between atoms: C_1  and  O_2
REMARK    2  A    between atoms: O_2  and  C_3
REMARK    3  A    between atoms: C_5  and  C_6
REMARK    4  A    between atoms: C_6  and  C_8
REMARK    5  A    between atoms: C_10  and  C_11
REMARK    6  A    between atoms: C_21  and  O_22
REMARK    7  A    between atoms: O_22  and  C_23
REMARK    8  A    between atoms: C_24  and  O_25
REMARK    9  A    between atoms: O_25  and  C_26
REMARK                            x       y       z     vdW  Elec       q    Type
REMARK                         _______ _______ _______ _____ _____    ______ ____
ROOT
ATOM      1  C   UNL     1       3.818   7.197  17.376  0.00  0.00    +0.000 C 
ATOM      2  O   UNL     1       3.472   8.343  17.126  0.00  0.00    +0.000 OA
ENDROOT
BRANCH   1   5
ATOM      3  C   UNL     1       2.118   4.079  18.661  0.00  0.00    +0.000 A 
ATOM      4  C   UNL     1       2.700   5.008  17.791  0.00  0.00    +0.000 A 
ATOM      5  C   UNL     1       2.953   6.311  18.204  0.00  0.00    +0.000 A 
ATOM      6  C   UNL     1       2.429   6.755  19.411  0.00  0.00    +0.000 A 
ATOM      7  C   UNL     1       1.743   5.867  20.261  0.00  0.00    +0.000 A 
ATOM      8  C   UNL     1       1.604   4.502  19.905  0.00  0.00    +0.000 A 
BRANCH   3  10
ATOM      9  C   UNL     1       3.237   2.002  18.421  0.00  0.00    +0.000 C 
ATOM     10  O   UNL     1       2.036   2.766  18.276  0.00  0.00    +0.000 OA
ENDBRANCH   3  10
BRANCH   7  11
ATOM     11  O   UNL     1       1.320   6.503  21.404  0.00  0.00    +0.000 OA
ATOM     12  C   UNL     1       1.028   7.890  21.372  0.00  0.00    +0.000 C 
ENDBRANCH   7  11
BRANCH   8  13
ATOM     13  O   UNL     1       0.957   3.704  20.809  0.00  0.00    +0.000 OA
ATOM     14  C   UNL     1       1.684   2.897  21.721  0.00  0.00    +0.000 C 
ENDBRANCH   8  13
ENDBRANCH   1   5
BRANCH   1  15
ATOM     15  C   UNL     1       5.118   6.663  16.852  0.00  0.00    +0.000 A 
ATOM     16  C   UNL     1       5.145   6.075  15.610  0.00  0.00    +0.000 A 
ATOM     17  C   UNL     1       6.344   5.507  15.226  0.00  0.00    +0.000 A 
ATOM     18  N   UNL     1       7.436   5.549  16.029  0.00  0.00    +0.000 NA
ATOM     19  C   UNL     1       7.315   6.184  17.197  0.00  0.00    +0.000 A 
ATOM     20  N   UNL     1       6.196   6.744  17.667  0.00  0.00    +0.000 NA
BRANCH  17  21
ATOM     21  C   UNL     1       6.520   4.797  13.942  0.00  0.00    +0.000 A 
ATOM     22  C   UNL     1       7.552   5.130  13.047  0.00  0.00    +0.000 A 
ATOM     23  C   UNL     1       7.716   4.446  11.838  0.00  0.00    +0.000 A 
ATOM     24  C   UNL     1       6.852   3.412  11.497  0.00  0.00    +0.000 A 
ATOM     25  C   UNL     1       5.819   3.061  12.363  0.00  0.00    +0.000 A 
ATOM     26  C   UNL     1       5.657   3.746  13.570  0.00  0.00    +0.000 A 
ENDBRANCH  17  21
ENDBRANCH   1  15
TORSDOF 6
ENDMDL
MODEL 3
REMARK VINA RESULT:      -7.4      5.117      7.667
REMARK  Name = 
REMARK  9 active torsions:
REMARK  status: ('A' for Active; 'I' for Inactive)
REMARK    1  A    between atoms: C_1  and  O_2
REMARK    2  A    between atoms: O_2  and  C_3
REMARK    3  A    between atoms: C_5  and  C_6
REMARK    4  A    between atoms: C_6  and  C_8
REMARK    5  A    between atoms: C_10  and  C_11
REMARK    6  A    between atoms: C_21  and  O_22
REMARK    7  A    between atoms: O_22  and  C_23
REMARK    8  A    between atoms: C_24  and  O_25
REMARK    9  A    between atoms: O_25  and  C_26
REMARK                            x       y       z     vdW  Elec       q    Type
REMARK                         _______ _______ _______ _____ _____    ______ ____
ROOT
ATOM      1  C   UNL     1       4.067   6.934  17.629  0.00  0.00    +0.000 C 
ATOM      2  O   UNL     1       3.843   8.121  17.437  0.00  0.00    +0.000 OA
ENDROOT
BRANCH   1   5
ATOM      3  C   UNL     1       2.235   3.899  18.932  0.00  0.00    +0.000 A 
ATOM      4  C   UNL     1       2.918   4.766  18.072  0.00  0.00    +0.000 A 
ATOM      5  C   UNL     1       3.109   6.102  18.408  0.00  0.00    +0.000 A 
ATOM      6  C   UNL     1       2.431   6.630  19.499  0.00  0.00    +0.000 A 
ATOM      7  C   UNL     1       1.647   5.801  20.324  0.00  0.00    +0.000 A 
ATOM      8  C   UNL     1       1.564   4.410  20.063  0.00  0.00    +0.000 A 
BRANCH   3  10
ATOM      9  C   UNL     1       3.319   2.069  17.883  0.00  0.00    +0.000 C 
ATOM     10  O   UNL     1       2.211   2.559  18.646  0.00  0.00    +0.000 OA
ENDBRANCH   3  10
BRANCH   7  11
ATOM     11  O   UNL     1       1.077   6.517  21.349  0.00  0.00    +0.000 OA
ATOM     12  C   UNL     1       1.102   7.934  21.317  0.00  0.00    +0.000 C 
ENDBRANCH   7  11
BRANCH   8  13
ATOM     13  O   UNL     1       0.811   3.674  20.938  0.00  0.00    +0.000 OA
ATOM     14  C   UNL     1       1.409   2.694  21.770  0.00  0.00    +0.000 C 
ENDBRANCH   8  13
ENDBRANCH   1   5
BRANCH   1  15
ATOM     15  C   UNL     1       5.310   6.295  17.084  0.00  0.00    +0.000 A 
ATOM     16  C   UNL     1       5.328   5.887  15.770  0.00  0.00    +0.000 A 
ATOM     17  C   UNL     1       6.458   5.212  15.354  0.00  0.00    +0.000 A 
ATOM     18  N   UNL     1       7.497   4.983  16.196  0.00  0.00    +0.000 NA
ATOM     19  C   UNL     1       7.396   5.461  17.438  0.00  0.00    +0.000 A 
ATOM     20  N   UNL     1       6.339   6.106  17.942  0.00  0.00    +0.000 NA
BRANCH  17  21
ATOM     21  C   UNL     1       6.609   4.668  13.988  0.00  0.00    +0.000 A 
ATOM     22  C   UNL     1       5.795   3.624  13.514  0.00  0.00    +0.000 A 
ATOM     23  C   UNL     1       5.938   3.121  12.217  0.00  0.00    +0.000 A 
ATOM     24  C   UNL     1       6.900   3.651  11.364  0.00  0.00    +0.000 A 
ATOM     25  C   UNL     1       7.721   4.684  11.807  0.00  0.00    +0.000 A 
ATOM     26  C   UNL     1       7.576   5.185  13.103  0.00  0.00    +0.000 A 
ENDBRANCH  17  21
ENDBRANCH   1  15
TORSDOF 6
ENDMDL
MODEL 4
REMARK VINA RESULT:      -7.4      5.079      7.247
REMARK  Name = 
REMARK  9 active torsions:
REMARK  status: ('A' for Active; 'I' for Inactive)
REMARK    1  A    between atoms: C_1  and  O_2
REMARK    2  A    between atoms: O_2  and  C_3
REMARK    3  A    between atoms: C_5  and  C_6
REMARK    4  A    between atoms: C_6  and  C_8
REMARK    5  A    between atoms: C_10  and  C_11
REMARK    6  A    between atoms: C_21  and  O_22
REMARK    7  A    between atoms: O_22  and  C_23
REMARK    8  A    between atoms: C_24  and  O_25
REMARK    9  A    between atoms: O_25  and  C_26
REMARK                            x       y       z     vdW  Elec       q    Type
REMARK                         _______ _______ _______ _____ _____    ______ ____
ROOT
ATOM      1  C   UNL     1       3.857   7.062  17.376  0.00  0.00    +0.000 C 
ATOM      2  O   UNL     1       3.368   8.142  17.075  0.00  0.00    +0.000 OA
ENDROOT
BRANCH   1   5
ATOM      3  C   UNL     1       1.783   5.911  20.314  0.00  0.00    +0.000 A 
ATOM      4  C   UNL     1       2.660   6.664  19.526  0.00  0.00    +0.000 A 
ATOM      5  C   UNL     1       3.160   6.158  18.331  0.00  0.00    +0.000 A 
ATOM      6  C   UNL     1       2.961   4.817  18.026  0.00  0.00    +0.000 A 
ATOM      7  C   UNL     1       2.169   4.005  18.860  0.00  0.00    +0.000 A 
ATOM      8  C   UNL     1       1.543   4.555  20.006  0.00  0.00    +0.000 A 
BRANCH   3  10
ATOM      9  C   UNL     1       1.046   7.926  21.324  0.00  0.00    +0.000 C 
ATOM     10  O   UNL     1       1.184   6.504  21.396  0.00  0.00    +0.000 OA
ENDBRANCH   3  10
BRANCH   7  11
ATOM     11  O   UNL     1       2.089   2.723  18.372  0.00  0.00    +0.000 OA
ATOM     12  C   UNL     1       3.272   1.961  18.196  0.00  0.00    +0.000 C 
ENDBRANCH   7  11
BRANCH   8  13
ATOM     13  O   UNL     1       0.760   3.703  20.737  0.00  0.00    +0.000 OA
ATOM     14  C   UNL     1       1.339   2.782  21.648  0.00  0.00    +0.000 C 
ENDBRANCH   8  13
ENDBRANCH   1   5
BRANCH   1  15
ATOM     15  C   UNL     1       5.167   6.629  16.787  0.00  0.00    +0.000 A 
ATOM     16  C   UNL     1       5.172   5.990  15.569  0.00  0.00    +0.000 A 
ATOM     17  C   UNL     1       6.393   5.521  15.128  0.00  0.00    +0.000 A 
ATOM     18  N   UNL     1       7.525   5.703  15.853  0.00  0.00    +0.000 NA
ATOM     19  C   UNL     1       7.417   6.376  17.000  0.00  0.00    +0.000 A 
ATOM     20  N   UNL     1       6.282   6.849  17.522  0.00  0.00    +0.000 NA
BRANCH  17  21
ATOM     21  C   UNL     1       6.555   4.772  13.865  0.00  0.00    +0.000 A 
ATOM     22  C   UNL     1       5.698   3.711  13.519  0.00  0.00    +0.000 A 
ATOM     23  C   UNL     1       5.852   3.013  12.317  0.00  0.00    +0.000 A 
ATOM     24  C   UNL     1       6.868   3.359  11.433  0.00  0.00    +0.000 A 
ATOM     25  C   UNL     1       7.733   4.403  11.749  0.00  0.00    +0.000 A 
ATOM     26  C   UNL     1       7.576   5.100  12.951  0.00  0.00    +0.000 A 
ENDBRANCH  17  21
ENDBRANCH   1  15
TORSDOF 6
ENDMDL
MODEL 5
REMARK VINA RESULT:      -7.4      4.213      8.784
REMARK  Name = 
REMARK  9 active torsions:
REMARK  status: ('A' for Active; 'I' for Inactive)
REMARK    1  A    between atoms: C_1  and  O_2
REMARK    2  A    between atoms: O_2  and  C_3
REMARK    3  A    between atoms: C_5  and  C_6
REMARK    4  A    between atoms: C_6  and  C_8
REMARK    5  A    between atoms: C_10  and  C_11
REMARK    6  A    between atoms: C_21  and  O_22
REMARK    7  A    between atoms: O_22  and  C_23
REMARK    8  A    between atoms: C_24  and  O_25
REMARK    9  A    between atoms: O_25  and  C_26
REMARK                            x       y       z     vdW  Elec       q    Type
REMARK                         _______ _______ _______ _____ _____    ______ ____
ROOT
ATOM      1  C   UNL     1       2.572   6.355  19.517  0.00  0.00    +0.000 C 
ATOM      2  O   UNL     1       2.300   5.745  20.542  0.00  0.00    +0.000 OA
ENDROOT
BRANCH   1   5
ATOM      3  C   UNL     1       5.370   5.884  17.024  0.00  0.00    +0.000 A 
ATOM      4  C   UNL     1       4.385   6.491  17.811  0.00  0.00    +0.000 A 
ATOM      5  C   UNL     1       3.429   5.728  18.472  0.00  0.00    +0.000 A 
ATOM      6  C   UNL     1       3.316   4.376  18.176  0.00  0.00    +0.000 A 
ATOM      7  C   UNL     1       4.230   3.757  17.301  0.00  0.00    +0.000 A 
ATOM      8  C   UNL     1       5.292   4.505  16.734  0.00  0.00    +0.000 A 
BRANCH   3  10
ATOM      9  C   UNL     1       7.412   7.009  17.462  0.00  0.00    +0.000 C 
ATOM     10  O   UNL     1       6.391   6.651  16.525  0.00  0.00    +0.000 OA
ENDBRANCH   3  10
BRANCH   7  11
ATOM     11  O   UNL     1       3.950   2.420  17.157  0.00  0.00    +0.000 OA
ATOM     12  C   UNL     1       3.447   1.682  18.259  0.00  0.00    +0.000 C 
ENDBRANCH   7  11
BRANCH   8  13
ATOM     13  O   UNL     1       6.155   3.815  15.927  0.00  0.00    +0.000 OA
ATOM     14  C   UNL     1       6.109   3.960  14.517  0.00  0.00    +0.000 C 
ENDBRANCH   8  13
ENDBRANCH   1   5
BRANCH   1  15
ATOM     15  C   UNL     1       2.049   7.743  19.294  0.00  0.00    +0.000 A 
ATOM     16  C   UNL     1       1.453   8.406  20.341  0.00  0.00    +0.000 A 
ATOM     17  C   UNL     1       0.897   9.636  20.050  0.00  0.00    +0.000 A 
ATOM     18  N   UNL     1       0.956  10.162  18.801  0.00  0.00    +0.000 NA
ATOM     19  C   UNL     1       1.597   9.456  17.868  0.00  0.00    +0.000 A 
ATOM     20  N   UNL     1       2.148   8.251  18.043  0.00  0.00    +0.000 NA
BRANCH  17  21
ATOM     21  C   UNL     1       0.180  10.449  21.054  0.00  0.00    +0.000 A 
ATOM     22  C   UNL     1       0.023  11.838  20.906  0.00  0.00    +0.000 A 
ATOM     23  C   UNL     1      -0.665  12.599  21.856  0.00  0.00    +0.000 A 
ATOM     24  C   UNL     1      -1.212  11.987  22.979  0.00  0.00    +0.000 A 
ATOM     25  C   UNL     1      -1.071  10.613  23.153  0.00  0.00    +0.000 A 
ATOM     26  C   UNL     1      -0.383   9.855  22.202  0.00  0.00    +0.000 A 
ENDBRANCH  17  21
ENDBRANCH   1  15
TORSDOF 6
ENDMDL
MODEL 6
REMARK VINA RESULT:      -7.3      0.760      1.211
REMARK  Name = 
REMARK  9 active torsions:
REMARK  status: ('A' for Active; 'I' for Inactive)
REMARK    1  A    between atoms: C_1  and  O_2
REMARK    2  A    between atoms: O_2  and  C_3
REMARK    3  A    between atoms: C_5  and  C_6
REMARK    4  A    between atoms: C_6  and  C_8
REMARK    5  A    between atoms: C_10  and  C_11
REMARK    6  A    between atoms: C_21  and  O_22
REMARK    7  A    between atoms: O_22  and  C_23
REMARK    8  A    between atoms: C_24  and  O_25
REMARK    9  A    between atoms: O_25  and  C_26
REMARK                            x       y       z     vdW  Elec       q    Type
REMARK                         _______ _______ _______ _____ _____    ______ ____
ROOT
ATOM      1  C   UNL     1       1.217  10.406  18.644  0.00  0.00    +0.000 C 
ATOM      2  O   UNL     1       2.026  11.279  18.361  0.00  0.00    +0.000 OA
ENDROOT
BRANCH   1   5
ATOM      3  C   UNL     1      -2.131  12.025  19.299  0.00  0.00    +0.000 A 
ATOM      4  C   UNL     1      -0.831  11.546  19.492  0.00  0.00    +0.000 A 
ATOM      5  C   UNL     1      -0.244  10.681  18.575  0.00  0.00    +0.000 A 
ATOM      6  C   UNL     1      -1.029  10.118  17.577  0.00  0.00    +0.000 A 
ATOM      7  C   UNL     1      -2.375  10.501  17.423  0.00  0.00    +0.000 A 
ATOM      8  C   UNL     1      -2.936  11.488  18.272  0.00  0.00    +0.000 A 
BRANCH   3  10
ATOM      9  C   UNL     1      -1.684  14.032  20.479  0.00  0.00    +0.000 C 
ATOM     10  O   UNL     1      -2.613  13.000  20.133  0.00  0.00    +0.000 OA
ENDBRANCH   3  10
BRANCH   7  11
ATOM     11  O   UNL     1      -2.962   9.838  16.373  0.00  0.00    +0.000 OA
ATOM     12  C   UNL     1      -2.889  10.384  15.066  0.00  0.00    +0.000 C 
ENDBRANCH   7  11
BRANCH   8  13
ATOM     13  O   UNL     1      -4.239  11.826  18.026  0.00  0.00    +0.000 OA
ATOM     14  C   UNL     1      -5.261  11.518  18.960  0.00  0.00    +0.000 C 
ENDBRANCH   8  13
ENDBRANCH   1   5
BRANCH   1  15
ATOM     15  C   UNL     1       1.683   9.043  19.065  0.00  0.00    +0.000 A 
ATOM     16  C   UNL     1       2.457   8.307  18.199  0.00  0.00    +0.000 A 
ATOM     17  C   UNL     1       2.767   7.021  18.595  0.00  0.00    +0.000 A 
ATOM     18  N   UNL     1       2.343   6.526  19.785  0.00  0.00    +0.000 NA
ATOM     19  C   UNL     1       1.635   7.340  20.571  0.00  0.00    +0.000 A 
ATOM     20  N   UNL     1       1.266   8.589  20.269  0.00  0.00    +0.000 NA
BRANCH  17  21
ATOM     21  C   UNL     1       3.547   6.089  17.756  0.00  0.00    +0.000 A 
ATOM     22  C   UNL     1       3.357   4.697  17.821  0.00  0.00    +0.000 A 
ATOM     23  C   UNL     1       4.093   3.823  17.016  0.00  0.00    +0.000 A 
ATOM     24  C   UNL     1       5.039   4.321  16.126  0.00  0.00    +0.000 A 
ATOM     25  C   UNL     1       5.251   5.694  16.041  0.00  0.00    +0.000 A 
ATOM     26  C   UNL     1       4.513   6.566  16.846  0.00  0.00    +0.000 A 
ENDBRANCH  17  21
ENDBRANCH   1  15
TORSDOF 6
ENDMDL
MODEL 7
REMARK VINA RESULT:      -7.3      0.474      2.562
REMARK  Name = 
REMARK  9 active torsions:
REMARK  status: ('A' for Active; 'I' for Inactive)
REMARK    1  A    between atoms: C_1  and  O_2
REMARK    2  A    between atoms: O_2  and  C_3
REMARK    3  A    between atoms: C_5  and  C_6
REMARK    4  A    between atoms: C_6  and  C_8
REMARK    5  A    between atoms: C_10  and  C_11
REMARK    6  A    between atoms: C_21  and  O_22
REMARK    7  A    between atoms: O_22  and  C_23
REMARK    8  A    between atoms: C_24  and  O_25
REMARK    9  A    between atoms: O_25  and  C_26
REMARK                            x       y       z     vdW  Elec       q    Type
REMARK                         _______ _______ _______ _____ _____    ______ ____
ROOT
ATOM      1  C   UNL     1       0.647  10.932  18.736  0.00  0.00    +0.000 C 
ATOM      2  O   UNL     1       1.417  11.857  18.520  0.00  0.00    +0.000 OA
ENDROOT
BRANCH   1   5
ATOM      3  C   UNL     1      -2.743  10.374  17.167  0.00  0.00    +0.000 A 
ATOM      4  C   UNL     1      -1.356  10.477  17.323  0.00  0.00    +0.000 A 
ATOM      5  C   UNL     1      -0.807  11.078  18.450  0.00  0.00    +0.000 A 
ATOM      6  C   UNL     1      -1.637  11.772  19.321  0.00  0.00    +0.000 A 
ATOM      7  C   UNL     1      -3.032  11.776  19.129  0.00  0.00    +0.000 A 
ATOM      8  C   UNL     1      -3.606  11.047  18.057  0.00  0.00    +0.000 A 
BRANCH   3  10
ATOM      9  C   UNL     1      -3.063  10.195  14.824  0.00  0.00    +0.000 C 
ATOM     10  O   UNL     1      -3.242   9.632  16.127  0.00  0.00    +0.000 OA
ENDBRANCH   3  10
BRANCH   7  11
ATOM     11  O   UNL     1      -3.665  12.506  20.105  0.00  0.00    +0.000 OA
ATOM     12  C   UNL     1      -3.058  13.684  20.610  0.00  0.00    +0.000 C 
ENDBRANCH   7  11
BRANCH   8  13
ATOM     13  O   UNL     1      -4.972  11.075  17.968  0.00  0.00    +0.000 OA
ATOM     14  C   UNL     1      -5.634  12.088  17.229  0.00  0.00    +0.000 C 
ENDBRANCH   8  13
ENDBRANCH   1   5
BRANCH   1  15
ATOM     15  C   UNL     1       1.153   9.634  19.292  0.00  0.00    +0.000 A 
ATOM     16  C   UNL     1       1.846   8.780  18.466  0.00  0.00    +0.000 A 
ATOM     17  C   UNL     1       2.195   7.556  19.002  0.00  0.00    +0.000 A 
ATOM     18  N   UNL     1       1.883   7.229  20.281  0.00  0.00    +0.000 NA
ATOM     19  C   UNL     1       1.248   8.148  21.012  0.00  0.00    +0.000 A 
ATOM     20  N   UNL     1       0.849   9.349  20.579  0.00  0.00    +0.000 NA
BRANCH  17  21
ATOM     21  C   UNL     1       2.898   6.513  18.227  0.00  0.00    +0.000 A 
ATOM     22  C   UNL     1       4.134   6.761  17.605  0.00  0.00    +0.000 A 
ATOM     23  C   UNL     1       4.797   5.765  16.881  0.00  0.00    +0.000 A 
ATOM     24  C   UNL     1       4.238   4.497  16.763  0.00  0.00    +0.000 A 
ATOM     25  C   UNL     1       3.015   4.223  17.367  0.00  0.00    +0.000 A 
ATOM     26  C   UNL     1       2.354   5.220  18.090  0.00  0.00    +0.000 A 
ENDBRANCH  17  21
ENDBRANCH   1  15
TORSDOF 6
ENDMDL
MODEL 8
REMARK VINA RESULT:      -7.1      0.621      2.760
REMARK  Name = 
REMARK  9 active torsions:
REMARK  status: ('A' for Active; 'I' for Inactive)
REMARK    1  A    between atoms: C_1  and  O_2
REMARK    2  A    between atoms: O_2  and  C_3
REMARK    3  A    between atoms: C_5  and  C_6
REMARK    4  A    between atoms: C_6  and  C_8
REMARK    5  A    between atoms: C_10  and  C_11
REMARK    6  A    between atoms: C_21  and  O_22
REMARK    7  A    between atoms: O_22  and  C_23
REMARK    8  A    between atoms: C_24  and  O_25
REMARK    9  A    between atoms: O_25  and  C_26
REMARK                            x       y       z     vdW  Elec       q    Type
REMARK                         _______ _______ _______ _____ _____    ______ ____
ROOT
ATOM      1  C   UNL     1       0.623  11.064  19.000  0.00  0.00    +0.000 C 
ATOM      2  O   UNL     1       1.402  11.994  18.847  0.00  0.00    +0.000 OA
ENDROOT
BRANCH   1   5
ATOM      3  C   UNL     1      -2.783  10.440  17.492  0.00  0.00    +0.000 A 
ATOM      4  C   UNL     1      -1.394  10.506  17.644  0.00  0.00    +0.000 A 
ATOM      5  C   UNL     1      -0.823  11.230  18.685  0.00  0.00    +0.000 A 
ATOM      6  C   UNL     1      -1.625  12.070  19.446  0.00  0.00    +0.000 A 
ATOM      7  C   UNL     1      -3.018  12.106  19.243  0.00  0.00    +0.000 A 
ATOM      8  C   UNL     1      -3.619  11.263  18.275  0.00  0.00    +0.000 A 
BRANCH   3  10
ATOM      9  C   UNL     1      -3.036   9.915  15.193  0.00  0.00    +0.000 C 
ATOM     10  O   UNL     1      -3.311   9.586  16.558  0.00  0.00    +0.000 OA
ENDBRANCH   3  10
BRANCH   7  11
ATOM     11  O   UNL     1      -3.622  12.988  20.106  0.00  0.00    +0.000 OA
ATOM     12  C   UNL     1      -3.941  12.577  21.425  0.00  0.00    +0.000 C 
ENDBRANCH   7  11
BRANCH   8  13
ATOM     13  O   UNL     1      -4.982  11.337  18.171  0.00  0.00    +0.000 OA
ATOM     14  C   UNL     1      -5.597  12.212  17.241  0.00  0.00    +0.000 C 
ENDBRANCH   8  13
ENDBRANCH   1   5
BRANCH   1  15
ATOM     15  C   UNL     1       1.109   9.739  19.508  0.00  0.00    +0.000 A 
ATOM     16  C   UNL     1       1.813   8.917  18.659  0.00  0.00    +0.000 A 
ATOM     17  C   UNL     1       2.143   7.669  19.147  0.00  0.00    +0.000 A 
ATOM     18  N   UNL     1       1.803   7.288  20.404  0.00  0.00    +0.000 NA
ATOM     19  C   UNL     1       1.160   8.178  21.162  0.00  0.00    +0.000 A 
ATOM     20  N   UNL     1       0.777   9.399  20.775  0.00  0.00    +0.000 NA
BRANCH  17  21
ATOM     21  C   UNL     1       2.855   6.655  18.341  0.00  0.00    +0.000 A 
ATOM     22  C   UNL     1       2.443   5.311  18.312  0.00  0.00    +0.000 A 
ATOM     23  C   UNL     1       3.117   4.360  17.539  0.00  0.00    +0.000 A 
ATOM     24  C   UNL     1       4.219   4.732  16.778  0.00  0.00    +0.000 A 
ATOM     25  C   UNL     1       4.651   6.055  16.788  0.00  0.00    +0.000 A 
ATOM     26  C   UNL     1       3.975   7.004  17.561  0.00  0.00    +0.000 A 
ENDBRANCH  17  21
ENDBRANCH   1  15
TORSDOF 6
ENDMDL
MODEL 9
REMARK VINA RESULT:      -7.1      4.963      7.160
REMARK  Name = 
REMARK  9 active torsions:
REMARK  status: ('A' for Active; 'I' for Inactive)
REMARK    1  A    between atoms: C_1  and  O_2
REMARK    2  A    between atoms: O_2  and  C_3
REMARK    3  A    between atoms: C_5  and  C_6
REMARK    4  A    between atoms: C_6  and  C_8
REMARK    5  A    between atoms: C_10  and  C_11
REMARK    6  A    between atoms: C_21  and  O_22
REMARK    7  A    between atoms: O_22  and  C_23
REMARK    8  A    between atoms: C_24  and  O_25
REMARK    9  A    between atoms: O_25  and  C_26
REMARK                            x       y       z     vdW  Elec       q    Type
REMARK                         _______ _______ _______ _____ _____    ______ ____
ROOT
ATOM      1  C   UNL     1       3.876   7.136  17.500  0.00  0.00    +0.000 C 
ATOM      2  O   UNL     1       3.343   8.183  17.161  0.00  0.00    +0.000 OA
ENDROOT
BRANCH   1   5
ATOM      3  C   UNL     1       1.716   6.057  20.403  0.00  0.00    +0.000 A 
ATOM      4  C   UNL     1       2.531   6.839  19.577  0.00  0.00    +0.000 A 
ATOM      5  C   UNL     1       3.245   6.267  18.531  0.00  0.00    +0.000 A 
ATOM      6  C   UNL     1       3.322   4.883  18.439  0.00  0.00    +0.000 A 
ATOM      7  C   UNL     1       2.596   4.066  19.326  0.00  0.00    +0.000 A 
ATOM      8  C   UNL     1       1.756   4.650  20.308  0.00  0.00    +0.000 A 
BRANCH   3  10
ATOM      9  C   UNL     1       0.949   8.108  21.314  0.00  0.00    +0.000 C 
ATOM     10  O   UNL     1       0.902   6.678  21.316  0.00  0.00    +0.000 OA
ENDBRANCH   3  10
BRANCH   7  11
ATOM     11  O   UNL     1       2.800   2.735  19.055  0.00  0.00    +0.000 OA
ATOM     12  C   UNL     1       1.967   2.070  18.119  0.00  0.00    +0.000 C 
ENDBRANCH   7  11
BRANCH   8  13
ATOM     13  O   UNL     1       1.058   3.781  21.102  0.00  0.00    +0.000 OA
ATOM     14  C   UNL     1       1.731   2.834  21.915  0.00  0.00    +0.000 C 
ENDBRANCH   8  13
ENDBRANCH   1   5
BRANCH   1  15
ATOM     15  C   UNL     1       5.175   6.708  16.882  0.00  0.00    +0.000 A 
ATOM     16  C   UNL     1       5.155   6.059  15.671  0.00  0.00    +0.000 A 
ATOM     17  C   UNL     1       6.369   5.596  15.203  0.00  0.00    +0.000 A 
ATOM     18  N   UNL     1       7.517   5.792  15.899  0.00  0.00    +0.000 NA
ATOM     19  C   UNL     1       7.432   6.475  17.042  0.00  0.00    +0.000 A 
ATOM     20  N   UNL     1       6.305   6.943  17.589  0.00  0.00    +0.000 NA
BRANCH  17  21
ATOM     21  C   UNL     1       6.505   4.837  13.943  0.00  0.00    +0.000 A 
ATOM     22  C   UNL     1       7.528   5.117  13.018  0.00  0.00    +0.000 A 
ATOM     23  C   UNL     1       7.655   4.388  11.831  0.00  0.00    +0.000 A 
ATOM     24  C   UNL     1       6.763   3.362  11.542  0.00  0.00    +0.000 A 
ATOM     25  C   UNL     1       5.740   3.063  12.438  0.00  0.00    +0.000 A 
ATOM     26  C   UNL     1       5.614   3.793  13.623  0.00  0.00    +0.000 A 
ENDBRANCH  17  21
ENDBRANCH   1  15
TORSDOF 6
ENDMDL
