MODEL 1
REMARK VINA RESULT:      -7.2      0.000      0.000
REMARK  Name = 
REMARK  10 active torsions:
REMARK  status: ('A' for Active; 'I' for Inactive)
REMARK    1  A    between atoms: C_1  and  C_2
REMARK    2  A    between atoms: C_2  and  C_3
REMARK    3  A    between atoms: C_3  and  N_4
REMARK    4  A    between atoms: N_4  and  C_5
REMARK    5  A    between atoms: N_4  and  C_20
REMARK    6  A    between atoms: C_5  and  C_6
REMARK    7  A    between atoms: C_6  and  C_7
REMARK    8  A    between atoms: C_7  and  N_8
REMARK    9  A    between atoms: N_8  and  C_9
REMARK   10  A    between atoms: C_20  and  C_21
REMARK                            x       y       z     vdW  Elec       q    Type
REMARK                         _______ _______ _______ _____ _____    ______ ____
ROOT
ATOM      1  C   UNL     1       1.594   5.239  20.363  0.00  0.00    +0.000 C 
ENDROOT
BRANCH   1   2
ATOM      2  N   UNL     1       2.465   6.415  20.420  0.00  0.00    +0.000 N 
ATOM      3  H   UNL     1       3.413   6.178  20.152  0.00  0.00    +0.000 HD
BRANCH   2   4
ATOM      4  C   UNL     1       2.049   7.620  19.823  0.00  0.00    +0.000 A 
ATOM      5  C   UNL     1       2.256   7.852  18.462  0.00  0.00    +0.000 A 
ATOM      6  C   UNL     1       1.777   9.014  17.897  0.00  0.00    +0.000 A 
ATOM      7  N   UNL     1       1.087   9.949  18.576  0.00  0.00    +0.000 NA
ATOM      8  C   UNL     1       0.835   9.726  19.872  0.00  0.00    +0.000 A 
ATOM      9  C   UNL     1       0.094  10.687  20.548  0.00  0.00    +0.000 A 
ATOM     10  C   UNL     1      -0.225  10.539  21.893  0.00  0.00    +0.000 A 
ATOM     11 CL   UNL     1      -1.147  11.753  22.692  0.00  0.00    +0.000 Cl
ATOM     12  C   UNL     1       0.186   9.419  22.593  0.00  0.00    +0.000 A 
ATOM     13  C   UNL     1       0.930   8.438  21.932  0.00  0.00    +0.000 A 
ATOM     14  C   UNL     1       1.276   8.569  20.558  0.00  0.00    +0.000 A 
ENDBRANCH   2   4
ENDBRANCH   1   2
BRANCH   1  15
ATOM     15  C   UNL     1       2.074   4.386  19.193  0.00  0.00    +0.000 C 
BRANCH  15  16
ATOM     16  C   UNL     1       3.453   3.757  19.434  0.00  0.00    +0.000 C 
BRANCH  16  17
ATOM     17  N   UNL     1       4.508   4.200  18.494  0.00  0.00    +0.000 NA
BRANCH  17  18
ATOM     18  C   UNL     1       5.155   5.469  18.895  0.00  0.00    +0.000 C 
BRANCH  18  20
ATOM     19  C   UNL     1       7.665   5.533  18.402  0.00  0.00    +0.000 C 
ATOM     20  C   UNL     1       6.582   5.365  19.456  0.00  0.00    +0.000 C 
ENDBRANCH  18  20
ENDBRANCH  17  18
BRANCH  17  21
ATOM     21  C   UNL     1       3.957   4.283  17.123  0.00  0.00    +0.000 C 
BRANCH  21  22
ATOM     22  C   UNL     1       5.006   4.576  16.107  0.00  0.00    +0.000 A 
ATOM     23  C   UNL     1       5.894   3.668  15.466  0.00  0.00    +0.000 A 
ATOM     24  C   UNL     1       6.686   4.423  14.633  0.00  0.00    +0.000 A 
ATOM     25  O   UNL     1       6.336   5.732  14.700  0.00  0.00    +0.000 OA
ATOM     26  C   UNL     1       5.317   5.819  15.590  0.00  0.00    +0.000 A 
ENDBRANCH  21  22
ENDBRANCH  17  21
ENDBRANCH  16  17
ENDBRANCH  15  16
ENDBRANCH   1  15
TORSDOF 9
ENDMDL
MODEL 2
REMARK VINA RESULT:      -7.1      1.154      2.138
REMARK  Name = 
REMARK  10 active torsions:
REMARK  status: ('A' for Active; 'I' for Inactive)
REMARK    1  A    between atoms: C_1  and  C_2
REMARK    2  A    between atoms: C_2  and  C_3
REMARK    3  A    between atoms: C_3  and  N_4
REMARK    4  A    between atoms: N_4  and  C_5
REMARK    5  A    between atoms: N_4  and  C_20
REMARK    6  A    between atoms: C_5  and  C_6
REMARK    7  A    between atoms: C_6  and  C_7
REMARK    8  A    between atoms: C_7  and  N_8
REMARK    9  A    between atoms: N_8  and  C_9
REMARK   10  A    between atoms: C_20  and  C_21
REMARK                            x       y       z     vdW  Elec       q    Type
REMARK                         _______ _______ _______ _____ _____    ______ ____
ROOT
ATOM      1  C   UNL     1       1.505   5.840  20.471  0.00  0.00    +0.000 C 
ENDROOT
BRANCH   1   2
ATOM      2  N   UNL     1       2.012   7.141  20.915  0.00  0.00    +0.000 N 
ATOM      3  H   UNL     1       3.024   7.139  20.961  0.00  0.00    +0.000 HD
BRANCH   2   4
ATOM      4  C   UNL     1       1.528   8.318  20.316  0.00  0.00    +0.000 A 
ATOM      5  C   UNL     1       1.738   8.569  18.959  0.00  0.00    +0.000 A 
ATOM      6  C   UNL     1       1.194   9.701  18.392  0.00  0.00    +0.000 A 
ATOM      7  N   UNL     1       0.435  10.586  19.064  0.00  0.00    +0.000 NA
ATOM      8  C   UNL     1       0.180  10.342  20.355  0.00  0.00    +0.000 A 
ATOM      9  C   UNL     1      -0.631  11.251  21.023  0.00  0.00    +0.000 A 
ATOM     10  C   UNL     1      -0.959  11.077  22.364  0.00  0.00    +0.000 A 
ATOM     11 CL   UNL     1      -1.968  12.224  23.153  0.00  0.00    +0.000 Cl
ATOM     12  C   UNL     1      -0.486   9.982  23.065  0.00  0.00    +0.000 A 
ATOM     13  C   UNL     1       0.328   9.054  22.411  0.00  0.00    +0.000 A 
ATOM     14  C   UNL     1       0.685   9.213  21.044  0.00  0.00    +0.000 A 
ENDBRANCH   2   4
ENDBRANCH   1   2
BRANCH   1  15
ATOM     15  C   UNL     1       2.684   4.873  20.489  0.00  0.00    +0.000 C 
BRANCH  15  16
ATOM     16  C   UNL     1       3.830   5.304  19.565  0.00  0.00    +0.000 C 
BRANCH  16  17
ATOM     17  N   UNL     1       4.198   4.312  18.530  0.00  0.00    +0.000 NA
BRANCH  17  18
ATOM     18  C   UNL     1       3.753   2.938  18.849  0.00  0.00    +0.000 C 
BRANCH  18  20
ATOM     19  C   UNL     1       1.295   2.290  18.552  0.00  0.00    +0.000 C 
ATOM     20  C   UNL     1       2.682   2.331  17.929  0.00  0.00    +0.000 C 
ENDBRANCH  18  20
ENDBRANCH  17  18
BRANCH  17  21
ATOM     21  C   UNL     1       5.655   4.364  18.279  0.00  0.00    +0.000 C 
BRANCH  21  22
ATOM     22  C   UNL     1       5.975   4.638  16.850  0.00  0.00    +0.000 A 
ATOM     23  C   UNL     1       5.410   4.044  15.688  0.00  0.00    +0.000 A 
ATOM     24  C   UNL     1       6.051   4.611  14.611  0.00  0.00    +0.000 A 
ATOM     25  O   UNL     1       6.958   5.529  15.028  0.00  0.00    +0.000 OA
ATOM     26  C   UNL     1       6.906   5.545  16.382  0.00  0.00    +0.000 A 
ENDBRANCH  21  22
ENDBRANCH  17  21
ENDBRANCH  16  17
ENDBRANCH  15  16
ENDBRANCH   1  15
TORSDOF 9
ENDMDL
MODEL 3
REMARK VINA RESULT:      -7.0      1.199      2.051
REMARK  Name = 
REMARK  10 active torsions:
REMARK  status: ('A' for Active; 'I' for Inactive)
REMARK    1  A    between atoms: C_1  and  C_2
REMARK    2  A    between atoms: C_2  and  C_3
REMARK    3  A    between atoms: C_3  and  N_4
REMARK    4  A    between atoms: N_4  and  C_5
REMARK    5  A    between atoms: N_4  and  C_20
REMARK    6  A    between atoms: C_5  and  C_6
REMARK    7  A    between atoms: C_6  and  C_7
REMARK    8  A    between atoms: C_7  and  N_8
REMARK    9  A    between atoms: N_8  and  C_9
REMARK   10  A    between atoms: C_20  and  C_21
REMARK                            x       y       z     vdW  Elec       q    Type
REMARK                         _______ _______ _______ _____ _____    ______ ____
ROOT
ATOM      1  C   UNL     1       2.087   5.885  19.488  0.00  0.00    +0.000 C 
ENDROOT
BRANCH   1   2
ATOM      2  N   UNL     1       2.485   7.172  20.063  0.00  0.00    +0.000 N 
ATOM      3  H   UNL     1       3.492   7.287  20.031  0.00  0.00    +0.000 HD
BRANCH   2   4
ATOM      4  C   UNL     1       1.822   8.347  19.666  0.00  0.00    +0.000 A 
ATOM      5  C   UNL     1       1.856   8.774  18.337  0.00  0.00    +0.000 A 
ATOM      6  C   UNL     1       1.141   9.894  17.972  0.00  0.00    +0.000 A 
ATOM      7  N   UNL     1       0.375  10.605  18.820  0.00  0.00    +0.000 NA
ATOM      8  C   UNL     1       0.289  10.187  20.089  0.00  0.00    +0.000 A 
ATOM      9  C   UNL     1      -0.531  10.915  20.941  0.00  0.00    +0.000 A 
ATOM     10  C   UNL     1      -0.691  10.553  22.275  0.00  0.00    +0.000 A 
ATOM     11 CL   UNL     1      -1.718  11.481  23.296  0.00  0.00    +0.000 Cl
ATOM     12  C   UNL     1      -0.036   9.446  22.784  0.00  0.00    +0.000 A 
ATOM     13  C   UNL     1       0.792   8.698  21.943  0.00  0.00    +0.000 A 
ATOM     14  C   UNL     1       0.978   9.051  20.578  0.00  0.00    +0.000 A 
ENDBRANCH   2   4
ENDBRANCH   1   2
BRANCH   1  15
ATOM     15  C   UNL     1       3.023   5.612  18.315  0.00  0.00    +0.000 C 
BRANCH  15  16
ATOM     16  C   UNL     1       2.765   4.257  17.643  0.00  0.00    +0.000 C 
BRANCH  16  17
ATOM     17  N   UNL     1       3.914   3.324  17.670  0.00  0.00    +0.000 NA
BRANCH  17  18
ATOM     18  C   UNL     1       3.698   2.153  18.548  0.00  0.00    +0.000 C 
BRANCH  18  20
ATOM     19  C   UNL     1       2.864   2.621  20.922  0.00  0.00    +0.000 C 
ATOM     20  C   UNL     1       2.494   2.222  19.501  0.00  0.00    +0.000 C 
ENDBRANCH  18  20
ENDBRANCH  17  18
BRANCH  17  21
ATOM     21  C   UNL     1       5.147   4.055  18.038  0.00  0.00    +0.000 C 
BRANCH  21  22
ATOM     22  C   UNL     1       5.946   4.454  16.846  0.00  0.00    +0.000 A 
ATOM     23  C   UNL     1       5.928   3.890  15.541  0.00  0.00    +0.000 A 
ATOM     24  C   UNL     1       6.858   4.587  14.804  0.00  0.00    +0.000 A 
ATOM     25  O   UNL     1       7.433   5.556  15.559  0.00  0.00    +0.000 OA
ATOM     26  C   UNL     1       6.876   5.474  16.791  0.00  0.00    +0.000 A 
ENDBRANCH  21  22
ENDBRANCH  17  21
ENDBRANCH  16  17
ENDBRANCH  15  16
ENDBRANCH   1  15
TORSDOF 9
ENDMDL
MODEL 4
REMARK VINA RESULT:      -6.9      1.268      2.253
REMARK  Name = 
REMARK  10 active torsions:
REMARK  status: ('A' for Active; 'I' for Inactive)
REMARK    1  A    between atoms: C_1  and  C_2
REMARK    2  A    between atoms: C_2  and  C_3
REMARK    3  A    between atoms: C_3  and  N_4
REMARK    4  A    between atoms: N_4  and  C_5
REMARK    5  A    between atoms: N_4  and  C_20
REMARK    6  A    between atoms: C_5  and  C_6
REMARK    7  A    between atoms: C_6  and  C_7
REMARK    8  A    between atoms: C_7  and  N_8
REMARK    9  A    between atoms: N_8  and  C_9
REMARK   10  A    between atoms: C_20  and  C_21
REMARK                            x       y       z     vdW  Elec       q    Type
REMARK                         _______ _______ _______ _____ _____    ______ ____
ROOT
ATOM      1  C   UNL     1       1.561   5.876  20.559  0.00  0.00    +0.000 C 
ENDROOT
BRANCH   1   2
ATOM      2  N   UNL     1       2.237   7.171  20.663  0.00  0.00    +0.000 N 
ATOM      3  H   UNL     1       3.212   7.094  20.396  0.00  0.00    +0.000 HD
BRANCH   2   4
ATOM      4  C   UNL     1       1.640   8.315  20.102  0.00  0.00    +0.000 A 
ATOM      5  C   UNL     1       1.738   8.575  18.734  0.00  0.00    +0.000 A 
ATOM      6  C   UNL     1       1.087   9.669  18.208  0.00  0.00    +0.000 A 
ATOM      7  N   UNL     1       0.324  10.508  18.933  0.00  0.00    +0.000 NA
ATOM      8  C   UNL     1       0.176  10.253  20.239  0.00  0.00    +0.000 A 
ATOM      9  C   UNL     1      -0.639  11.111  20.964  0.00  0.00    +0.000 A 
ATOM     10  C   UNL     1      -0.860  10.921  22.325  0.00  0.00    +0.000 A 
ATOM     11 CL   UNL     1      -1.880  12.007  23.185  0.00  0.00    +0.000 Cl
ATOM     12  C   UNL     1      -0.273   9.859  22.989  0.00  0.00    +0.000 A 
ATOM     13  C   UNL     1       0.549   8.982  22.278  0.00  0.00    +0.000 A 
ATOM     14  C   UNL     1       0.797   9.158  20.889  0.00  0.00    +0.000 A 
ENDBRANCH   2   4
ENDBRANCH   1   2
BRANCH   1  15
ATOM     15  C   UNL     1       2.649   4.809  20.509  0.00  0.00    +0.000 C 
BRANCH  15  16
ATOM     16  C   UNL     1       3.859   5.222  19.661  0.00  0.00    +0.000 C 
BRANCH  16  17
ATOM     17  N   UNL     1       3.556   5.484  18.236  0.00  0.00    +0.000 NA
BRANCH  17  18
ATOM     18  C   UNL     1       3.408   4.252  17.431  0.00  0.00    +0.000 C 
BRANCH  18  20
ATOM     19  C   UNL     1       2.148   2.094  17.984  0.00  0.00    +0.000 C 
ATOM     20  C   UNL     1       2.050   3.537  17.513  0.00  0.00    +0.000 C 
ENDBRANCH  18  20
ENDBRANCH  17  18
BRANCH  17  21
ATOM     21  C   UNL     1       4.580   6.386  17.662  0.00  0.00    +0.000 C 
BRANCH  21  22
ATOM     22  C   UNL     1       5.840   5.669  17.323  0.00  0.00    +0.000 A 
ATOM     23  C   UNL     1       6.744   5.008  18.200  0.00  0.00    +0.000 A 
ATOM     24  C   UNL     1       7.764   4.524  17.413  0.00  0.00    +0.000 A 
ATOM     25  O   UNL     1       7.542   4.824  16.109  0.00  0.00    +0.000 OA
ATOM     26  C   UNL     1       6.376   5.512  16.059  0.00  0.00    +0.000 A 
ENDBRANCH  21  22
ENDBRANCH  17  21
ENDBRANCH  16  17
ENDBRANCH  15  16
ENDBRANCH   1  15
TORSDOF 9
ENDMDL
MODEL 5
REMARK VINA RESULT:      -6.9      3.583      7.906
REMARK  Name = 
REMARK  10 active torsions:
REMARK  status: ('A' for Active; 'I' for Inactive)
REMARK    1  A    between atoms: C_1  and  C_2
REMARK    2  A    between atoms: C_2  and  C_3
REMARK    3  A    between atoms: C_3  and  N_4
REMARK    4  A    between atoms: N_4  and  C_5
REMARK    5  A    between atoms: N_4  and  C_20
REMARK    6  A    between atoms: C_5  and  C_6
REMARK    7  A    between atoms: C_6  and  C_7
REMARK    8  A    between atoms: C_7  and  N_8
REMARK    9  A    between atoms: N_8  and  C_9
REMARK   10  A    between atoms: C_20  and  C_21
REMARK                            x       y       z     vdW  Elec       q    Type
REMARK                         _______ _______ _______ _____ _____    ______ ____
ROOT
ATOM      1  C   UNL     1       2.702   8.009  17.314  0.00  0.00    +0.000 C 
ENDROOT
BRANCH   1   2
ATOM      2  N   UNL     1       3.810   7.253  17.902  0.00  0.00    +0.000 N 
ATOM      3  H   UNL     1       4.002   7.568  18.847  0.00  0.00    +0.000 HD
BRANCH   2   4
ATOM      4  C   UNL     1       3.816   5.848  17.819  0.00  0.00    +0.000 A 
ATOM      5  C   UNL     1       4.522   5.196  16.806  0.00  0.00    +0.000 A 
ATOM      6  C   UNL     1       4.560   3.818  16.793  0.00  0.00    +0.000 A 
ATOM      7  N   UNL     1       3.973   3.043  17.724  0.00  0.00    +0.000 NA
ATOM      8  C   UNL     1       3.330   3.647  18.731  0.00  0.00    +0.000 A 
ATOM      9  C   UNL     1       2.758   2.831  19.697  0.00  0.00    +0.000 A 
ATOM     10  C   UNL     1       2.078   3.367  20.786  0.00  0.00    +0.000 A 
ATOM     11 CL   UNL     1       1.386   2.320  21.963  0.00  0.00    +0.000 Cl
ATOM     12  C   UNL     1       1.961   4.737  20.934  0.00  0.00    +0.000 A 
ATOM     13  C   UNL     1       2.532   5.577  19.974  0.00  0.00    +0.000 A 
ATOM     14  C   UNL     1       3.226   5.054  18.848  0.00  0.00    +0.000 A 
ENDBRANCH   2   4
ENDBRANCH   1   2
BRANCH   1  15
ATOM     15  C   UNL     1       1.966   8.689  18.463  0.00  0.00    +0.000 C 
BRANCH  15  16
ATOM     16  C   UNL     1       1.172   9.925  18.022  0.00  0.00    +0.000 C 
BRANCH  16  17
ATOM     17  N   UNL     1       0.035  10.277  18.902  0.00  0.00    +0.000 NA
BRANCH  17  18
ATOM     18  C   UNL     1      -1.121  10.842  18.171  0.00  0.00    +0.000 C 
BRANCH  18  20
ATOM     19  C   UNL     1      -3.321   9.707  17.524  0.00  0.00    +0.000 C 
ATOM     20  C   UNL     1      -1.847   9.898  17.200  0.00  0.00    +0.000 C 
ENDBRANCH  18  20
ENDBRANCH  17  18
BRANCH  17  21
ATOM     21  C   UNL     1       0.493  11.187  19.975  0.00  0.00    +0.000 C 
BRANCH  21  22
ATOM     22  C   UNL     1       0.157  10.677  21.334  0.00  0.00    +0.000 A 
ATOM     23  C   UNL     1       0.447   9.403  21.896  0.00  0.00    +0.000 A 
ATOM     24  C   UNL     1      -0.090   9.407  23.163  0.00  0.00    +0.000 A 
ATOM     25  O   UNL     1      -0.674  10.602  23.428  0.00  0.00    +0.000 OA
ATOM     26  C   UNL     1      -0.519  11.367  22.321  0.00  0.00    +0.000 A 
ENDBRANCH  21  22
ENDBRANCH  17  21
ENDBRANCH  16  17
ENDBRANCH  15  16
ENDBRANCH   1  15
TORSDOF 9
ENDMDL
MODEL 6
REMARK VINA RESULT:      -6.9      2.469      3.839
REMARK  Name = 
REMARK  10 active torsions:
REMARK  status: ('A' for Active; 'I' for Inactive)
REMARK    1  A    between atoms: C_1  and  C_2
REMARK    2  A    between atoms: C_2  and  C_3
REMARK    3  A    between atoms: C_3  and  N_4
REMARK    4  A    between atoms: N_4  and  C_5
REMARK    5  A    between atoms: N_4  and  C_20
REMARK    6  A    between atoms: C_5  and  C_6
REMARK    7  A    between atoms: C_6  and  C_7
REMARK    8  A    between atoms: C_7  and  N_8
REMARK    9  A    between atoms: N_8  and  C_9
REMARK   10  A    between atoms: C_20  and  C_21
REMARK                            x       y       z     vdW  Elec       q    Type
REMARK                         _______ _______ _______ _____ _____    ______ ____
ROOT
ATOM      1  C   UNL     1       2.057   7.854  19.298  0.00  0.00    +0.000 C 
ENDROOT
BRANCH   1   2
ATOM      2  N   UNL     1       1.454   8.967  18.562  0.00  0.00    +0.000 N 
ATOM      3  H   UNL     1       1.053   8.648  17.687  0.00  0.00    +0.000 HD
BRANCH   2   4
ATOM      4  C   UNL     1       0.590   9.856  19.227  0.00  0.00    +0.000 A 
ATOM      5  C   UNL     1       0.972  10.461  20.426  0.00  0.00    +0.000 A 
ATOM      6  C   UNL     1       0.127  11.376  21.017  0.00  0.00    +0.000 A 
ATOM      7  N   UNL     1      -1.053  11.755  20.493  0.00  0.00    +0.000 NA
ATOM      8  C   UNL     1      -1.419  11.224  19.319  0.00  0.00    +0.000 A 
ATOM      9  C   UNL     1      -2.625  11.650  18.780  0.00  0.00    +0.000 A 
ATOM     10  C   UNL     1      -3.084  11.162  17.561  0.00  0.00    +0.000 A 
ATOM     11 CL   UNL     1      -4.583  11.719  16.926  0.00  0.00    +0.000 Cl
ATOM     12  C   UNL     1      -2.340  10.237  16.850  0.00  0.00    +0.000 A 
ATOM     13  C   UNL     1      -1.122   9.797  17.374  0.00  0.00    +0.000 A 
ATOM     14  C   UNL     1      -0.633  10.275  18.621  0.00  0.00    +0.000 A 
ENDBRANCH   2   4
ENDBRANCH   1   2
BRANCH   1  15
ATOM     15  C   UNL     1       2.912   7.074  18.306  0.00  0.00    +0.000 C 
BRANCH  15  16
ATOM     16  C   UNL     1       2.449   5.623  18.123  0.00  0.00    +0.000 C 
BRANCH  16  17
ATOM     17  N   UNL     1       3.467   4.601  18.458  0.00  0.00    +0.000 NA
BRANCH  17  18
ATOM     18  C   UNL     1       3.086   3.747  19.604  0.00  0.00    +0.000 C 
BRANCH  18  20
ATOM     19  C   UNL     1       1.300   2.943  21.251  0.00  0.00    +0.000 C 
ATOM     20  C   UNL     1       1.670   3.944  20.167  0.00  0.00    +0.000 C 
ENDBRANCH  18  20
ENDBRANCH  17  18
BRANCH  17  21
ATOM     21  C   UNL     1       4.777   5.252  18.679  0.00  0.00    +0.000 C 
BRANCH  21  22
ATOM     22  C   UNL     1       5.769   4.903  17.624  0.00  0.00    +0.000 A 
ATOM     23  C   UNL     1       5.525   4.452  16.297  0.00  0.00    +0.000 A 
ATOM     24  C   UNL     1       6.759   4.243  15.726  0.00  0.00    +0.000 A 
ATOM     25  O   UNL     1       7.748   4.553  16.602  0.00  0.00    +0.000 OA
ATOM     26  C   UNL     1       7.144   4.955  17.746  0.00  0.00    +0.000 A 
ENDBRANCH  21  22
ENDBRANCH  17  21
ENDBRANCH  16  17
ENDBRANCH  15  16
ENDBRANCH   1  15
TORSDOF 9
ENDMDL
MODEL 7
REMARK VINA RESULT:      -6.8      1.218      2.332
REMARK  Name = 
REMARK  10 active torsions:
REMARK  status: ('A' for Active; 'I' for Inactive)
REMARK    1  A    between atoms: C_1  and  C_2
REMARK    2  A    between atoms: C_2  and  C_3
REMARK    3  A    between atoms: C_3  and  N_4
REMARK    4  A    between atoms: N_4  and  C_5
REMARK    5  A    between atoms: N_4  and  C_20
REMARK    6  A    between atoms: C_5  and  C_6
REMARK    7  A    between atoms: C_6  and  C_7
REMARK    8  A    between atoms: C_7  and  N_8
REMARK    9  A    between atoms: N_8  and  C_9
REMARK   10  A    between atoms: C_20  and  C_21
REMARK                            x       y       z     vdW  Elec       q    Type
REMARK                         _______ _______ _______ _____ _____    ______ ____
ROOT
ATOM      1  C   UNL     1       3.676   5.977  19.358  0.00  0.00    +0.000 C 
ENDROOT
BRANCH   1   2
ATOM      2  N   UNL     1       2.559   6.607  20.064  0.00  0.00    +0.000 N 
ATOM      3  H   UNL     1       2.732   6.637  21.063  0.00  0.00    +0.000 HD
BRANCH   2   4
ATOM      4  C   UNL     1       2.039   7.828  19.597  0.00  0.00    +0.000 A 
ATOM      5  C   UNL     1       2.149   8.184  18.251  0.00  0.00    +0.000 A 
ATOM      6  C   UNL     1       1.571   9.357  17.816  0.00  0.00    +0.000 A 
ATOM      7  N   UNL     1       0.871  10.188  18.610  0.00  0.00    +0.000 NA
ATOM      8  C   UNL     1       0.712   9.844  19.895  0.00  0.00    +0.000 A 
ATOM      9  C   UNL     1      -0.039  10.699  20.690  0.00  0.00    +0.000 A 
ATOM     10  C   UNL     1      -0.267  10.422  22.034  0.00  0.00    +0.000 A 
ATOM     11 CL   UNL     1      -1.205  11.506  22.984  0.00  0.00    +0.000 Cl
ATOM     12  C   UNL     1       0.250   9.275  22.611  0.00  0.00    +0.000 A 
ATOM     13  C   UNL     1       1.007   8.400  21.827  0.00  0.00    +0.000 A 
ATOM     14  C   UNL     1       1.260   8.664  20.453  0.00  0.00    +0.000 A 
ENDBRANCH   2   4
ENDBRANCH   1   2
BRANCH   1  15
ATOM     15  C   UNL     1       3.949   4.647  20.052  0.00  0.00    +0.000 C 
BRANCH  15  16
ATOM     16  C   UNL     1       4.611   3.613  19.133  0.00  0.00    +0.000 C 
BRANCH  16  17
ATOM     17  N   UNL     1       3.988   3.483  17.796  0.00  0.00    +0.000 NA
BRANCH  17  18
ATOM     18  C   UNL     1       3.144   2.276  17.657  0.00  0.00    +0.000 C 
BRANCH  18  20
ATOM     19  C   UNL     1       1.042   3.643  18.168  0.00  0.00    +0.000 C 
ATOM     20  C   UNL     1       1.768   2.317  18.339  0.00  0.00    +0.000 C 
ENDBRANCH  18  20
ENDBRANCH  17  18
BRANCH  17  21
ATOM     21  C   UNL     1       5.030   3.539  16.748  0.00  0.00    +0.000 C 
BRANCH  21  22
ATOM     22  C   UNL     1       5.762   4.836  16.744  0.00  0.00    +0.000 A 
ATOM     23  C   UNL     1       7.028   5.138  17.317  0.00  0.00    +0.000 A 
ATOM     24  C   UNL     1       7.258   6.472  17.069  0.00  0.00    +0.000 A 
ATOM     25  O   UNL     1       6.230   7.009  16.366  0.00  0.00    +0.000 OA
ATOM     26  C   UNL     1       5.330   6.016  16.169  0.00  0.00    +0.000 A 
ENDBRANCH  21  22
ENDBRANCH  17  21
ENDBRANCH  16  17
ENDBRANCH  15  16
ENDBRANCH   1  15
TORSDOF 9
ENDMDL
MODEL 8
REMARK VINA RESULT:      -6.8      3.119      4.571
REMARK  Name = 
REMARK  10 active torsions:
REMARK  status: ('A' for Active; 'I' for Inactive)
REMARK    1  A    between atoms: C_1  and  C_2
REMARK    2  A    between atoms: C_2  and  C_3
REMARK    3  A    between atoms: C_3  and  N_4
REMARK    4  A    between atoms: N_4  and  C_5
REMARK    5  A    between atoms: N_4  and  C_20
REMARK    6  A    between atoms: C_5  and  C_6
REMARK    7  A    between atoms: C_6  and  C_7
REMARK    8  A    between atoms: C_7  and  N_8
REMARK    9  A    between atoms: N_8  and  C_9
REMARK   10  A    between atoms: C_20  and  C_21
REMARK                            x       y       z     vdW  Elec       q    Type
REMARK                         _______ _______ _______ _____ _____    ______ ____
ROOT
ATOM      1  C   UNL     1       2.259   9.098  17.956  0.00  0.00    +0.000 C 
ENDROOT
BRANCH   1   2
ATOM      2  N   UNL     1       0.889   9.455  17.579  0.00  0.00    +0.000 N 
ATOM      3  H   UNL     1       0.368   8.635  17.290  0.00  0.00    +0.000 HD
BRANCH   2   4
ATOM      4  C   UNL     1       0.125  10.276  18.428  0.00  0.00    +0.000 A 
ATOM      5  C   UNL     1       0.721  10.955  19.493  0.00  0.00    +0.000 A 
ATOM      6  C   UNL     1      -0.045  11.802  20.265  0.00  0.00    +0.000 A 
ATOM      7  N   UNL     1      -1.350  12.045  20.041  0.00  0.00    +0.000 NA
ATOM      8  C   UNL     1      -1.932  11.442  18.997  0.00  0.00    +0.000 A 
ATOM      9  C   UNL     1      -3.270  11.730  18.765  0.00  0.00    +0.000 A 
ATOM     10  C   UNL     1      -3.958  11.159  17.698  0.00  0.00    +0.000 A 
ATOM     11 CL   UNL     1      -5.615  11.545  17.444  0.00  0.00    +0.000 Cl
ATOM     12  C   UNL     1      -3.316  10.289  16.835  0.00  0.00    +0.000 A 
ATOM     13  C   UNL     1      -1.968   9.988  17.049  0.00  0.00    +0.000 A 
ATOM     14  C   UNL     1      -1.245  10.552  18.136  0.00  0.00    +0.000 A 
ENDBRANCH   2   4
ENDBRANCH   1   2
BRANCH   1  15
ATOM     15  C   UNL     1       2.307   7.578  18.073  0.00  0.00    +0.000 C 
BRANCH  15  16
ATOM     16  C   UNL     1       3.706   7.000  17.822  0.00  0.00    +0.000 C 
BRANCH  16  17
ATOM     17  N   UNL     1       3.956   5.686  18.459  0.00  0.00    +0.000 NA
BRANCH  17  18
ATOM     18  C   UNL     1       5.368   5.482  18.847  0.00  0.00    +0.000 C 
BRANCH  18  20
ATOM     19  C   UNL     1       7.204   5.035  17.121  0.00  0.00    +0.000 C 
ATOM     20  C   UNL     1       6.157   4.434  18.046  0.00  0.00    +0.000 C 
ENDBRANCH  18  20
ENDBRANCH  17  18
BRANCH  17  21
ATOM     21  C   UNL     1       3.475   4.601  17.576  0.00  0.00    +0.000 C 
BRANCH  21  22
ATOM     22  C   UNL     1       2.451   3.744  18.237  0.00  0.00    +0.000 A 
ATOM     23  C   UNL     1       1.541   4.095  19.273  0.00  0.00    +0.000 A 
ATOM     24  C   UNL     1       0.821   2.957  19.558  0.00  0.00    +0.000 A 
ATOM     25  O   UNL     1       1.210   1.935  18.756  0.00  0.00    +0.000 OA
ATOM     26  C   UNL     1       2.193   2.417  17.957  0.00  0.00    +0.000 A 
ENDBRANCH  21  22
ENDBRANCH  17  21
ENDBRANCH  16  17
ENDBRANCH  15  16
ENDBRANCH   1  15
TORSDOF 9
ENDMDL
MODEL 9
REMARK VINA RESULT:      -6.7      2.269      3.649
REMARK  Name = 
REMARK  10 active torsions:
REMARK  status: ('A' for Active; 'I' for Inactive)
REMARK    1  A    between atoms: C_1  and  C_2
REMARK    2  A    between atoms: C_2  and  C_3
REMARK    3  A    between atoms: C_3  and  N_4
REMARK    4  A    between atoms: N_4  and  C_5
REMARK    5  A    between atoms: N_4  and  C_20
REMARK    6  A    between atoms: C_5  and  C_6
REMARK    7  A    between atoms: C_6  and  C_7
REMARK    8  A    between atoms: C_7  and  N_8
REMARK    9  A    between atoms: N_8  and  C_9
REMARK   10  A    between atoms: C_20  and  C_21
REMARK                            x       y       z     vdW  Elec       q    Type
REMARK                         _______ _______ _______ _____ _____    ______ ____
ROOT
ATOM      1  C   UNL     1       2.965   6.287  19.483  0.00  0.00    +0.000 C 
ENDROOT
BRANCH   1   2
ATOM      2  N   UNL     1       2.093   7.097  20.336  0.00  0.00    +0.000 N 
ATOM      3  H   UNL     1       2.457   7.148  21.281  0.00  0.00    +0.000 HD
BRANCH   2   4
ATOM      4  C   UNL     1       1.653   8.355  19.887  0.00  0.00    +0.000 A 
ATOM      5  C   UNL     1       1.867   8.759  18.567  0.00  0.00    +0.000 A 
ATOM      6  C   UNL     1       1.365   9.970  18.144  0.00  0.00    +0.000 A 
ATOM      7  N   UNL     1       0.644  10.797  18.923  0.00  0.00    +0.000 NA
ATOM      8  C   UNL     1       0.384  10.409  20.179  0.00  0.00    +0.000 A 
ATOM      9  C   UNL     1      -0.388  11.261  20.957  0.00  0.00    +0.000 A 
ATOM     10  C   UNL     1      -0.718  10.940  22.270  0.00  0.00    +0.000 A 
ATOM     11 CL   UNL     1      -1.679  12.023  23.200  0.00  0.00    +0.000 Cl
ATOM     12  C   UNL     1      -0.285   9.752  22.832  0.00  0.00    +0.000 A 
ATOM     13  C   UNL     1       0.491   8.879  22.065  0.00  0.00    +0.000 A 
ATOM     14  C   UNL     1       0.848   9.187  20.723  0.00  0.00    +0.000 A 
ENDBRANCH   2   4
ENDBRANCH   1   2
BRANCH   1  15
ATOM     15  C   UNL     1       2.062   5.524  18.519  0.00  0.00    +0.000 C 
BRANCH  15  16
ATOM     16  C   UNL     1       2.842   4.752  17.448  0.00  0.00    +0.000 C 
BRANCH  16  17
ATOM     17  N   UNL     1       3.807   3.761  17.977  0.00  0.00    +0.000 NA
BRANCH  17  18
ATOM     18  C   UNL     1       4.929   3.483  17.054  0.00  0.00    +0.000 C 
BRANCH  18  20
ATOM     19  C   UNL     1       6.259   4.091  14.953  0.00  0.00    +0.000 C 
ATOM     20  C   UNL     1       5.058   4.407  15.832  0.00  0.00    +0.000 C 
ENDBRANCH  18  20
ENDBRANCH  17  18
BRANCH  17  21
ATOM     21  C   UNL     1       3.096   2.520  18.355  0.00  0.00    +0.000 C 
BRANCH  21  22
ATOM     22  C   UNL     1       2.650   2.532  19.776  0.00  0.00    +0.000 A 
ATOM     23  C   UNL     1       1.323   2.494  20.285  0.00  0.00    +0.000 A 
ATOM     24  C   UNL     1       1.432   2.550  21.656  0.00  0.00    +0.000 A 
ATOM     25  O   UNL     1       2.736   2.599  22.028  0.00  0.00    +0.000 OA
ATOM     26  C   UNL     1       3.468   2.584  20.888  0.00  0.00    +0.000 A 
ENDBRANCH  21  22
ENDBRANCH  17  21
ENDBRANCH  16  17
ENDBRANCH  15  16
ENDBRANCH   1  15
TORSDOF 9
ENDMDL
