MODEL 1
REMARK VINA RESULT:      -7.1      0.000      0.000
REMARK  Name = 
REMARK  5 active torsions:
REMARK  status: ('A' for Active; 'I' for Inactive)
REMARK    1  A    between atoms: C_1  and  C_2
REMARK    2  A    between atoms: N_4  and  C_5
REMARK    3  A    between atoms: C_5  and  C_6
REMARK    4  A    between atoms: C_6  and  O_7
REMARK    5  A    between atoms: O_7  and  C_8
REMARK                            x       y       z     vdW  Elec       q    Type
REMARK                         _______ _______ _______ _____ _____    ______ ____
ROOT
ATOM      1  C   UNL     1       4.931   4.782  18.088  0.00  0.00    +0.000 A 
ATOM      2  C   UNL     1       3.925   4.861  17.117  0.00  0.00    +0.000 A 
ATOM      3  C   UNL     1       2.619   4.434  17.401  0.00  0.00    +0.000 A 
ATOM      4  C   UNL     1       2.312   3.922  18.661  0.00  0.00    +0.000 A 
ATOM      5  C   UNL     1       0.975   3.478  19.026  0.00  0.00    +0.000 A 
ATOM      6  C   UNL     1       0.759   2.978  20.247  0.00  0.00    +0.000 A 
ATOM      7  C   UNL     1       1.828   2.846  21.252  0.00  0.00    +0.000 A 
ATOM      8  O   UNL     1       1.601   2.352  22.350  0.00  0.00    +0.000 OA
ATOM      9  O   UNL     1       3.083   3.312  20.894  0.00  0.00    +0.000 OA
ATOM     10  C   UNL     1       3.325   3.838  19.609  0.00  0.00    +0.000 A 
ATOM     11  C   UNL     1       4.624   4.262  19.344  0.00  0.00    +0.000 A 
ENDROOT
BRANCH   1  12
ATOM     12  O   UNL     1       6.165   5.244  17.704  0.00  0.00    +0.000 OA
BRANCH  12  13
ATOM     13  C   UNL     1       6.252   5.713  16.355  0.00  0.00    +0.000 C 
BRANCH  13  14
ATOM     14  C   UNL     1       7.428   5.052  15.648  0.00  0.00    +0.000 C 
BRANCH  14  18
ATOM     15  C   UNL     1       5.123   2.875  11.769  0.00  0.00    +0.000 C 
ATOM     16  C   UNL     1       6.019   3.650  12.654  0.00  0.00    +0.000 A 
ATOM     17  C   UNL     1       5.995   3.776  14.027  0.00  0.00    +0.000 A 
ATOM     18  N   UNL     1       7.048   4.593  14.328  0.00  0.00    +0.000 N 
ATOM     19  C   UNL     1       7.657   4.936  13.157  0.00  0.00    +0.000 A 
ATOM     20  N   UNL     1       7.058   4.383  12.128  0.00  0.00    +0.000 NA
ENDBRANCH  14  18
ENDBRANCH  13  14
ENDBRANCH  12  13
ENDBRANCH   1  12
TORSDOF 4
ENDMDL
MODEL 2
REMARK VINA RESULT:      -7.1      4.209      5.181
REMARK  Name = 
REMARK  5 active torsions:
REMARK  status: ('A' for Active; 'I' for Inactive)
REMARK    1  A    between atoms: C_1  and  C_2
REMARK    2  A    between atoms: N_4  and  C_5
REMARK    3  A    between atoms: C_5  and  C_6
REMARK    4  A    between atoms: C_6  and  O_7
REMARK    5  A    between atoms: O_7  and  C_8
REMARK                            x       y       z     vdW  Elec       q    Type
REMARK                         _______ _______ _______ _____ _____    ______ ____
ROOT
ATOM      1  C   UNL     1       2.504   6.227  19.148  0.00  0.00    +0.000 A 
ATOM      2  C   UNL     1       2.423   7.059  18.025  0.00  0.00    +0.000 A 
ATOM      3  C   UNL     1       1.945   8.373  18.138  0.00  0.00    +0.000 A 
ATOM      4  C   UNL     1       1.541   8.863  19.379  0.00  0.00    +0.000 A 
ATOM      5  C   UNL     1       1.051  10.220  19.569  0.00  0.00    +0.000 A 
ATOM      6  C   UNL     1       0.660  10.614  20.786  0.00  0.00    +0.000 A 
ATOM      7  C   UNL     1       0.696   9.723  21.959  0.00  0.00    +0.000 A 
ATOM      8  O   UNL     1       0.298  10.107  23.052  0.00  0.00    +0.000 OA
ATOM      9  O   UNL     1       1.202   8.448  21.761  0.00  0.00    +0.000 OA
ATOM     10  C   UNL     1       1.614   8.020  20.483  0.00  0.00    +0.000 A 
ATOM     11  C   UNL     1       2.091   6.716  20.387  0.00  0.00    +0.000 A 
ENDROOT
BRANCH   1  12
ATOM     12  O   UNL     1       3.003   4.969  18.921  0.00  0.00    +0.000 OA
BRANCH  12  13
ATOM     13  C   UNL     1       3.402   4.701  17.574  0.00  0.00    +0.000 C 
BRANCH  13  14
ATOM     14  C   UNL     1       4.799   4.094  17.555  0.00  0.00    +0.000 C 
BRANCH  14  18
ATOM     15  C   UNL     1       7.870   8.051  17.642  0.00  0.00    +0.000 C 
ATOM     16  C   UNL     1       7.134   6.813  17.305  0.00  0.00    +0.000 A 
ATOM     17  C   UNL     1       6.119   6.184  17.994  0.00  0.00    +0.000 A 
ATOM     18  N   UNL     1       5.796   5.094  17.237  0.00  0.00    +0.000 N 
ATOM     19  C   UNL     1       6.611   5.090  16.143  0.00  0.00    +0.000 A 
ATOM     20  N   UNL     1       7.432   6.115  16.157  0.00  0.00    +0.000 NA
ENDBRANCH  14  18
ENDBRANCH  13  14
ENDBRANCH  12  13
ENDBRANCH   1  12
TORSDOF 4
ENDMDL
MODEL 3
REMARK VINA RESULT:      -7.0      4.484      5.000
REMARK  Name = 
REMARK  5 active torsions:
REMARK  status: ('A' for Active; 'I' for Inactive)
REMARK    1  A    between atoms: C_1  and  C_2
REMARK    2  A    between atoms: N_4  and  C_5
REMARK    3  A    between atoms: C_5  and  C_6
REMARK    4  A    between atoms: C_6  and  O_7
REMARK    5  A    between atoms: O_7  and  C_8
REMARK                            x       y       z     vdW  Elec       q    Type
REMARK                         _______ _______ _______ _____ _____    ______ ____
ROOT
ATOM      1  C   UNL     1       2.521   7.182  18.680  0.00  0.00    +0.000 A 
ATOM      2  C   UNL     1       2.115   8.190  17.797  0.00  0.00    +0.000 A 
ATOM      3  C   UNL     1       1.427   9.320  18.265  0.00  0.00    +0.000 A 
ATOM      4  C   UNL     1       1.138   9.445  19.623  0.00  0.00    +0.000 A 
ATOM      5  C   UNL     1       0.443  10.598  20.176  0.00  0.00    +0.000 A 
ATOM      6  C   UNL     1       0.180  10.641  21.487  0.00  0.00    +0.000 A 
ATOM      7  C   UNL     1       0.561   9.557  22.409  0.00  0.00    +0.000 A 
ATOM      8  O   UNL     1       0.274   9.614  23.599  0.00  0.00    +0.000 OA
ATOM      9  O   UNL     1       1.256   8.488  21.865  0.00  0.00    +0.000 OA
ATOM     10  C   UNL     1       1.535   8.429  20.485  0.00  0.00    +0.000 A 
ATOM     11  C   UNL     1       2.223   7.306  20.036  0.00  0.00    +0.000 A 
ENDROOT
BRANCH   1  12
ATOM     12  O   UNL     1       3.201   6.133  18.113  0.00  0.00    +0.000 OA
BRANCH  12  13
ATOM     13  C   UNL     1       3.797   5.217  19.036  0.00  0.00    +0.000 C 
BRANCH  13  14
ATOM     14  C   UNL     1       5.296   5.470  19.127  0.00  0.00    +0.000 C 
BRANCH  14  18
ATOM     15  C   UNL     1       6.391   3.944  14.483  0.00  0.00    +0.000 C 
ATOM     16  C   UNL     1       6.427   4.371  15.898  0.00  0.00    +0.000 A 
ATOM     17  C   UNL     1       5.385   4.721  16.732  0.00  0.00    +0.000 A 
ATOM     18  N   UNL     1       5.972   5.017  17.930  0.00  0.00    +0.000 N 
ATOM     19  C   UNL     1       7.318   4.851  17.787  0.00  0.00    +0.000 A 
ATOM     20  N   UNL     1       7.624   4.463  16.570  0.00  0.00    +0.000 NA
ENDBRANCH  14  18
ENDBRANCH  13  14
ENDBRANCH  12  13
ENDBRANCH   1  12
TORSDOF 4
ENDMDL
MODEL 4
REMARK VINA RESULT:      -7.0      4.224      6.067
REMARK  Name = 
REMARK  5 active torsions:
REMARK  status: ('A' for Active; 'I' for Inactive)
REMARK    1  A    between atoms: C_1  and  C_2
REMARK    2  A    between atoms: N_4  and  C_5
REMARK    3  A    between atoms: C_5  and  C_6
REMARK    4  A    between atoms: C_6  and  O_7
REMARK    5  A    between atoms: O_7  and  C_8
REMARK                            x       y       z     vdW  Elec       q    Type
REMARK                         _______ _______ _______ _____ _____    ______ ____
ROOT
ATOM      1  C   UNL     1       3.559   6.321  18.538  0.00  0.00    +0.000 A 
ATOM      2  C   UNL     1       3.498   7.324  17.563  0.00  0.00    +0.000 A 
ATOM      3  C   UNL     1       2.674   8.446  17.737  0.00  0.00    +0.000 A 
ATOM      4  C   UNL     1       1.902   8.570  18.891  0.00  0.00    +0.000 A 
ATOM      5  C   UNL     1       1.039   9.715  19.141  0.00  0.00    +0.000 A 
ATOM      6  C   UNL     1       0.309   9.757  20.261  0.00  0.00    +0.000 A 
ATOM      7  C   UNL     1       0.333   8.678  21.265  0.00  0.00    +0.000 A 
ATOM      8  O   UNL     1      -0.375   8.733  22.263  0.00  0.00    +0.000 OA
ATOM      9  O   UNL     1       1.191   7.617  21.022  0.00  0.00    +0.000 OA
ATOM     10  C   UNL     1       1.962   7.560  19.844  0.00  0.00    +0.000 A 
ATOM     11  C   UNL     1       2.778   6.444  19.687  0.00  0.00    +0.000 A 
ENDROOT
BRANCH   1  12
ATOM     12  O   UNL     1       4.411   5.280  18.269  0.00  0.00    +0.000 OA
BRANCH  12  13
ATOM     13  C   UNL     1       4.055   4.472  17.143  0.00  0.00    +0.000 C 
BRANCH  13  14
ATOM     14  C   UNL     1       3.870   3.025  17.578  0.00  0.00    +0.000 C 
BRANCH  14  18
ATOM     15  C   UNL     1       1.367   2.496  21.885  0.00  0.00    +0.000 C 
ATOM     16  C   UNL     1       1.773   2.698  20.478  0.00  0.00    +0.000 A 
ATOM     17  C   UNL     1       3.035   2.688  19.922  0.00  0.00    +0.000 A 
ATOM     18  N   UNL     1       2.840   2.914  18.589  0.00  0.00    +0.000 N 
ATOM     19  C   UNL     1       1.499   3.060  18.384  0.00  0.00    +0.000 A 
ATOM     20  N   UNL     1       0.829   2.937  19.506  0.00  0.00    +0.000 NA
ENDBRANCH  14  18
ENDBRANCH  13  14
ENDBRANCH  12  13
ENDBRANCH   1  12
TORSDOF 4
ENDMDL
MODEL 5
REMARK VINA RESULT:      -6.9      2.001      3.465
REMARK  Name = 
REMARK  5 active torsions:
REMARK  status: ('A' for Active; 'I' for Inactive)
REMARK    1  A    between atoms: C_1  and  C_2
REMARK    2  A    between atoms: N_4  and  C_5
REMARK    3  A    between atoms: C_5  and  C_6
REMARK    4  A    between atoms: C_6  and  O_7
REMARK    5  A    between atoms: O_7  and  C_8
REMARK                            x       y       z     vdW  Elec       q    Type
REMARK                         _______ _______ _______ _____ _____    ______ ____
ROOT
ATOM      1  C   UNL     1       4.335   3.692  17.051  0.00  0.00    +0.000 A 
ATOM      2  C   UNL     1       3.834   4.999  16.998  0.00  0.00    +0.000 A 
ATOM      3  C   UNL     1       3.012   5.494  18.021  0.00  0.00    +0.000 A 
ATOM      4  C   UNL     1       2.683   4.682  19.105  0.00  0.00    +0.000 A 
ATOM      5  C   UNL     1       1.850   5.139  20.207  0.00  0.00    +0.000 A 
ATOM      6  C   UNL     1       1.557   4.297  21.204  0.00  0.00    +0.000 A 
ATOM      7  C   UNL     1       2.041   2.905  21.236  0.00  0.00    +0.000 A 
ATOM      8  O   UNL     1       1.726   2.151  22.148  0.00  0.00    +0.000 OA
ATOM      9  O   UNL     1       2.865   2.506  20.195  0.00  0.00    +0.000 OA
ATOM     10  C   UNL     1       3.177   3.383  19.137  0.00  0.00    +0.000 A 
ATOM     11  C   UNL     1       3.997   2.879  18.132  0.00  0.00    +0.000 A 
ENDROOT
BRANCH   1  12
ATOM     12  O   UNL     1       5.142   3.322  16.005  0.00  0.00    +0.000 OA
BRANCH  12  13
ATOM     13  C   UNL     1       5.513   4.377  15.113  0.00  0.00    +0.000 C 
BRANCH  13  14
ATOM     14  C   UNL     1       6.994   4.697  15.271  0.00  0.00    +0.000 C 
BRANCH  14  18
ATOM     15  C   UNL     1       8.173   5.551  20.064  0.00  0.00    +0.000 C 
ATOM     16  C   UNL     1       7.791   5.660  18.640  0.00  0.00    +0.000 A 
ATOM     17  C   UNL     1       7.620   4.663  17.702  0.00  0.00    +0.000 A 
ATOM     18  N   UNL     1       7.259   5.310  16.555  0.00  0.00    +0.000 N 
ATOM     19  C   UNL     1       7.232   6.647  16.822  0.00  0.00    +0.000 A 
ATOM     20  N   UNL     1       7.552   6.890  18.072  0.00  0.00    +0.000 NA
ENDBRANCH  14  18
ENDBRANCH  13  14
ENDBRANCH  12  13
ENDBRANCH   1  12
TORSDOF 4
ENDMDL
MODEL 6
REMARK VINA RESULT:      -6.9      1.621      1.861
REMARK  Name = 
REMARK  5 active torsions:
REMARK  status: ('A' for Active; 'I' for Inactive)
REMARK    1  A    between atoms: C_1  and  C_2
REMARK    2  A    between atoms: N_4  and  C_5
REMARK    3  A    between atoms: C_5  and  C_6
REMARK    4  A    between atoms: C_6  and  O_7
REMARK    5  A    between atoms: O_7  and  C_8
REMARK                            x       y       z     vdW  Elec       q    Type
REMARK                         _______ _______ _______ _____ _____    ______ ____
ROOT
ATOM      1  C   UNL     1       4.267   5.944  17.275  0.00  0.00    +0.000 A 
ATOM      2  C   UNL     1       4.029   6.797  18.359  0.00  0.00    +0.000 A 
ATOM      3  C   UNL     1       3.098   6.454  19.351  0.00  0.00    +0.000 A 
ATOM      4  C   UNL     1       2.395   5.253  19.261  0.00  0.00    +0.000 A 
ATOM      5  C   UNL     1       1.428   4.829  20.263  0.00  0.00    +0.000 A 
ATOM      6  C   UNL     1       0.775   3.675  20.099  0.00  0.00    +0.000 A 
ATOM      7  C   UNL     1       0.986   2.800  18.932  0.00  0.00    +0.000 A 
ATOM      8  O   UNL     1       0.345   1.765  18.798  0.00  0.00    +0.000 OA
ATOM      9  O   UNL     1       1.940   3.206  18.012  0.00  0.00    +0.000 OA
ATOM     10  C   UNL     1       2.632   4.424  18.171  0.00  0.00    +0.000 A 
ATOM     11  C   UNL     1       3.556   4.748  17.182  0.00  0.00    +0.000 A 
ENDROOT
BRANCH   1  12
ATOM     12  O   UNL     1       5.211   6.374  16.376  0.00  0.00    +0.000 OA
BRANCH  12  13
ATOM     13  C   UNL     1       6.571   6.195  16.783  0.00  0.00    +0.000 C 
BRANCH  13  14
ATOM     14  C   UNL     1       7.038   4.788  16.439  0.00  0.00    +0.000 C 
BRANCH  14  18
ATOM     15  C   UNL     1       5.560   2.997  12.000  0.00  0.00    +0.000 C 
ATOM     16  C   UNL     1       6.208   3.736  13.105  0.00  0.00    +0.000 A 
ATOM     17  C   UNL     1       6.030   3.607  14.466  0.00  0.00    +0.000 A 
ATOM     18  N   UNL     1       6.879   4.519  15.025  0.00  0.00    +0.000 N 
ATOM     19  C   UNL     1       7.524   5.164  14.012  0.00  0.00    +0.000 A 
ATOM     20  N   UNL     1       7.139   4.715  12.839  0.00  0.00    +0.000 NA
ENDBRANCH  14  18
ENDBRANCH  13  14
ENDBRANCH  12  13
ENDBRANCH   1  12
TORSDOF 4
ENDMDL
MODEL 7
REMARK VINA RESULT:      -6.9      1.136      1.309
REMARK  Name = 
REMARK  5 active torsions:
REMARK  status: ('A' for Active; 'I' for Inactive)
REMARK    1  A    between atoms: C_1  and  C_2
REMARK    2  A    between atoms: N_4  and  C_5
REMARK    3  A    between atoms: C_5  and  C_6
REMARK    4  A    between atoms: C_6  and  O_7
REMARK    5  A    between atoms: O_7  and  C_8
REMARK                            x       y       z     vdW  Elec       q    Type
REMARK                         _______ _______ _______ _____ _____    ______ ____
ROOT
ATOM      1  C   UNL     1       4.603   5.723  18.116  0.00  0.00    +0.000 A 
ATOM      2  C   UNL     1       3.363   6.160  17.634  0.00  0.00    +0.000 A 
ATOM      3  C   UNL     1       2.168   5.695  18.203  0.00  0.00    +0.000 A 
ATOM      4  C   UNL     1       2.206   4.786  19.259  0.00  0.00    +0.000 A 
ATOM      5  C   UNL     1       1.005   4.278  19.904  0.00  0.00    +0.000 A 
ATOM      6  C   UNL     1       1.118   3.390  20.898  0.00  0.00    +0.000 A 
ATOM      7  C   UNL     1       2.420   2.890  21.372  0.00  0.00    +0.000 A 
ATOM      8  O   UNL     1       2.485   2.051  22.263  0.00  0.00    +0.000 OA
ATOM      9  O   UNL     1       3.550   3.418  20.768  0.00  0.00    +0.000 OA
ATOM     10  C   UNL     1       3.445   4.351  19.717  0.00  0.00    +0.000 A 
ATOM     11  C   UNL     1       4.639   4.807  19.167  0.00  0.00    +0.000 A 
ENDROOT
BRANCH   1  12
ATOM     12  O   UNL     1       5.704   6.257  17.496  0.00  0.00    +0.000 OA
BRANCH  12  13
ATOM     13  C   UNL     1       6.968   5.839  18.022  0.00  0.00    +0.000 C 
BRANCH  13  14
ATOM     14  C   UNL     1       7.398   4.532  17.370  0.00  0.00    +0.000 C 
BRANCH  14  18
ATOM     15  C   UNL     1       5.496   3.618  12.826  0.00  0.00    +0.000 C 
ATOM     16  C   UNL     1       6.251   4.135  13.987  0.00  0.00    +0.000 A 
ATOM     17  C   UNL     1       6.198   3.746  15.309  0.00  0.00    +0.000 A 
ATOM     18  N   UNL     1       7.106   4.539  15.952  0.00  0.00    +0.000 N 
ATOM     19  C   UNL     1       7.662   5.370  15.025  0.00  0.00    +0.000 A 
ATOM     20  N   UNL     1       7.165   5.152  13.829  0.00  0.00    +0.000 NA
ENDBRANCH  14  18
ENDBRANCH  13  14
ENDBRANCH  12  13
ENDBRANCH   1  12
TORSDOF 4
ENDMDL
MODEL 8
REMARK VINA RESULT:      -6.9      4.939      6.461
REMARK  Name = 
REMARK  5 active torsions:
REMARK  status: ('A' for Active; 'I' for Inactive)
REMARK    1  A    between atoms: C_1  and  C_2
REMARK    2  A    between atoms: N_4  and  C_5
REMARK    3  A    between atoms: C_5  and  C_6
REMARK    4  A    between atoms: C_6  and  O_7
REMARK    5  A    between atoms: O_7  and  C_8
REMARK                            x       y       z     vdW  Elec       q    Type
REMARK                         _______ _______ _______ _____ _____    ______ ____
ROOT
ATOM      1  C   UNL     1       2.324   7.352  18.602  0.00  0.00    +0.000 A 
ATOM      2  C   UNL     1       1.985   8.434  17.779  0.00  0.00    +0.000 A 
ATOM      3  C   UNL     1       1.378   9.580  18.315  0.00  0.00    +0.000 A 
ATOM      4  C   UNL     1       1.104   9.649  19.680  0.00  0.00    +0.000 A 
ATOM      5  C   UNL     1       0.493  10.814  20.302  0.00  0.00    +0.000 A 
ATOM      6  C   UNL     1       0.239  10.802  21.615  0.00  0.00    +0.000 A 
ATOM      7  C   UNL     1       0.548   9.644  22.473  0.00  0.00    +0.000 A 
ATOM      8  O   UNL     1       0.271   9.654  23.666  0.00  0.00    +0.000 OA
ATOM      9  O   UNL     1       1.165   8.562  21.864  0.00  0.00    +0.000 OA
ATOM     10  C   UNL     1       1.434   8.562  20.481  0.00  0.00    +0.000 A 
ATOM     11  C   UNL     1       2.041   7.420  19.965  0.00  0.00    +0.000 A 
ENDROOT
BRANCH   1  12
ATOM     12  O   UNL     1       2.927   6.293  17.972  0.00  0.00    +0.000 OA
BRANCH  12  13
ATOM     13  C   UNL     1       4.269   6.017  18.385  0.00  0.00    +0.000 C 
BRANCH  13  14
ATOM     14  C   UNL     1       4.558   4.527  18.260  0.00  0.00    +0.000 C 
BRANCH  14  18
ATOM     15  C   UNL     1       1.395   2.574  21.618  0.00  0.00    +0.000 C 
ATOM     16  C   UNL     1       2.162   2.920  20.402  0.00  0.00    +0.000 A 
ATOM     17  C   UNL     1       3.186   3.831  20.244  0.00  0.00    +0.000 A 
ATOM     18  N   UNL     1       3.541   3.743  18.927  0.00  0.00    +0.000 N 
ATOM     19  C   UNL     1       2.735   2.813  18.340  0.00  0.00    +0.000 A 
ATOM     20  N   UNL     1       1.890   2.299  19.204  0.00  0.00    +0.000 NA
ENDBRANCH  14  18
ENDBRANCH  13  14
ENDBRANCH  12  13
ENDBRANCH   1  12
TORSDOF 4
ENDMDL
MODEL 9
REMARK VINA RESULT:      -6.8      4.789      6.382
REMARK  Name = 
REMARK  5 active torsions:
REMARK  status: ('A' for Active; 'I' for Inactive)
REMARK    1  A    between atoms: C_1  and  C_2
REMARK    2  A    between atoms: N_4  and  C_5
REMARK    3  A    between atoms: C_5  and  C_6
REMARK    4  A    between atoms: C_6  and  O_7
REMARK    5  A    between atoms: O_7  and  C_8
REMARK                            x       y       z     vdW  Elec       q    Type
REMARK                         _______ _______ _______ _____ _____    ______ ____
ROOT
ATOM      1  C   UNL     1       6.818   6.638  17.158  0.00  0.00    +0.000 A 
ATOM      2  C   UNL     1       5.801   6.648  16.195  0.00  0.00    +0.000 A 
ATOM      3  C   UNL     1       4.728   5.747  16.275  0.00  0.00    +0.000 A 
ATOM      4  C   UNL     1       4.668   4.827  17.320  0.00  0.00    +0.000 A 
ATOM      5  C   UNL     1       3.575   3.878  17.471  0.00  0.00    +0.000 A 
ATOM      6  C   UNL     1       3.594   3.009  18.487  0.00  0.00    +0.000 A 
ATOM      7  C   UNL     1       4.689   2.963  19.473  0.00  0.00    +0.000 A 
ATOM      8  O   UNL     1       4.691   2.131  20.372  0.00  0.00    +0.000 OA
ATOM      9  O   UNL     1       5.698   3.902  19.330  0.00  0.00    +0.000 OA
ATOM     10  C   UNL     1       5.691   4.821  18.261  0.00  0.00    +0.000 A 
ATOM     11  C   UNL     1       6.759   5.711  18.198  0.00  0.00    +0.000 A 
ENDROOT
BRANCH   1  12
ATOM     12  O   UNL     1       7.807   7.574  16.989  0.00  0.00    +0.000 OA
BRANCH  12  13
ATOM     13  C   UNL     1       7.652   8.775  17.751  0.00  0.00    +0.000 C 
BRANCH  13  14
ATOM     14  C   UNL     1       8.797   8.914  18.745  0.00  0.00    +0.000 C 
BRANCH  14  18
ATOM     15  C   UNL     1       9.892  13.759  18.091  0.00  0.00    +0.000 C 
ATOM     16  C   UNL     1       9.605  12.414  18.635  0.00  0.00    +0.000 A 
ATOM     17  C   UNL     1       9.314  11.244  17.964  0.00  0.00    +0.000 A 
ATOM     18  N   UNL     1       9.147  10.305  18.942  0.00  0.00    +0.000 N 
ATOM     19  C   UNL     1       9.327  10.920  20.146  0.00  0.00    +0.000 A 
ATOM     20  N   UNL     1       9.602  12.195  19.993  0.00  0.00    +0.000 NA
ENDBRANCH  14  18
ENDBRANCH  13  14
ENDBRANCH  12  13
ENDBRANCH   1  12
TORSDOF 4
ENDMDL
