MODEL 1
REMARK VINA RESULT:      -7.6      0.000      0.000
REMARK  Name = 
REMARK  7 active torsions:
REMARK  status: ('A' for Active; 'I' for Inactive)
REMARK    1  A    between atoms: C_1  and  O_2
REMARK    2  A    between atoms: O_2  and  C_3
REMARK    3  A    between atoms: C_3  and  C_5
REMARK    4  A    between atoms: C_13  and  N_14
REMARK    5  A    between atoms: C_15  and  C_17
REMARK    6  A    between atoms: C_17  and  S_18
REMARK    7  A    between atoms: S_18  and  C_19
REMARK                            x       y       z     vdW  Elec       q    Type
REMARK                         _______ _______ _______ _____ _____    ______ ____
ROOT
ATOM      1  C   UNL     1       6.824   5.937  16.223  0.00  0.00    +0.000 A 
ATOM      2  O   UNL     1       7.703   5.775  15.190  0.00  0.00    +0.000 OA
ATOM      3  C   UNL     1       7.090   5.008  14.254  0.00  0.00    +0.000 A 
ATOM      4  C   UNL     1       7.668   4.622  13.045  0.00  0.00    +0.000 A 
ATOM      5  C   UNL     1       6.879   3.858  12.183  0.00  0.00    +0.000 A 
ATOM      6  C   UNL     1       5.568   3.528  12.523  0.00  0.00    +0.000 A 
ATOM      7  C   UNL     1       5.018   3.934  13.747  0.00  0.00    +0.000 A 
ATOM      8  C   UNL     1       5.801   4.672  14.660  0.00  0.00    +0.000 A 
ATOM      9  C   UNL     1       5.647   5.241  15.965  0.00  0.00    +0.000 A 
ENDROOT
BRANCH   9  10
ATOM     10  N   UNL     1       4.595   5.212  16.877  0.00  0.00    +0.000 N 
ATOM     11  C   UNL     1       3.935   4.101  17.362  0.00  0.00    +0.000 C 
ATOM     12  O   UNL     1       4.274   2.933  17.179  0.00  0.00    +0.000 OA
ATOM     13  H   UNL     1       4.326   6.109  17.280  0.00  0.00    +0.000 HD
BRANCH  11  14
ATOM     14  C   UNL     1       2.778   4.411  18.304  0.00  0.00    +0.000 C 
BRANCH  14  15
ATOM     15  S   UNL     1       3.306   5.427  19.724  0.00  0.00    +0.000 S 
BRANCH  15  16
ATOM     16  C   UNL     1       2.557   6.987  19.302  0.00  0.00    +0.000 A 
ATOM     17  C   UNL     1       1.846   7.666  20.284  0.00  0.00    +0.000 A 
ATOM     18  C   UNL     1       1.248   8.881  19.963  0.00  0.00    +0.000 A 
ATOM     19  C   UNL     1       1.379   9.380  18.674  0.00  0.00    +0.000 A 
ATOM     20  C   UNL     1       2.106   8.639  17.758  0.00  0.00    +0.000 A 
ATOM     21  N   UNL     1       2.696   7.456  18.042  0.00  0.00    +0.000 NA
ENDBRANCH  15  16
ENDBRANCH  14  15
ENDBRANCH  11  14
ENDBRANCH   9  10
BRANCH   1  22
ATOM     22  C   UNL     1       7.212   6.725  17.369  0.00  0.00    +0.000 C 
ATOM     23  O   UNL     1       7.317   6.284  18.510  0.00  0.00    +0.000 OA
BRANCH  22  25
ATOM     24  C   UNL     1       8.164   8.787  17.980  0.00  0.00    +0.000 C 
ATOM     25  O   UNL     1       7.438   8.022  17.015  0.00  0.00    +0.000 OA
ENDBRANCH  22  25
ENDBRANCH   1  22
TORSDOF 6
ENDMDL
MODEL 2
REMARK VINA RESULT:      -7.6      0.672      1.033
REMARK  Name = 
REMARK  7 active torsions:
REMARK  status: ('A' for Active; 'I' for Inactive)
REMARK    1  A    between atoms: C_1  and  O_2
REMARK    2  A    between atoms: O_2  and  C_3
REMARK    3  A    between atoms: C_3  and  C_5
REMARK    4  A    between atoms: C_13  and  N_14
REMARK    5  A    between atoms: C_15  and  C_17
REMARK    6  A    between atoms: C_17  and  S_18
REMARK    7  A    between atoms: S_18  and  C_19
REMARK                            x       y       z     vdW  Elec       q    Type
REMARK                         _______ _______ _______ _____ _____    ______ ____
ROOT
ATOM      1  C   UNL     1       6.744   5.677  16.091  0.00  0.00    +0.000 A 
ATOM      2  O   UNL     1       7.642   5.434  15.090  0.00  0.00    +0.000 OA
ATOM      3  C   UNL     1       6.986   4.756  14.115  0.00  0.00    +0.000 A 
ATOM      4  C   UNL     1       7.568   4.327  12.922  0.00  0.00    +0.000 A 
ATOM      5  C   UNL     1       6.735   3.671  12.015  0.00  0.00    +0.000 A 
ATOM      6  C   UNL     1       5.383   3.483  12.295  0.00  0.00    +0.000 A 
ATOM      7  C   UNL     1       4.831   3.928  13.505  0.00  0.00    +0.000 A 
ATOM      8  C   UNL     1       5.653   4.559  14.463  0.00  0.00    +0.000 A 
ATOM      9  C   UNL     1       5.509   5.121  15.772  0.00  0.00    +0.000 A 
ENDROOT
BRANCH   9  10
ATOM     10  N   UNL     1       4.423   5.194  16.641  0.00  0.00    +0.000 N 
ATOM     11  C   UNL     1       3.820   4.155  17.321  0.00  0.00    +0.000 C 
ATOM     12  O   UNL     1       4.243   3.003  17.385  0.00  0.00    +0.000 OA
ATOM     13  H   UNL     1       4.077   6.131  16.848  0.00  0.00    +0.000 HD
BRANCH  11  14
ATOM     14  C   UNL     1       2.605   4.558  18.148  0.00  0.00    +0.000 C 
BRANCH  14  15
ATOM     15  S   UNL     1       3.080   5.418  19.685  0.00  0.00    +0.000 S 
BRANCH  15  16
ATOM     16  C   UNL     1       2.340   7.014  19.404  0.00  0.00    +0.000 A 
ATOM     17  C   UNL     1       2.409   7.559  18.129  0.00  0.00    +0.000 A 
ATOM     18  C   UNL     1       1.843   8.810  17.900  0.00  0.00    +0.000 A 
ATOM     19  C   UNL     1       1.227   9.477  18.951  0.00  0.00    +0.000 A 
ATOM     20  C   UNL     1       1.202   8.860  20.189  0.00  0.00    +0.000 A 
ATOM     21  N   UNL     1       1.745   7.647  20.440  0.00  0.00    +0.000 NA
ENDBRANCH  15  16
ENDBRANCH  14  15
ENDBRANCH  11  14
ENDBRANCH   9  10
BRANCH   1  22
ATOM     22  C   UNL     1       7.169   6.399  17.268  0.00  0.00    +0.000 C 
ATOM     23  O   UNL     1       6.828   6.117  18.414  0.00  0.00    +0.000 OA
BRANCH  22  25
ATOM     24  C   UNL     1       7.822   8.610  17.729  0.00  0.00    +0.000 C 
ATOM     25  O   UNL     1       7.990   7.434  16.935  0.00  0.00    +0.000 OA
ENDBRANCH  22  25
ENDBRANCH   1  22
TORSDOF 6
ENDMDL
MODEL 3
REMARK VINA RESULT:      -7.6      0.828      1.458
REMARK  Name = 
REMARK  7 active torsions:
REMARK  status: ('A' for Active; 'I' for Inactive)
REMARK    1  A    between atoms: C_1  and  O_2
REMARK    2  A    between atoms: O_2  and  C_3
REMARK    3  A    between atoms: C_3  and  C_5
REMARK    4  A    between atoms: C_13  and  N_14
REMARK    5  A    between atoms: C_15  and  C_17
REMARK    6  A    between atoms: C_17  and  S_18
REMARK    7  A    between atoms: S_18  and  C_19
REMARK                            x       y       z     vdW  Elec       q    Type
REMARK                         _______ _______ _______ _____ _____    ______ ____
ROOT
ATOM      1  C   UNL     1       6.750   5.839  15.959  0.00  0.00    +0.000 A 
ATOM      2  O   UNL     1       7.659   5.578  14.973  0.00  0.00    +0.000 OA
ATOM      3  C   UNL     1       7.035   4.822  14.037  0.00  0.00    +0.000 A 
ATOM      4  C   UNL     1       7.636   4.352  12.869  0.00  0.00    +0.000 A 
ATOM      5  C   UNL     1       6.833   3.615  11.998  0.00  0.00    +0.000 A 
ATOM      6  C   UNL     1       5.489   3.389  12.287  0.00  0.00    +0.000 A 
ATOM      7  C   UNL     1       4.916   3.877  13.470  0.00  0.00    +0.000 A 
ATOM      8  C   UNL     1       5.709   4.592  14.393  0.00  0.00    +0.000 A 
ATOM      9  C   UNL     1       5.539   5.217  15.670  0.00  0.00    +0.000 A 
ENDROOT
BRANCH   9  10
ATOM     10  N   UNL     1       4.448   5.295  16.532  0.00  0.00    +0.000 N 
ATOM     11  C   UNL     1       3.893   4.274  17.278  0.00  0.00    +0.000 C 
ATOM     12  O   UNL     1       4.371   3.151  17.417  0.00  0.00    +0.000 OA
ATOM     13  H   UNL     1       4.057   6.225  16.678  0.00  0.00    +0.000 HD
BRANCH  11  14
ATOM     14  C   UNL     1       2.658   4.672  18.078  0.00  0.00    +0.000 C 
BRANCH  14  15
ATOM     15  S   UNL     1       3.094   5.529  19.628  0.00  0.00    +0.000 S 
BRANCH  15  16
ATOM     16  C   UNL     1       2.349   7.121  19.337  0.00  0.00    +0.000 A 
ATOM     17  C   UNL     1       2.429   7.665  18.062  0.00  0.00    +0.000 A 
ATOM     18  C   UNL     1       1.860   8.913  17.826  0.00  0.00    +0.000 A 
ATOM     19  C   UNL     1       1.229   9.578  18.869  0.00  0.00    +0.000 A 
ATOM     20  C   UNL     1       1.194   8.962  20.109  0.00  0.00    +0.000 A 
ATOM     21  N   UNL     1       1.740   7.752  20.366  0.00  0.00    +0.000 NA
ENDBRANCH  15  16
ENDBRANCH  14  15
ENDBRANCH  11  14
ENDBRANCH   9  10
BRANCH   1  22
ATOM     22  C   UNL     1       7.142   6.640  17.095  0.00  0.00    +0.000 C 
ATOM     23  O   UNL     1       7.631   7.764  17.015  0.00  0.00    +0.000 OA
BRANCH  22  25
ATOM     24  C   UNL     1       7.761   4.864  18.506  0.00  0.00    +0.000 C 
ATOM     25  O   UNL     1       6.901   5.979  18.263  0.00  0.00    +0.000 OA
ENDBRANCH  22  25
ENDBRANCH   1  22
TORSDOF 6
ENDMDL
MODEL 4
REMARK VINA RESULT:      -7.5      0.627      1.016
REMARK  Name = 
REMARK  7 active torsions:
REMARK  status: ('A' for Active; 'I' for Inactive)
REMARK    1  A    between atoms: C_1  and  O_2
REMARK    2  A    between atoms: O_2  and  C_3
REMARK    3  A    between atoms: C_3  and  C_5
REMARK    4  A    between atoms: C_13  and  N_14
REMARK    5  A    between atoms: C_15  and  C_17
REMARK    6  A    between atoms: C_17  and  S_18
REMARK    7  A    between atoms: S_18  and  C_19
REMARK                            x       y       z     vdW  Elec       q    Type
REMARK                         _______ _______ _______ _____ _____    ______ ____
ROOT
ATOM      1  C   UNL     1       6.824   5.679  15.998  0.00  0.00    +0.000 A 
ATOM      2  O   UNL     1       7.675   5.472  14.949  0.00  0.00    +0.000 OA
ATOM      3  C   UNL     1       7.001   4.750  14.020  0.00  0.00    +0.000 A 
ATOM      4  C   UNL     1       7.535   4.338  12.798  0.00  0.00    +0.000 A 
ATOM      5  C   UNL     1       6.687   3.629  11.946  0.00  0.00    +0.000 A 
ATOM      6  C   UNL     1       5.365   3.374  12.306  0.00  0.00    +0.000 A 
ATOM      7  C   UNL     1       4.860   3.804  13.542  0.00  0.00    +0.000 A 
ATOM      8  C   UNL     1       5.702   4.487  14.445  0.00  0.00    +0.000 A 
ATOM      9  C   UNL     1       5.604   5.055  15.757  0.00  0.00    +0.000 A 
ENDROOT
BRANCH   9  10
ATOM     10  N   UNL     1       4.568   5.082  16.686  0.00  0.00    +0.000 N 
ATOM     11  C   UNL     1       3.918   4.003  17.250  0.00  0.00    +0.000 C 
ATOM     12  O   UNL     1       4.254   2.826  17.133  0.00  0.00    +0.000 OA
ATOM     13  H   UNL     1       4.304   6.002  17.038  0.00  0.00    +0.000 HD
BRANCH  11  14
ATOM     14  C   UNL     1       2.776   4.370  18.191  0.00  0.00    +0.000 C 
BRANCH  14  15
ATOM     15  S   UNL     1       3.353   5.357  19.612  0.00  0.00    +0.000 S 
BRANCH  15  16
ATOM     16  C   UNL     1       2.616   6.933  19.232  0.00  0.00    +0.000 A 
ATOM     17  C   UNL     1       1.851   7.558  20.208  0.00  0.00    +0.000 A 
ATOM     18  C   UNL     1       1.261   8.785  19.919  0.00  0.00    +0.000 A 
ATOM     19  C   UNL     1       1.455   9.351  18.665  0.00  0.00    +0.000 A 
ATOM     20  C   UNL     1       2.233   8.660  17.752  0.00  0.00    +0.000 A 
ATOM     21  N   UNL     1       2.816   7.467  18.006  0.00  0.00    +0.000 NA
ENDBRANCH  15  16
ENDBRANCH  14  15
ENDBRANCH  11  14
ENDBRANCH   9  10
BRANCH   1  22
ATOM     22  C   UNL     1       7.277   6.435  17.142  0.00  0.00    +0.000 C 
ATOM     23  O   UNL     1       7.245   7.660  17.221  0.00  0.00    +0.000 OA
BRANCH  22  25
ATOM     24  C   UNL     1       7.063   5.702  19.366  0.00  0.00    +0.000 C 
ATOM     25  O   UNL     1       7.750   5.607  18.117  0.00  0.00    +0.000 OA
ENDBRANCH  22  25
ENDBRANCH   1  22
TORSDOF 6
ENDMDL
MODEL 5
REMARK VINA RESULT:      -7.4      3.197      6.519
REMARK  Name = 
REMARK  7 active torsions:
REMARK  status: ('A' for Active; 'I' for Inactive)
REMARK    1  A    between atoms: C_1  and  O_2
REMARK    2  A    between atoms: O_2  and  C_3
REMARK    3  A    between atoms: C_3  and  C_5
REMARK    4  A    between atoms: C_13  and  N_14
REMARK    5  A    between atoms: C_15  and  C_17
REMARK    6  A    between atoms: C_17  and  S_18
REMARK    7  A    between atoms: S_18  and  C_19
REMARK                            x       y       z     vdW  Elec       q    Type
REMARK                         _______ _______ _______ _____ _____    ______ ____
ROOT
ATOM      1  C   UNL     1       5.735   5.070  15.970  0.00  0.00    +0.000 A 
ATOM      2  O   UNL     1       4.780   4.121  16.202  0.00  0.00    +0.000 OA
ATOM      3  C   UNL     1       3.936   4.617  17.140  0.00  0.00    +0.000 A 
ATOM      4  C   UNL     1       2.825   3.939  17.642  0.00  0.00    +0.000 A 
ATOM      5  C   UNL     1       2.045   4.615  18.581  0.00  0.00    +0.000 A 
ATOM      6  C   UNL     1       2.364   5.915  18.970  0.00  0.00    +0.000 A 
ATOM      7  C   UNL     1       3.489   6.568  18.444  0.00  0.00    +0.000 A 
ATOM      8  C   UNL     1       4.323   5.898  17.523  0.00  0.00    +0.000 A 
ATOM      9  C   UNL     1       5.523   6.173  16.792  0.00  0.00    +0.000 A 
ENDROOT
BRANCH   9  10
ATOM     10  N   UNL     1       6.378   7.273  16.781  0.00  0.00    +0.000 N 
ATOM     11  C   UNL     1       7.411   7.542  17.656  0.00  0.00    +0.000 C 
ATOM     12  O   UNL     1       7.844   6.769  18.508  0.00  0.00    +0.000 OA
ATOM     13  H   UNL     1       6.268   7.919  16.000  0.00  0.00    +0.000 HD
BRANCH  11  14
ATOM     14  C   UNL     1       8.120   8.869  17.413  0.00  0.00    +0.000 C 
BRANCH  14  15
ATOM     15  S   UNL     1       8.893   9.519  18.931  0.00  0.00    +0.000 S 
BRANCH  15  16
ATOM     16  C   UNL     1       9.580  11.044  18.317  0.00  0.00    +0.000 A 
ATOM     17  C   UNL     1       8.717  12.103  18.064  0.00  0.00    +0.000 A 
ATOM     18  C   UNL     1       9.241  13.296  17.575  0.00  0.00    +0.000 A 
ATOM     19  C   UNL     1      10.609  13.395  17.355  0.00  0.00    +0.000 A 
ATOM     20  C   UNL     1      11.396  12.291  17.636  0.00  0.00    +0.000 A 
ATOM     21  N   UNL     1      10.913  11.121  18.110  0.00  0.00    +0.000 NA
ENDBRANCH  15  16
ENDBRANCH  14  15
ENDBRANCH  11  14
ENDBRANCH   9  10
BRANCH   1  22
ATOM     22  C   UNL     1       6.774   4.814  15.000  0.00  0.00    +0.000 C 
ATOM     23  O   UNL     1       7.727   5.559  14.790  0.00  0.00    +0.000 OA
BRANCH  22  25
ATOM     24  C   UNL     1       6.267   3.774  12.953  0.00  0.00    +0.000 C 
ATOM     25  O   UNL     1       6.550   3.638  14.346  0.00  0.00    +0.000 OA
ENDBRANCH  22  25
ENDBRANCH   1  22
TORSDOF 6
ENDMDL
MODEL 6
REMARK VINA RESULT:      -7.3      1.649      2.086
REMARK  Name = 
REMARK  7 active torsions:
REMARK  status: ('A' for Active; 'I' for Inactive)
REMARK    1  A    between atoms: C_1  and  O_2
REMARK    2  A    between atoms: O_2  and  C_3
REMARK    3  A    between atoms: C_3  and  C_5
REMARK    4  A    between atoms: C_13  and  N_14
REMARK    5  A    between atoms: C_15  and  C_17
REMARK    6  A    between atoms: C_17  and  S_18
REMARK    7  A    between atoms: S_18  and  C_19
REMARK                            x       y       z     vdW  Elec       q    Type
REMARK                         _______ _______ _______ _____ _____    ______ ____
ROOT
ATOM      1  C   UNL     1       6.980   5.247  16.195  0.00  0.00    +0.000 A 
ATOM      2  O   UNL     1       7.607   5.797  15.113  0.00  0.00    +0.000 OA
ATOM      3  C   UNL     1       7.273   5.053  14.030  0.00  0.00    +0.000 A 
ATOM      4  C   UNL     1       7.717   5.302  12.731  0.00  0.00    +0.000 A 
ATOM      5  C   UNL     1       7.246   4.453  11.729  0.00  0.00    +0.000 A 
ATOM      6  C   UNL     1       6.354   3.425  12.027  0.00  0.00    +0.000 A 
ATOM      7  C   UNL     1       5.926   3.203  13.345  0.00  0.00    +0.000 A 
ATOM      8  C   UNL     1       6.415   4.017  14.389  0.00  0.00    +0.000 A 
ATOM      9  C   UNL     1       6.263   4.118  15.809  0.00  0.00    +0.000 A 
ENDROOT
BRANCH   9  10
ATOM     10  N   UNL     1       5.557   3.346  16.728  0.00  0.00    +0.000 N 
ATOM     11  C   UNL     1       4.207   3.401  17.010  0.00  0.00    +0.000 C 
ATOM     12  O   UNL     1       3.372   4.046  16.380  0.00  0.00    +0.000 OA
ATOM     13  H   UNL     1       6.087   2.613  17.200  0.00  0.00    +0.000 HD
BRANCH  11  14
ATOM     14  C   UNL     1       3.751   2.463  18.122  0.00  0.00    +0.000 C 
BRANCH  14  15
ATOM     15  S   UNL     1       4.300   3.033  19.765  0.00  0.00    +0.000 S 
BRANCH  15  16
ATOM     16  C   UNL     1       3.379   4.552  19.905  0.00  0.00    +0.000 A 
ATOM     17  C   UNL     1       2.193   4.541  20.628  0.00  0.00    +0.000 A 
ATOM     18  C   UNL     1       1.460   5.720  20.735  0.00  0.00    +0.000 A 
ATOM     19  C   UNL     1       1.935   6.871  20.120  0.00  0.00    +0.000 A 
ATOM     20  C   UNL     1       3.127   6.792  19.421  0.00  0.00    +0.000 A 
ATOM     21  N   UNL     1       3.858   5.661  19.299  0.00  0.00    +0.000 NA
ENDBRANCH  15  16
ENDBRANCH  14  15
ENDBRANCH  11  14
ENDBRANCH   9  10
BRANCH   1  22
ATOM     22  C   UNL     1       7.152   5.844  17.498  0.00  0.00    +0.000 C 
ATOM     23  O   UNL     1       7.081   7.050  17.722  0.00  0.00    +0.000 OA
BRANCH  22  25
ATOM     24  C   UNL     1       7.680   5.405  19.747  0.00  0.00    +0.000 C 
ATOM     25  O   UNL     1       7.409   4.893  18.440  0.00  0.00    +0.000 OA
ENDBRANCH  22  25
ENDBRANCH   1  22
TORSDOF 6
ENDMDL
MODEL 7
REMARK VINA RESULT:      -7.3      2.071      3.276
REMARK  Name = 
REMARK  7 active torsions:
REMARK  status: ('A' for Active; 'I' for Inactive)
REMARK    1  A    between atoms: C_1  and  O_2
REMARK    2  A    between atoms: O_2  and  C_3
REMARK    3  A    between atoms: C_3  and  C_5
REMARK    4  A    between atoms: C_13  and  N_14
REMARK    5  A    between atoms: C_15  and  C_17
REMARK    6  A    between atoms: C_17  and  S_18
REMARK    7  A    between atoms: S_18  and  C_19
REMARK                            x       y       z     vdW  Elec       q    Type
REMARK                         _______ _______ _______ _____ _____    ______ ____
ROOT
ATOM      1  C   UNL     1       6.938   5.518  15.914  0.00  0.00    +0.000 A 
ATOM      2  O   UNL     1       7.757   5.264  14.850  0.00  0.00    +0.000 OA
ATOM      3  C   UNL     1       7.016   4.616  13.917  0.00  0.00    +0.000 A 
ATOM      4  C   UNL     1       7.501   4.187  12.681  0.00  0.00    +0.000 A 
ATOM      5  C   UNL     1       6.589   3.564  11.827  0.00  0.00    +0.000 A 
ATOM      6  C   UNL     1       5.255   3.410  12.200  0.00  0.00    +0.000 A 
ATOM      7  C   UNL     1       4.801   3.854  13.450  0.00  0.00    +0.000 A 
ATOM      8  C   UNL     1       5.705   4.451  14.355  0.00  0.00    +0.000 A 
ATOM      9  C   UNL     1       5.669   4.999  15.677  0.00  0.00    +0.000 A 
ENDROOT
BRANCH   9  10
ATOM     10  N   UNL     1       4.649   5.091  16.621  0.00  0.00    +0.000 N 
ATOM     11  C   UNL     1       4.032   6.236  17.082  0.00  0.00    +0.000 C 
ATOM     12  O   UNL     1       4.183   7.364  16.618  0.00  0.00    +0.000 OA
ATOM     13  H   UNL     1       4.272   4.206  16.961  0.00  0.00    +0.000 HD
BRANCH  11  14
ATOM     14  C   UNL     1       2.991   6.003  18.170  0.00  0.00    +0.000 C 
BRANCH  14  15
ATOM     15  S   UNL     1       1.972   4.527  17.836  0.00  0.00    +0.000 S 
BRANCH  15  16
ATOM     16  C   UNL     1       2.158   3.650  19.375  0.00  0.00    +0.000 A 
ATOM     17  C   UNL     1       1.045   3.511  20.195  0.00  0.00    +0.000 A 
ATOM     18  C   UNL     1       1.180   2.837  21.404  0.00  0.00    +0.000 A 
ATOM     19  C   UNL     1       2.420   2.322  21.758  0.00  0.00    +0.000 A 
ATOM     20  C   UNL     1       3.475   2.504  20.881  0.00  0.00    +0.000 A 
ATOM     21  N   UNL     1       3.373   3.156  19.701  0.00  0.00    +0.000 NA
ENDBRANCH  15  16
ENDBRANCH  14  15
ENDBRANCH  11  14
ENDBRANCH   9  10
BRANCH   1  22
ATOM     22  C   UNL     1       7.464   6.213  17.066  0.00  0.00    +0.000 C 
ATOM     23  O   UNL     1       7.650   7.425  17.119  0.00  0.00    +0.000 OA
BRANCH  22  25
ATOM     24  C   UNL     1       7.669   5.913  19.389  0.00  0.00    +0.000 C 
ATOM     25  O   UNL     1       7.729   5.342  18.081  0.00  0.00    +0.000 OA
ENDBRANCH  22  25
ENDBRANCH   1  22
TORSDOF 6
ENDMDL
MODEL 8
REMARK VINA RESULT:      -7.3      2.470      7.424
REMARK  Name = 
REMARK  7 active torsions:
REMARK  status: ('A' for Active; 'I' for Inactive)
REMARK    1  A    between atoms: C_1  and  O_2
REMARK    2  A    between atoms: O_2  and  C_3
REMARK    3  A    between atoms: C_3  and  C_5
REMARK    4  A    between atoms: C_13  and  N_14
REMARK    5  A    between atoms: C_15  and  C_17
REMARK    6  A    between atoms: C_17  and  S_18
REMARK    7  A    between atoms: S_18  and  C_19
REMARK                            x       y       z     vdW  Elec       q    Type
REMARK                         _______ _______ _______ _____ _____    ______ ____
ROOT
ATOM      1  C   UNL     1       2.613   4.416  20.140  0.00  0.00    +0.000 A 
ATOM      2  O   UNL     1       1.792   5.104  20.988  0.00  0.00    +0.000 OA
ATOM      3  C   UNL     1       1.727   6.382  20.539  0.00  0.00    +0.000 A 
ATOM      4  C   UNL     1       0.982   7.396  21.142  0.00  0.00    +0.000 A 
ATOM      5  C   UNL     1       1.004   8.648  20.524  0.00  0.00    +0.000 A 
ATOM      6  C   UNL     1       1.724   8.849  19.348  0.00  0.00    +0.000 A 
ATOM      7  C   UNL     1       2.461   7.807  18.768  0.00  0.00    +0.000 A 
ATOM      8  C   UNL     1       2.495   6.540  19.388  0.00  0.00    +0.000 A 
ATOM      9  C   UNL     1       3.108   5.267  19.157  0.00  0.00    +0.000 A 
ENDROOT
BRANCH   9  10
ATOM     10  N   UNL     1       3.999   4.824  18.183  0.00  0.00    +0.000 N 
ATOM     11  C   UNL     1       5.337   4.521  18.344  0.00  0.00    +0.000 C 
ATOM     12  O   UNL     1       5.928   4.449  19.419  0.00  0.00    +0.000 OA
ATOM     13  H   UNL     1       3.603   4.642  17.261  0.00  0.00    +0.000 HD
BRANCH  11  14
ATOM     14  C   UNL     1       6.056   4.124  17.060  0.00  0.00    +0.000 C 
BRANCH  14  15
ATOM     15  S   UNL     1       6.857   5.551  16.256  0.00  0.00    +0.000 S 
BRANCH  15  16
ATOM     16  C   UNL     1       6.907   4.985  14.567  0.00  0.00    +0.000 A 
ATOM     17  C   UNL     1       6.009   4.002  14.173  0.00  0.00    +0.000 A 
ATOM     18  C   UNL     1       6.045   3.545  12.859  0.00  0.00    +0.000 A 
ATOM     19  C   UNL     1       6.976   4.083  11.980  0.00  0.00    +0.000 A 
ATOM     20  C   UNL     1       7.833   5.060  12.457  0.00  0.00    +0.000 A 
ATOM     21  N   UNL     1       7.820   5.522  13.728  0.00  0.00    +0.000 NA
ENDBRANCH  15  16
ENDBRANCH  14  15
ENDBRANCH  11  14
ENDBRANCH   9  10
BRANCH   1  22
ATOM     22  C   UNL     1       2.862   3.013  20.374  0.00  0.00    +0.000 C 
ATOM     23  O   UNL     1       3.306   2.553  21.423  0.00  0.00    +0.000 OA
BRANCH  22  25
ATOM     24  C   UNL     1       3.572   1.382  18.836  0.00  0.00    +0.000 C 
ATOM     25  O   UNL     1       2.544   2.271  19.275  0.00  0.00    +0.000 OA
ENDBRANCH  22  25
ENDBRANCH   1  22
TORSDOF 6
ENDMDL
MODEL 9
REMARK VINA RESULT:      -7.3      3.267      6.799
REMARK  Name = 
REMARK  7 active torsions:
REMARK  status: ('A' for Active; 'I' for Inactive)
REMARK    1  A    between atoms: C_1  and  O_2
REMARK    2  A    between atoms: O_2  and  C_3
REMARK    3  A    between atoms: C_3  and  C_5
REMARK    4  A    between atoms: C_13  and  N_14
REMARK    5  A    between atoms: C_15  and  C_17
REMARK    6  A    between atoms: C_17  and  S_18
REMARK    7  A    between atoms: S_18  and  C_19
REMARK                            x       y       z     vdW  Elec       q    Type
REMARK                         _______ _______ _______ _____ _____    ______ ____
ROOT
ATOM      1  C   UNL     1       1.992   5.743  20.320  0.00  0.00    +0.000 A 
ATOM      2  O   UNL     1       1.293   6.824  20.780  0.00  0.00    +0.000 OA
ATOM      3  C   UNL     1       1.525   7.849  19.922  0.00  0.00    +0.000 A 
ATOM      4  C   UNL     1       0.982   9.127  20.053  0.00  0.00    +0.000 A 
ATOM      5  C   UNL     1       1.301  10.053  19.058  0.00  0.00    +0.000 A 
ATOM      6  C   UNL     1       2.106   9.691  17.980  0.00  0.00    +0.000 A 
ATOM      7  C   UNL     1       2.635   8.396  17.879  0.00  0.00    +0.000 A 
ATOM      8  C   UNL     1       2.366   7.447  18.889  0.00  0.00    +0.000 A 
ATOM      9  C   UNL     1       2.706   6.086  19.176  0.00  0.00    +0.000 A 
ENDROOT
BRANCH   9  10
ATOM     10  N   UNL     1       3.532   5.173  18.525  0.00  0.00    +0.000 N 
ATOM     11  C   UNL     1       3.157   4.188  17.633  0.00  0.00    +0.000 C 
ATOM     12  O   UNL     1       2.035   4.053  17.150  0.00  0.00    +0.000 OA
ATOM     13  H   UNL     1       4.534   5.288  18.675  0.00  0.00    +0.000 HD
BRANCH  11  14
ATOM     14  C   UNL     1       4.299   3.306  17.143  0.00  0.00    +0.000 C 
BRANCH  14  15
ATOM     15  S   UNL     1       5.358   4.169  15.934  0.00  0.00    +0.000 S 
BRANCH  15  16
ATOM     16  C   UNL     1       6.376   5.138  17.029  0.00  0.00    +0.000 A 
ATOM     17  C   UNL     1       6.684   6.442  16.663  0.00  0.00    +0.000 A 
ATOM     18  C   UNL     1       7.486   7.206  17.506  0.00  0.00    +0.000 A 
ATOM     19  C   UNL     1       7.955   6.645  18.687  0.00  0.00    +0.000 A 
ATOM     20  C   UNL     1       7.598   5.339  18.974  0.00  0.00    +0.000 A 
ATOM     21  N   UNL     1       6.821   4.574  18.173  0.00  0.00    +0.000 NA
ENDBRANCH  15  16
ENDBRANCH  14  15
ENDBRANCH  11  14
ENDBRANCH   9  10
BRANCH   1  22
ATOM     22  C   UNL     1       1.924   4.494  21.041  0.00  0.00    +0.000 C 
ATOM     23  O   UNL     1       2.699   4.167  21.936  0.00  0.00    +0.000 OA
BRANCH  22  25
ATOM     24  C   UNL     1       1.264   2.415  20.162  0.00  0.00    +0.000 C 
ATOM     25  O   UNL     1       0.892   3.726  20.591  0.00  0.00    +0.000 OA
ENDBRANCH  22  25
ENDBRANCH   1  22
TORSDOF 6
ENDMDL
