MODEL 1
REMARK VINA RESULT:      -8.0      0.000      0.000
REMARK  Name = 
REMARK  6 active torsions:
REMARK  status: ('A' for Active; 'I' for Inactive)
REMARK    1  A    between atoms: C_1  and  C_2
REMARK    2  A    between atoms: C_2  and  C_3
REMARK    3  A    between atoms: C_2  and  C_4
REMARK    4  A    between atoms: C_6  and  C_7
REMARK    5  A    between atoms: C_12  and  C_13
REMARK    6  A    between atoms: C_20  and  C_21
REMARK                            x       y       z     vdW  Elec       q    Type
REMARK                         _______ _______ _______ _____ _____    ______ ____
ROOT
ATOM      1  C   UNL     1       2.859   5.120  18.865  0.00  0.00    +0.000 A 
ATOM      2  C   UNL     1       2.168   6.318  19.167  0.00  0.00    +0.000 A 
ATOM      3  C   UNL     1       2.486   7.549  18.580  0.00  0.00    +0.000 A 
ATOM      4  C   UNL     1       3.583   7.612  17.726  0.00  0.00    +0.000 A 
ATOM      5  C   UNL     1       4.340   6.469  17.473  0.00  0.00    +0.000 A 
ATOM      6  C   UNL     1       4.002   5.220  18.035  0.00  0.00    +0.000 A 
ENDROOT
BRANCH   3   7
ATOM      7  C   UNL     1       1.640   8.717  18.792  0.00  0.00    +0.000 A 
ATOM      8  C   UNL     1       1.417   9.666  17.806  0.00  0.00    +0.000 A 
ATOM      9  N   UNL     1       0.645  10.668  18.335  0.00  0.00    +0.000 N 
ATOM     10  C   UNL     1       0.381  10.398  19.646  0.00  0.00    +0.000 A 
ATOM     11  N   UNL     1      -0.332  11.206  20.450  0.00  0.00    +0.000 NA
ATOM     12  C   UNL     1      -0.447  10.726  21.714  0.00  0.00    +0.000 A 
ATOM     13  C   UNL     1       0.082   9.523  22.173  0.00  0.00    +0.000 A 
ATOM     14  C   UNL     1       0.802   8.720  21.288  0.00  0.00    +0.000 A 
ATOM     15  C   UNL     1       0.972   9.180  19.971  0.00  0.00    +0.000 A 
ATOM     16  H   UNL     1       0.335  11.501  17.858  0.00  0.00    +0.000 HD
BRANCH  12  17
ATOM     17  C   UNL     1      -1.187  11.562  22.615  0.00  0.00    +0.000 C 
ATOM     18  N   UNL     1      -1.794  12.203  23.373  0.00  0.00    +0.000 NA
ENDBRANCH  12  17
ENDBRANCH   3   7
BRANCH   6  19
ATOM     19  C   UNL     1       4.867   4.056  17.651  0.00  0.00    +0.000 C 
ATOM     20  N   UNL     1       5.852   3.691  18.529  0.00  0.00    +0.000 N 
ATOM     21  O   UNL     1       4.740   3.434  16.607  0.00  0.00    +0.000 OA
ATOM     22  H   UNL     1       5.940   4.046  19.471  0.00  0.00    +0.000 HD
ATOM     23  H   UNL     1       6.435   2.904  18.268  0.00  0.00    +0.000 HD
ENDBRANCH   6  19
BRANCH   1  25
ATOM     24  C   UNL     1       1.540   4.062  20.746  0.00  0.00    +0.000 C 
ATOM     25  C   UNL     1       2.319   3.814  19.453  0.00  0.00    +0.000 C 
ATOM     26  C   UNL     1       1.441   2.999  18.479  0.00  0.00    +0.000 C 
ENDBRANCH   1  25
TORSDOF 4
ENDMDL
MODEL 2
REMARK VINA RESULT:      -7.8      1.457      2.638
REMARK  Name = 
REMARK  6 active torsions:
REMARK  status: ('A' for Active; 'I' for Inactive)
REMARK    1  A    between atoms: C_1  and  C_2
REMARK    2  A    between atoms: C_2  and  C_3
REMARK    3  A    between atoms: C_2  and  C_4
REMARK    4  A    between atoms: C_6  and  C_7
REMARK    5  A    between atoms: C_12  and  C_13
REMARK    6  A    between atoms: C_20  and  C_21
REMARK                            x       y       z     vdW  Elec       q    Type
REMARK                         _______ _______ _______ _____ _____    ______ ____
ROOT
ATOM      1  C   UNL     1       4.165   4.611  18.008  0.00  0.00    +0.000 A 
ATOM      2  C   UNL     1       3.576   5.895  17.903  0.00  0.00    +0.000 A 
ATOM      3  C   UNL     1       2.548   6.332  18.748  0.00  0.00    +0.000 A 
ATOM      4  C   UNL     1       2.026   5.436  19.674  0.00  0.00    +0.000 A 
ATOM      5  C   UNL     1       2.523   4.135  19.748  0.00  0.00    +0.000 A 
ATOM      6  C   UNL     1       3.582   3.702  18.924  0.00  0.00    +0.000 A 
ENDROOT
BRANCH   3   7
ATOM      7  C   UNL     1       2.094   7.716  18.712  0.00  0.00    +0.000 A 
ATOM      8  C   UNL     1       2.251   8.524  17.595  0.00  0.00    +0.000 A 
ATOM      9  N   UNL     1       1.792   9.779  17.901  0.00  0.00    +0.000 N 
ATOM     10  C   UNL     1       1.362   9.807  19.195  0.00  0.00    +0.000 A 
ATOM     11  N   UNL     1       0.878  10.905  19.801  0.00  0.00    +0.000 NA
ATOM     12  C   UNL     1       0.526  10.683  21.094  0.00  0.00    +0.000 A 
ATOM     13  C   UNL     1       0.620   9.463  21.758  0.00  0.00    +0.000 A 
ATOM     14  C   UNL     1       1.117   8.356  21.072  0.00  0.00    +0.000 A 
ATOM     15  C   UNL     1       1.519   8.534  19.736  0.00  0.00    +0.000 A 
ATOM     16  H   UNL     1       1.793  10.583  17.290  0.00  0.00    +0.000 HD
BRANCH  12  17
ATOM     17  C   UNL     1       0.019  11.830  21.789  0.00  0.00    +0.000 C 
ATOM     18  N   UNL     1      -0.431  12.737  22.363  0.00  0.00    +0.000 NA
ENDBRANCH  12  17
ENDBRANCH   3   7
BRANCH   6  19
ATOM     19  C   UNL     1       4.058   2.293  19.128  0.00  0.00    +0.000 C 
ATOM     20  N   UNL     1       5.037   2.092  20.064  0.00  0.00    +0.000 N 
ATOM     21  O   UNL     1       3.626   1.336  18.503  0.00  0.00    +0.000 OA
ATOM     22  H   UNL     1       5.350   2.790  20.724  0.00  0.00    +0.000 HD
ATOM     23  H   UNL     1       5.357   1.140  20.201  0.00  0.00    +0.000 HD
ENDBRANCH   6  19
BRANCH   1  25
ATOM     24  C   UNL     1       5.275   4.992  15.769  0.00  0.00    +0.000 C 
ATOM     25  C   UNL     1       5.383   4.308  17.132  0.00  0.00    +0.000 C 
ATOM     26  C   UNL     1       6.735   4.676  17.780  0.00  0.00    +0.000 C 
ENDBRANCH   1  25
TORSDOF 4
ENDMDL
MODEL 3
REMARK VINA RESULT:      -7.8      1.202      2.573
REMARK  Name = 
REMARK  6 active torsions:
REMARK  status: ('A' for Active; 'I' for Inactive)
REMARK    1  A    between atoms: C_1  and  C_2
REMARK    2  A    between atoms: C_2  and  C_3
REMARK    3  A    between atoms: C_2  and  C_4
REMARK    4  A    between atoms: C_6  and  C_7
REMARK    5  A    between atoms: C_12  and  C_13
REMARK    6  A    between atoms: C_20  and  C_21
REMARK                            x       y       z     vdW  Elec       q    Type
REMARK                         _______ _______ _______ _____ _____    ______ ____
ROOT
ATOM      1  C   UNL     1       4.346   5.845  17.897  0.00  0.00    +0.000 A 
ATOM      2  C   UNL     1       3.565   7.026  17.917  0.00  0.00    +0.000 A 
ATOM      3  C   UNL     1       2.479   7.207  18.783  0.00  0.00    +0.000 A 
ATOM      4  C   UNL     1       2.100   6.147  19.599  0.00  0.00    +0.000 A 
ATOM      5  C   UNL     1       2.792   4.938  19.545  0.00  0.00    +0.000 A 
ATOM      6  C   UNL     1       3.908   4.764  18.701  0.00  0.00    +0.000 A 
ENDROOT
BRANCH   3   7
ATOM      7  C   UNL     1       1.815   8.501  18.884  0.00  0.00    +0.000 A 
ATOM      8  C   UNL     1       1.791   9.410  17.837  0.00  0.00    +0.000 A 
ATOM      9  N   UNL     1       1.160  10.548  18.267  0.00  0.00    +0.000 N 
ATOM     10  C   UNL     1       0.794  10.403  19.573  0.00  0.00    +0.000 A 
ATOM     11  N   UNL     1       0.178  11.360  20.290  0.00  0.00    +0.000 NA
ATOM     12  C   UNL     1      -0.072  10.982  21.570  0.00  0.00    +0.000 A 
ATOM     13  C   UNL     1       0.242   9.743  22.122  0.00  0.00    +0.000 A 
ATOM     14  C   UNL     1       0.869   8.786  21.324  0.00  0.00    +0.000 A 
ATOM     15  C   UNL     1       1.173   9.132  19.995  0.00  0.00    +0.000 A 
ATOM     16  H   UNL     1       1.006  11.388  17.728  0.00  0.00    +0.000 HD
BRANCH  12  17
ATOM     17  C   UNL     1      -0.714  11.974  22.381  0.00  0.00    +0.000 C 
ATOM     18  N   UNL     1      -1.239  12.749  23.073  0.00  0.00    +0.000 NA
ENDBRANCH  12  17
ENDBRANCH   3   7
BRANCH   6  19
ATOM     19  C   UNL     1       4.597   3.432  18.765  0.00  0.00    +0.000 C 
ATOM     20  N   UNL     1       4.379   2.563  17.730  0.00  0.00    +0.000 N 
ATOM     21  O   UNL     1       5.324   3.091  19.685  0.00  0.00    +0.000 OA
ATOM     22  H   UNL     1       3.916   2.807  16.865  0.00  0.00    +0.000 HD
ATOM     23  H   UNL     1       4.845   1.664  17.775  0.00  0.00    +0.000 HD
ENDBRANCH   6  19
BRANCH   1  25
ATOM     24  C   UNL     1       5.241   5.908  15.533  0.00  0.00    +0.000 C 
ATOM     25  C   UNL     1       5.599   5.828  17.018  0.00  0.00    +0.000 C 
ATOM     26  C   UNL     1       6.621   6.935  17.354  0.00  0.00    +0.000 C 
ENDBRANCH   1  25
TORSDOF 4
ENDMDL
MODEL 4
REMARK VINA RESULT:      -7.7      1.000      1.260
REMARK  Name = 
REMARK  6 active torsions:
REMARK  status: ('A' for Active; 'I' for Inactive)
REMARK    1  A    between atoms: C_1  and  C_2
REMARK    2  A    between atoms: C_2  and  C_3
REMARK    3  A    between atoms: C_2  and  C_4
REMARK    4  A    between atoms: C_6  and  C_7
REMARK    5  A    between atoms: C_12  and  C_13
REMARK    6  A    between atoms: C_20  and  C_21
REMARK                            x       y       z     vdW  Elec       q    Type
REMARK                         _______ _______ _______ _____ _____    ______ ____
ROOT
ATOM      1  C   UNL     1       2.287   4.731  19.669  0.00  0.00    +0.000 A 
ATOM      2  C   UNL     1       1.871   6.082  19.756  0.00  0.00    +0.000 A 
ATOM      3  C   UNL     1       2.404   7.096  18.950  0.00  0.00    +0.000 A 
ATOM      4  C   UNL     1       3.446   6.776  18.086  0.00  0.00    +0.000 A 
ATOM      5  C   UNL     1       3.940   5.473  18.036  0.00  0.00    +0.000 A 
ATOM      6  C   UNL     1       3.382   4.441  18.819  0.00  0.00    +0.000 A 
ENDROOT
BRANCH   3   7
ATOM      7  C   UNL     1       1.825   8.433  18.957  0.00  0.00    +0.000 A 
ATOM      8  C   UNL     1       1.896   9.282  17.863  0.00  0.00    +0.000 A 
ATOM      9  N   UNL     1       1.329  10.482  18.207  0.00  0.00    +0.000 N 
ATOM     10  C   UNL     1       0.913  10.435  19.506  0.00  0.00    +0.000 A 
ATOM     11  N   UNL     1       0.339  11.468  20.147  0.00  0.00    +0.000 NA
ATOM     12  C   UNL     1       0.023  11.179  21.436  0.00  0.00    +0.000 A 
ATOM     13  C   UNL     1       0.235   9.955  22.065  0.00  0.00    +0.000 A 
ATOM     14  C   UNL     1       0.822   8.917  21.343  0.00  0.00    +0.000 A 
ATOM     15  C   UNL     1       1.191   9.167  20.009  0.00  0.00    +0.000 A 
ATOM     16  H   UNL     1       1.250  11.298  17.619  0.00  0.00    +0.000 HD
BRANCH  12  17
ATOM     17  C   UNL     1      -0.577  12.256  22.168  0.00  0.00    +0.000 C 
ATOM     18  N   UNL     1      -1.031  13.126  22.794  0.00  0.00    +0.000 NA
ENDBRANCH  12  17
ENDBRANCH   3   7
BRANCH   6  19
ATOM     19  C   UNL     1       3.971   3.073  18.644  0.00  0.00    +0.000 C 
ATOM     20  N   UNL     1       5.070   2.761  19.397  0.00  0.00    +0.000 N 
ATOM     21  O   UNL     1       3.527   2.241  17.867  0.00  0.00    +0.000 OA
ATOM     22  H   UNL     1       5.417   3.323  20.163  0.00  0.00    +0.000 HD
ATOM     23  H   UNL     1       5.466   1.836  19.278  0.00  0.00    +0.000 HD
ENDBRANCH   6  19
BRANCH   1  25
ATOM     24  C   UNL     1       0.788   2.696  19.591  0.00  0.00    +0.000 C 
ATOM     25  C   UNL     1       1.521   3.691  20.491  0.00  0.00    +0.000 C 
ATOM     26  C   UNL     1       2.396   2.915  21.500  0.00  0.00    +0.000 C 
ENDBRANCH   1  25
TORSDOF 4
ENDMDL
MODEL 5
REMARK VINA RESULT:      -7.7      1.727      2.052
REMARK  Name = 
REMARK  6 active torsions:
REMARK  status: ('A' for Active; 'I' for Inactive)
REMARK    1  A    between atoms: C_1  and  C_2
REMARK    2  A    between atoms: C_2  and  C_3
REMARK    3  A    between atoms: C_2  and  C_4
REMARK    4  A    between atoms: C_6  and  C_7
REMARK    5  A    between atoms: C_12  and  C_13
REMARK    6  A    between atoms: C_20  and  C_21
REMARK                            x       y       z     vdW  Elec       q    Type
REMARK                         _______ _______ _______ _____ _____    ______ ____
ROOT
ATOM      1  C   UNL     1       2.581   3.667  19.831  0.00  0.00    +0.000 A 
ATOM      2  C   UNL     1       2.156   5.013  19.730  0.00  0.00    +0.000 A 
ATOM      3  C   UNL     1       2.979   6.038  19.248  0.00  0.00    +0.000 A 
ATOM      4  C   UNL     1       4.300   5.734  18.934  0.00  0.00    +0.000 A 
ATOM      5  C   UNL     1       4.779   4.435  19.103  0.00  0.00    +0.000 A 
ATOM      6  C   UNL     1       3.943   3.393  19.554  0.00  0.00    +0.000 A 
ENDROOT
BRANCH   3   7
ATOM      7  C   UNL     1       2.443   7.371  19.004  0.00  0.00    +0.000 A 
ATOM      8  C   UNL     1       2.643   8.048  17.809  0.00  0.00    +0.000 A 
ATOM      9  N   UNL     1       2.083   9.294  17.918  0.00  0.00    +0.000 N 
ATOM     10  C   UNL     1       1.543   9.445  19.162  0.00  0.00    +0.000 A 
ATOM     11  N   UNL     1       0.942  10.571  19.587  0.00  0.00    +0.000 NA
ATOM     12  C   UNL     1       0.497  10.481  20.866  0.00  0.00    +0.000 A 
ATOM     13  C   UNL     1       0.610   9.360  21.685  0.00  0.00    +0.000 A 
ATOM     14  C   UNL     1       1.232   8.218  21.183  0.00  0.00    +0.000 A 
ATOM     15  C   UNL     1       1.734   8.262  19.870  0.00  0.00    +0.000 A 
ATOM     16  H   UNL     1       2.084  10.016  17.213  0.00  0.00    +0.000 HD
BRANCH  12  17
ATOM     17  C   UNL     1      -0.138  11.663  21.371  0.00  0.00    +0.000 C 
ATOM     18  N   UNL     1      -0.632  12.617  21.821  0.00  0.00    +0.000 NA
ENDBRANCH  12  17
ENDBRANCH   3   7
BRANCH   6  19
ATOM     19  C   UNL     1       4.563   2.030  19.652  0.00  0.00    +0.000 C 
ATOM     20  N   UNL     1       4.283   1.140  18.651  0.00  0.00    +0.000 N 
ATOM     21  O   UNL     1       5.288   1.682  20.572  0.00  0.00    +0.000 OA
ATOM     22  H   UNL     1       3.818   1.380  17.785  0.00  0.00    +0.000 HD
ATOM     23  H   UNL     1       4.702   0.220  18.718  0.00  0.00    +0.000 HD
ENDBRANCH   6  19
BRANCH   1  25
ATOM     24  C   UNL     1       1.135   2.753  21.693  0.00  0.00    +0.000 C 
ATOM     25  C   UNL     1       1.542   2.614  20.226  0.00  0.00    +0.000 C 
ATOM     26  C   UNL     1       0.275   2.617  19.344  0.00  0.00    +0.000 C 
ENDBRANCH   1  25
TORSDOF 4
ENDMDL
MODEL 6
REMARK VINA RESULT:      -7.4      0.891      2.392
REMARK  Name = 
REMARK  6 active torsions:
REMARK  status: ('A' for Active; 'I' for Inactive)
REMARK    1  A    between atoms: C_1  and  C_2
REMARK    2  A    between atoms: C_2  and  C_3
REMARK    3  A    between atoms: C_2  and  C_4
REMARK    4  A    between atoms: C_6  and  C_7
REMARK    5  A    between atoms: C_12  and  C_13
REMARK    6  A    between atoms: C_20  and  C_21
REMARK                            x       y       z     vdW  Elec       q    Type
REMARK                         _______ _______ _______ _____ _____    ______ ____
ROOT
ATOM      1  C   UNL     1       4.347   6.366  17.380  0.00  0.00    +0.000 A 
ATOM      2  C   UNL     1       3.500   7.487  17.557  0.00  0.00    +0.000 A 
ATOM      3  C   UNL     1       2.474   7.524  18.510  0.00  0.00    +0.000 A 
ATOM      4  C   UNL     1       2.223   6.378  19.257  0.00  0.00    +0.000 A 
ATOM      5  C   UNL     1       2.981   5.226  19.049  0.00  0.00    +0.000 A 
ATOM      6  C   UNL     1       4.038   5.196  18.116  0.00  0.00    +0.000 A 
ENDROOT
BRANCH   3   7
ATOM      7  C   UNL     1       1.744   8.758  18.770  0.00  0.00    +0.000 A 
ATOM      8  C   UNL     1       1.648   9.778  17.835  0.00  0.00    +0.000 A 
ATOM      9  N   UNL     1       0.965  10.823  18.403  0.00  0.00    +0.000 N 
ATOM     10  C   UNL     1       0.635  10.509  19.689  0.00  0.00    +0.000 A 
ATOM     11  N   UNL     1      -0.017  11.340  20.520  0.00  0.00    +0.000 NA
ATOM     12  C   UNL     1      -0.219  10.804  21.751  0.00  0.00    +0.000 A 
ATOM     13  C   UNL     1       0.172   9.530  22.152  0.00  0.00    +0.000 A 
ATOM     14  C   UNL     1       0.834   8.708  21.240  0.00  0.00    +0.000 A 
ATOM     15  C   UNL     1       1.091   9.221  19.956  0.00  0.00    +0.000 A 
ATOM     16  H   UNL     1       0.756  11.709  17.967  0.00  0.00    +0.000 HD
BRANCH  12  17
ATOM     17  C   UNL     1      -0.898  11.660  22.680  0.00  0.00    +0.000 C 
ATOM     18  N   UNL     1      -1.418  12.344  23.466  0.00  0.00    +0.000 NA
ENDBRANCH  12  17
ENDBRANCH   3   7
BRANCH   6  19
ATOM     19  C   UNL     1       4.808   3.912  18.016  0.00  0.00    +0.000 C 
ATOM     20  N   UNL     1       5.789   3.695  18.945  0.00  0.00    +0.000 N 
ATOM     21  O   UNL     1       4.608   3.069  17.154  0.00  0.00    +0.000 OA
ATOM     22  H   UNL     1       5.929   4.259  19.773  0.00  0.00    +0.000 HD
ATOM     23  H   UNL     1       6.309   2.828  18.877  0.00  0.00    +0.000 HD
ENDBRANCH   6  19
BRANCH   1  25
ATOM     24  C   UNL     1       6.864   6.415  17.153  0.00  0.00    +0.000 C 
ATOM     25  C   UNL     1       5.527   6.504  16.416  0.00  0.00    +0.000 C 
ATOM     26  C   UNL     1       5.518   5.485  15.256  0.00  0.00    +0.000 C 
ENDBRANCH   1  25
TORSDOF 4
ENDMDL
MODEL 7
REMARK VINA RESULT:      -7.4      1.205      2.512
REMARK  Name = 
REMARK  6 active torsions:
REMARK  status: ('A' for Active; 'I' for Inactive)
REMARK    1  A    between atoms: C_1  and  C_2
REMARK    2  A    between atoms: C_2  and  C_3
REMARK    3  A    between atoms: C_2  and  C_4
REMARK    4  A    between atoms: C_6  and  C_7
REMARK    5  A    between atoms: C_12  and  C_13
REMARK    6  A    between atoms: C_20  and  C_21
REMARK                            x       y       z     vdW  Elec       q    Type
REMARK                         _______ _______ _______ _____ _____    ______ ____
ROOT
ATOM      1  C   UNL     1       4.793   5.990  17.767  0.00  0.00    +0.000 A 
ATOM      2  C   UNL     1       4.068   7.193  17.953  0.00  0.00    +0.000 A 
ATOM      3  C   UNL     1       2.680   7.225  18.137  0.00  0.00    +0.000 A 
ATOM      4  C   UNL     1       1.973   6.030  18.050  0.00  0.00    +0.000 A 
ATOM      5  C   UNL     1       2.643   4.837  17.781  0.00  0.00    +0.000 A 
ATOM      6  C   UNL     1       4.045   4.795  17.631  0.00  0.00    +0.000 A 
ENDROOT
BRANCH   3   7
ATOM      7  C   UNL     1       2.005   8.466  18.493  0.00  0.00    +0.000 A 
ATOM      8  C   UNL     1       1.998   9.576  17.662  0.00  0.00    +0.000 A 
ATOM      9  N   UNL     1       1.349  10.597  18.307  0.00  0.00    +0.000 N 
ATOM     10  C   UNL     1       0.954  10.178  19.544  0.00  0.00    +0.000 A 
ATOM     11  N   UNL     1       0.314  10.959  20.431  0.00  0.00    +0.000 NA
ATOM     12  C   UNL     1       0.037  10.319  21.596  0.00  0.00    +0.000 A 
ATOM     13  C   UNL     1       0.347   8.991  21.881  0.00  0.00    +0.000 A 
ATOM     14  C   UNL     1       1.000   8.227  20.915  0.00  0.00    +0.000 A 
ATOM     15  C   UNL     1       1.332   8.846  19.697  0.00  0.00    +0.000 A 
ATOM     16  H   UNL     1       1.203  11.531  17.955  0.00  0.00    +0.000 HD
BRANCH  12  17
ATOM     17  C   UNL     1      -0.632  11.116  22.582  0.00  0.00    +0.000 C 
ATOM     18  N   UNL     1      -1.208  11.771  23.352  0.00  0.00    +0.000 NA
ENDBRANCH  12  17
ENDBRANCH   3   7
BRANCH   6  19
ATOM     19  C   UNL     1       4.654   3.445  17.390  0.00  0.00    +0.000 C 
ATOM     20  N   UNL     1       4.520   2.511  18.381  0.00  0.00    +0.000 N 
ATOM     21  O   UNL     1       5.261   3.150  16.371  0.00  0.00    +0.000 OA
ATOM     22  H   UNL     1       3.918   2.614  19.187  0.00  0.00    +0.000 HD
ATOM     23  H   UNL     1       4.931   1.599  18.217  0.00  0.00    +0.000 HD
ENDBRANCH   6  19
BRANCH   1  25
ATOM     24  C   UNL     1       6.797   7.470  17.335  0.00  0.00    +0.000 C 
ATOM     25  C   UNL     1       6.321   6.072  17.732  0.00  0.00    +0.000 C 
ATOM     26  C   UNL     1       7.006   5.658  19.052  0.00  0.00    +0.000 C 
ENDBRANCH   1  25
TORSDOF 4
ENDMDL
MODEL 8
REMARK VINA RESULT:      -7.4      0.933      1.200
REMARK  Name = 
REMARK  6 active torsions:
REMARK  status: ('A' for Active; 'I' for Inactive)
REMARK    1  A    between atoms: C_1  and  C_2
REMARK    2  A    between atoms: C_2  and  C_3
REMARK    3  A    between atoms: C_2  and  C_4
REMARK    4  A    between atoms: C_6  and  C_7
REMARK    5  A    between atoms: C_12  and  C_13
REMARK    6  A    between atoms: C_20  and  C_21
REMARK                            x       y       z     vdW  Elec       q    Type
REMARK                         _______ _______ _______ _____ _____    ______ ____
ROOT
ATOM      1  C   UNL     1       3.485   4.928  18.325  0.00  0.00    +0.000 A 
ATOM      2  C   UNL     1       2.658   6.011  18.711  0.00  0.00    +0.000 A 
ATOM      3  C   UNL     1       2.858   7.321  18.257  0.00  0.00    +0.000 A 
ATOM      4  C   UNL     1       3.966   7.583  17.458  0.00  0.00    +0.000 A 
ATOM      5  C   UNL     1       4.851   6.557  17.129  0.00  0.00    +0.000 A 
ATOM      6  C   UNL     1       4.634   5.230  17.554  0.00  0.00    +0.000 A 
ENDROOT
BRANCH   3   7
ATOM      7  C   UNL     1       1.883   8.366  18.545  0.00  0.00    +0.000 A 
ATOM      8  C   UNL     1       1.413   9.235  17.572  0.00  0.00    +0.000 A 
ATOM      9  N   UNL     1       0.572  10.139  18.169  0.00  0.00    +0.000 N 
ATOM     10  C   UNL     1       0.505   9.886  19.508  0.00  0.00    +0.000 A 
ATOM     11  N   UNL     1      -0.218  10.617  20.374  0.00  0.00    +0.000 NA
ATOM     12  C   UNL     1      -0.115  10.175  21.654  0.00  0.00    +0.000 A 
ATOM     13  C   UNL     1       0.633   9.077  22.071  0.00  0.00    +0.000 A 
ATOM     14  C   UNL     1       1.351   8.349  21.123  0.00  0.00    +0.000 A 
ATOM     15  C   UNL     1       1.299   8.776  19.785  0.00  0.00    +0.000 A 
ATOM     16  H   UNL     1       0.092  10.902  17.715  0.00  0.00    +0.000 HD
BRANCH  12  17
ATOM     17  C   UNL     1      -0.856  10.933  22.619  0.00  0.00    +0.000 C 
ATOM     18  N   UNL     1      -1.451  11.515  23.433  0.00  0.00    +0.000 NA
ENDBRANCH  12  17
ENDBRANCH   3   7
BRANCH   6  19
ATOM     19  C   UNL     1       5.632   4.207  17.097  0.00  0.00    +0.000 C 
ATOM     20  N   UNL     1       6.754   4.039  17.864  0.00  0.00    +0.000 N 
ATOM     21  O   UNL     1       5.496   3.535  16.086  0.00  0.00    +0.000 OA
ATOM     22  H   UNL     1       6.884   4.440  18.783  0.00  0.00    +0.000 HD
ATOM     23  H   UNL     1       7.427   3.348  17.554  0.00  0.00    +0.000 HD
ENDBRANCH   6  19
BRANCH   1  25
ATOM     24  C   UNL     1       2.626   2.673  17.572  0.00  0.00    +0.000 C 
ATOM     25  C   UNL     1       3.073   3.521  18.764  0.00  0.00    +0.000 C 
ATOM     26  C   UNL     1       4.163   2.760  19.549  0.00  0.00    +0.000 C 
ENDBRANCH   1  25
TORSDOF 4
ENDMDL
MODEL 9
REMARK VINA RESULT:      -7.3      1.755      3.371
REMARK  Name = 
REMARK  6 active torsions:
REMARK  status: ('A' for Active; 'I' for Inactive)
REMARK    1  A    between atoms: C_1  and  C_2
REMARK    2  A    between atoms: C_2  and  C_3
REMARK    3  A    between atoms: C_2  and  C_4
REMARK    4  A    between atoms: C_6  and  C_7
REMARK    5  A    between atoms: C_12  and  C_13
REMARK    6  A    between atoms: C_20  and  C_21
REMARK                            x       y       z     vdW  Elec       q    Type
REMARK                         _______ _______ _______ _____ _____    ______ ____
ROOT
ATOM      1  C   UNL     1       3.789   5.063  18.673  0.00  0.00    +0.000 A 
ATOM      2  C   UNL     1       3.134   6.274  19.003  0.00  0.00    +0.000 A 
ATOM      3  C   UNL     1       2.149   6.362  19.995  0.00  0.00    +0.000 A 
ATOM      4  C   UNL     1       1.737   5.192  20.624  0.00  0.00    +0.000 A 
ATOM      5  C   UNL     1       2.298   3.967  20.264  0.00  0.00    +0.000 A 
ATOM      6  C   UNL     1       3.316   3.880  19.291  0.00  0.00    +0.000 A 
ENDROOT
BRANCH   3   7
ATOM      7  C   UNL     1       1.628   7.657  20.414  0.00  0.00    +0.000 A 
ATOM      8  C   UNL     1       1.161   7.892  21.699  0.00  0.00    +0.000 A 
ATOM      9  N   UNL     1       0.675   9.173  21.755  0.00  0.00    +0.000 N 
ATOM     10  C   UNL     1       0.798   9.763  20.531  0.00  0.00    +0.000 A 
ATOM     11  N   UNL     1       0.386  11.013  20.258  0.00  0.00    +0.000 NA
ATOM     12  C   UNL     1       0.607  11.371  18.966  0.00  0.00    +0.000 A 
ATOM     13  C   UNL     1       1.207  10.571  17.998  0.00  0.00    +0.000 A 
ATOM     14  C   UNL     1       1.626   9.287  18.346  0.00  0.00    +0.000 A 
ATOM     15  C   UNL     1       1.402   8.856  19.666  0.00  0.00    +0.000 A 
ATOM     16  H   UNL     1       0.257   9.620  22.558  0.00  0.00    +0.000 HD
BRANCH  12  17
ATOM     17  C   UNL     1       0.169  12.692  18.620  0.00  0.00    +0.000 C 
ATOM     18  N   UNL     1      -0.143  13.779  18.345  0.00  0.00    +0.000 NA
ENDBRANCH  12  17
ENDBRANCH   3   7
BRANCH   6  19
ATOM     19  C   UNL     1       3.872   2.512  19.023  0.00  0.00    +0.000 C 
ATOM     20  N   UNL     1       4.901   2.086  19.819  0.00  0.00    +0.000 N 
ATOM     21  O   UNL     1       3.460   1.777  18.138  0.00  0.00    +0.000 OA
ATOM     22  H   UNL     1       5.208   2.558  20.659  0.00  0.00    +0.000 HD
ATOM     23  H   UNL     1       5.275   1.162  19.637  0.00  0.00    +0.000 HD
ENDBRANCH   6  19
BRANCH   1  25
ATOM     24  C   UNL     1       4.793   6.286  16.701  0.00  0.00    +0.000 C 
ATOM     25  C   UNL     1       4.954   5.125  17.683  0.00  0.00    +0.000 C 
ATOM     26  C   UNL     1       6.345   5.212  18.349  0.00  0.00    +0.000 C 
ENDBRANCH   1  25
TORSDOF 4
ENDMDL
