MODEL 1
REMARK VINA RESULT:      -9.0      0.000      0.000
REMARK  Name = 
REMARK  2 active torsions:
REMARK  status: ('A' for Active; 'I' for Inactive)
REMARK    1  A    between atoms: C_1  and  C_2
REMARK    2  A    between atoms: C_7  and  C_8
REMARK                            x       y       z     vdW  Elec       q    Type
REMARK                         _______ _______ _______ _____ _____    ______ ____
ROOT
ATOM      1  C   UNL     1       5.074   4.843  16.068  0.00  0.00    +0.000 C 
ATOM      2  C   UNL     1       3.977   5.226  17.058  0.00  0.00    +0.000 C 
ATOM      3  O   UNL     1       4.043   6.655  17.168  0.00  0.00    +0.000 OA
ATOM      4  C   UNL     1       3.151   7.202  18.047  0.00  0.00    +0.000 A 
ATOM      5  C   UNL     1       2.893   8.560  17.868  0.00  0.00    +0.000 A 
ATOM      6  C   UNL     1       2.027   9.234  18.732  0.00  0.00    +0.000 A 
ATOM      7  C   UNL     1       1.404   8.569  19.799  0.00  0.00    +0.000 A 
ATOM      8  C   UNL     1       1.662   7.189  19.932  0.00  0.00    +0.000 A 
ATOM      9  C   UNL     1       2.558   6.490  19.093  0.00  0.00    +0.000 A 
ATOM     10  C   UNL     1       2.870   5.014  19.307  0.00  0.00    +0.000 C 
ATOM     11  C   UNL     1       2.987   4.616  20.810  0.00  0.00    +0.000 C 
ATOM     12  O   UNL     1       1.850   3.774  21.106  0.00  0.00    +0.000 OA
ATOM     13  C   UNL     1       1.151   3.587  19.967  0.00  0.00    +0.000 C 
ATOM     14  N   UNL     1       0.089   2.883  19.975  0.00  0.00    +0.000 NA
ATOM     15  N   UNL     1       1.712   4.231  18.929  0.00  0.00    +0.000 N 
ATOM     16  C   UNL     1       4.096   4.604  18.453  0.00  0.00    +0.000 C 
ATOM     17  C   UNL     1       4.433   3.092  18.522  0.00  0.00    +0.000 C 
ATOM     18  O   UNL     1       5.503   3.349  19.469  0.00  0.00    +0.000 OA
ATOM     19  C   UNL     1       5.475   4.763  19.144  0.00  0.00    +0.000 C 
ATOM     20  H   UNL     1      -0.019   2.532  20.934  0.00  0.00    +0.000 HD
ATOM     21  H   UNL     1       1.132   4.453  18.131  0.00  0.00    +0.000 HD
ENDROOT
BRANCH   7  22
ATOM     22  C   UNL     1       0.549   9.284  20.779  0.00  0.00    +0.000 A 
ATOM     23  C   UNL     1       0.608   9.006  22.156  0.00  0.00    +0.000 A 
ATOM     24  C   UNL     1      -0.146   9.745  23.069  0.00  0.00    +0.000 A 
ATOM     25  C   UNL     1      -0.969  10.744  22.584  0.00  0.00    +0.000 A 
ATOM     26  N   UNL     1      -1.083  11.043  21.278  0.00  0.00    +0.000 NA
ATOM     27  C   UNL     1      -0.326  10.318  20.417  0.00  0.00    +0.000 A 
ATOM     28  F   UNL     1      -0.431  10.674  19.126  0.00  0.00    +0.000 F 
ENDBRANCH   7  22
TORSDOF 1
ENDMDL
MODEL 2
REMARK VINA RESULT:      -8.8      1.068      1.329
REMARK  Name = 
REMARK  2 active torsions:
REMARK  status: ('A' for Active; 'I' for Inactive)
REMARK    1  A    between atoms: C_1  and  C_2
REMARK    2  A    between atoms: C_7  and  C_8
REMARK                            x       y       z     vdW  Elec       q    Type
REMARK                         _______ _______ _______ _____ _____    ______ ____
ROOT
ATOM      1  C   UNL     1       5.180   4.406  16.069  0.00  0.00    +0.000 C 
ATOM      2  C   UNL     1       4.081   4.941  16.983  0.00  0.00    +0.000 C 
ATOM      3  O   UNL     1       4.239   6.367  16.978  0.00  0.00    +0.000 OA
ATOM      4  C   UNL     1       3.359   7.042  17.776  0.00  0.00    +0.000 A 
ATOM      5  C   UNL     1       3.198   8.393  17.478  0.00  0.00    +0.000 A 
ATOM      6  C   UNL     1       2.353   9.192  18.252  0.00  0.00    +0.000 A 
ATOM      7  C   UNL     1       1.652   8.660  19.344  0.00  0.00    +0.000 A 
ATOM      8  C   UNL     1       1.812   7.282  19.598  0.00  0.00    +0.000 A 
ATOM      9  C   UNL     1       2.685   6.459  18.853  0.00  0.00    +0.000 A 
ATOM     10  C   UNL     1       2.889   4.988  19.198  0.00  0.00    +0.000 C 
ATOM     11  C   UNL     1       2.930   4.711  20.731  0.00  0.00    +0.000 C 
ATOM     12  O   UNL     1       1.730   3.972  21.051  0.00  0.00    +0.000 OA
ATOM     13  C   UNL     1       1.057   3.736  19.905  0.00  0.00    +0.000 C 
ATOM     14  N   UNL     1      -0.050   3.106  19.930  0.00  0.00    +0.000 NA
ATOM     15  N   UNL     1       1.694   4.253  18.840  0.00  0.00    +0.000 N 
ATOM     16  C   UNL     1       4.112   4.430  18.426  0.00  0.00    +0.000 C 
ATOM     17  C   UNL     1       4.344   2.911  18.631  0.00  0.00    +0.000 C 
ATOM     18  O   UNL     1       5.397   3.176  19.593  0.00  0.00    +0.000 OA
ATOM     19  C   UNL     1       5.476   4.557  19.154  0.00  0.00    +0.000 C 
ATOM     20  H   UNL     1      -0.212   2.844  20.909  0.00  0.00    +0.000 HD
ATOM     21  H   UNL     1       1.157   4.445  18.006  0.00  0.00    +0.000 HD
ENDROOT
BRANCH   7  22
ATOM     22  C   UNL     1       0.816   9.508  20.230  0.00  0.00    +0.000 A 
ATOM     23  C   UNL     1      -0.232  10.298  19.727  0.00  0.00    +0.000 A 
ATOM     24  C   UNL     1      -1.057  11.026  20.586  0.00  0.00    +0.000 A 
ATOM     25  C   UNL     1      -0.806  10.967  21.943  0.00  0.00    +0.000 A 
ATOM     26  N   UNL     1       0.193  10.246  22.482  0.00  0.00    +0.000 NA
ATOM     27  C   UNL     1       0.968   9.538  21.624  0.00  0.00    +0.000 A 
ATOM     28  F   UNL     1       1.927   8.794  22.200  0.00  0.00    +0.000 F 
ENDBRANCH   7  22
TORSDOF 1
ENDMDL
MODEL 3
REMARK VINA RESULT:      -8.7      3.742      7.077
REMARK  Name = 
REMARK  2 active torsions:
REMARK  status: ('A' for Active; 'I' for Inactive)
REMARK    1  A    between atoms: C_1  and  C_2
REMARK    2  A    between atoms: C_7  and  C_8
REMARK                            x       y       z     vdW  Elec       q    Type
REMARK                         _______ _______ _______ _____ _____    ______ ____
ROOT
ATOM      1  C   UNL     1       1.389   6.217  21.229  0.00  0.00    +0.000 C 
ATOM      2  C   UNL     1       2.393   5.532  20.306  0.00  0.00    +0.000 C 
ATOM      3  O   UNL     1       2.547   6.416  19.186  0.00  0.00    +0.000 OA
ATOM      4  C   UNL     1       3.393   5.962  18.213  0.00  0.00    +0.000 A 
ATOM      5  C   UNL     1       3.890   6.938  17.352  0.00  0.00    +0.000 A 
ATOM      6  C   UNL     1       4.733   6.585  16.296  0.00  0.00    +0.000 A 
ATOM      7  C   UNL     1       5.094   5.249  16.071  0.00  0.00    +0.000 A 
ATOM      8  C   UNL     1       4.599   4.290  16.980  0.00  0.00    +0.000 A 
ATOM      9  C   UNL     1       3.719   4.615  18.037  0.00  0.00    +0.000 A 
ATOM     10  C   UNL     1       3.146   3.545  18.959  0.00  0.00    +0.000 C 
ATOM     11  C   UNL     1       2.769   2.226  18.219  0.00  0.00    +0.000 C 
ATOM     12  O   UNL     1       3.705   1.219  18.666  0.00  0.00    +0.000 OA
ATOM     13  C   UNL     1       4.508   1.768  19.601  0.00  0.00    +0.000 C 
ATOM     14  N   UNL     1       5.431   1.076  20.141  0.00  0.00    +0.000 NA
ATOM     15  N   UNL     1       4.200   3.058  19.823  0.00  0.00    +0.000 N 
ATOM     16  C   UNL     1       1.992   4.141  19.805  0.00  0.00    +0.000 C 
ATOM     17  C   UNL     1       1.407   3.157  20.851  0.00  0.00    +0.000 C 
ATOM     18  O   UNL     1       0.279   2.870  19.985  0.00  0.00    +0.000 OA
ATOM     19  C   UNL     1       0.579   4.036  19.175  0.00  0.00    +0.000 C 
ATOM     20  H   UNL     1       5.353   0.131  19.745  0.00  0.00    +0.000 HD
ATOM     21  H   UNL     1       4.908   3.659  20.223  0.00  0.00    +0.000 HD
ENDROOT
BRANCH   7  22
ATOM     22  C   UNL     1       5.918   4.842  14.906  0.00  0.00    +0.000 A 
ATOM     23  C   UNL     1       5.425   3.971  13.918  0.00  0.00    +0.000 A 
ATOM     24  C   UNL     1       6.187   3.664  12.789  0.00  0.00    +0.000 A 
ATOM     25  C   UNL     1       7.446   4.222  12.675  0.00  0.00    +0.000 A 
ATOM     26  N   UNL     1       7.979   5.044  13.596  0.00  0.00    +0.000 NA
ATOM     27  C   UNL     1       7.209   5.336  14.674  0.00  0.00    +0.000 A 
ATOM     28  F   UNL     1       7.755   6.196  15.550  0.00  0.00    +0.000 F 
ENDBRANCH   7  22
TORSDOF 1
ENDMDL
MODEL 4
REMARK VINA RESULT:      -8.4      2.967      6.621
REMARK  Name = 
REMARK  2 active torsions:
REMARK  status: ('A' for Active; 'I' for Inactive)
REMARK    1  A    between atoms: C_1  and  C_2
REMARK    2  A    between atoms: C_7  and  C_8
REMARK                            x       y       z     vdW  Elec       q    Type
REMARK                         _______ _______ _______ _____ _____    ______ ____
ROOT
ATOM      1  C   UNL     1       1.893  12.758  18.178  0.00  0.00    +0.000 C 
ATOM      2  C   UNL     1       1.819  11.437  18.939  0.00  0.00    +0.000 C 
ATOM      3  O   UNL     1       2.192  10.428  17.990  0.00  0.00    +0.000 OA
ATOM      4  C   UNL     1       2.155   9.149  18.472  0.00  0.00    +0.000 A 
ATOM      5  C   UNL     1       2.896   8.217  17.749  0.00  0.00    +0.000 A 
ATOM      6  C   UNL     1       2.901   6.872  18.127  0.00  0.00    +0.000 A 
ATOM      7  C   UNL     1       2.161   6.426  19.232  0.00  0.00    +0.000 A 
ATOM      8  C   UNL     1       1.448   7.401  19.960  0.00  0.00    +0.000 A 
ATOM      9  C   UNL     1       1.399   8.761  19.581  0.00  0.00    +0.000 A 
ATOM     10  C   UNL     1       0.561   9.777  20.349  0.00  0.00    +0.000 C 
ATOM     11  C   UNL     1      -0.813   9.214  20.826  0.00  0.00    +0.000 C 
ATOM     12  O   UNL     1      -0.745   9.118  22.266  0.00  0.00    +0.000 OA
ATOM     13  C   UNL     1       0.445   9.612  22.670  0.00  0.00    +0.000 C 
ATOM     14  N   UNL     1       0.748   9.624  23.907  0.00  0.00    +0.000 NA
ATOM     15  N   UNL     1       1.188  10.029  21.629  0.00  0.00    +0.000 N 
ATOM     16  C   UNL     1       0.452  11.092  19.538  0.00  0.00    +0.000 C 
ATOM     17  C   UNL     1      -0.298  12.228  20.280  0.00  0.00    +0.000 C 
ATOM     18  O   UNL     1      -1.505  11.961  19.520  0.00  0.00    +0.000 OA
ATOM     19  C   UNL     1      -0.749  11.177  18.561  0.00  0.00    +0.000 C 
ATOM     20  H   UNL     1      -0.068   9.253  24.408  0.00  0.00    +0.000 HD
ATOM     21  H   UNL     1       2.189  10.095  21.750  0.00  0.00    +0.000 HD
ENDROOT
BRANCH   7  22
ATOM     22  C   UNL     1       2.084   4.990  19.599  0.00  0.00    +0.000 A 
ATOM     23  C   UNL     1       2.450   4.531  20.876  0.00  0.00    +0.000 A 
ATOM     24  C   UNL     1       2.294   3.189  21.226  0.00  0.00    +0.000 A 
ATOM     25  C   UNL     1       1.790   2.318  20.279  0.00  0.00    +0.000 A 
ATOM     26  N   UNL     1       1.442   2.693  19.036  0.00  0.00    +0.000 NA
ATOM     27  C   UNL     1       1.590   4.006  18.730  0.00  0.00    +0.000 A 
ATOM     28  F   UNL     1       1.190   4.354  17.496  0.00  0.00    +0.000 F 
ENDBRANCH   7  22
TORSDOF 1
ENDMDL
MODEL 5
REMARK VINA RESULT:      -8.3      3.058      6.745
REMARK  Name = 
REMARK  2 active torsions:
REMARK  status: ('A' for Active; 'I' for Inactive)
REMARK    1  A    between atoms: C_1  and  C_2
REMARK    2  A    between atoms: C_7  and  C_8
REMARK                            x       y       z     vdW  Elec       q    Type
REMARK                         _______ _______ _______ _____ _____    ______ ____
ROOT
ATOM      1  C   UNL     1       1.369  12.731  18.288  0.00  0.00    +0.000 C 
ATOM      2  C   UNL     1       1.470  11.412  19.050  0.00  0.00    +0.000 C 
ATOM      3  O   UNL     1       1.901  10.444  18.083  0.00  0.00    +0.000 OA
ATOM      4  C   UNL     1       2.021   9.171  18.565  0.00  0.00    +0.000 A 
ATOM      5  C   UNL     1       2.822   8.319  17.807  0.00  0.00    +0.000 A 
ATOM      6  C   UNL     1       2.986   6.984  18.182  0.00  0.00    +0.000 A 
ATOM      7  C   UNL     1       2.350   6.466  19.319  0.00  0.00    +0.000 A 
ATOM      8  C   UNL     1       1.573   7.363  20.082  0.00  0.00    +0.000 A 
ATOM      9  C   UNL     1       1.363   8.709  19.707  0.00  0.00    +0.000 A 
ATOM     10  C   UNL     1       0.460   9.634  20.515  0.00  0.00    +0.000 C 
ATOM     11  C   UNL     1      -0.823   8.932  21.055  0.00  0.00    +0.000 C 
ATOM     12  O   UNL     1      -0.677   8.850  22.491  0.00  0.00    +0.000 OA
ATOM     13  C   UNL     1       0.471   9.467  22.839  0.00  0.00    +0.000 C 
ATOM     14  N   UNL     1       0.829   9.516  24.061  0.00  0.00    +0.000 NA
ATOM     15  N   UNL     1       1.116   9.956  21.765  0.00  0.00    +0.000 N 
ATOM     16  C   UNL     1       0.176  10.928  19.712  0.00  0.00    +0.000 C 
ATOM     17  C   UNL     1      -0.654  11.982  20.490  0.00  0.00    +0.000 C 
ATOM     18  O   UNL     1      -1.860  11.587  19.787  0.00  0.00    +0.000 OA
ATOM     19  C   UNL     1      -1.073  10.883  18.792  0.00  0.00    +0.000 C 
ATOM     20  H   UNL     1       0.081   9.062  24.599  0.00  0.00    +0.000 HD
ATOM     21  H   UNL     1       2.110  10.127  21.839  0.00  0.00    +0.000 HD
ENDROOT
BRANCH   7  22
ATOM     22  C   UNL     1       2.441   5.032  19.688  0.00  0.00    +0.000 A 
ATOM     23  C   UNL     1       1.298   4.268  19.984  0.00  0.00    +0.000 A 
ATOM     24  C   UNL     1       1.399   2.902  20.249  0.00  0.00    +0.000 A 
ATOM     25  C   UNL     1       2.653   2.320  20.234  0.00  0.00    +0.000 A 
ATOM     26  N   UNL     1       3.783   3.002  19.979  0.00  0.00    +0.000 NA
ATOM     27  C   UNL     1       3.652   4.325  19.709  0.00  0.00    +0.000 A 
ATOM     28  F   UNL     1       4.796   4.964  19.413  0.00  0.00    +0.000 F 
ENDBRANCH   7  22
TORSDOF 1
ENDMDL
MODEL 6
REMARK VINA RESULT:      -8.0      3.771      8.315
REMARK  Name = 
REMARK  2 active torsions:
REMARK  status: ('A' for Active; 'I' for Inactive)
REMARK    1  A    between atoms: C_1  and  C_2
REMARK    2  A    between atoms: C_7  and  C_8
REMARK                            x       y       z     vdW  Elec       q    Type
REMARK                         _______ _______ _______ _____ _____    ______ ____
ROOT
ATOM      1  C   UNL     1      -2.557  12.904  23.638  0.00  0.00    +0.000 C 
ATOM      2  C   UNL     1      -1.998  12.122  22.452  0.00  0.00    +0.000 C 
ATOM      3  O   UNL     1      -1.027  11.225  23.010  0.00  0.00    +0.000 OA
ATOM      4  C   UNL     1      -0.377  10.447  22.094  0.00  0.00    +0.000 A 
ATOM      5  C   UNL     1       0.233   9.304  22.606  0.00  0.00    +0.000 A 
ATOM      6  C   UNL     1       0.959   8.454  21.769  0.00  0.00    +0.000 A 
ATOM      7  C   UNL     1       1.098   8.729  20.401  0.00  0.00    +0.000 A 
ATOM      8  C   UNL     1       0.442   9.876  19.908  0.00  0.00    +0.000 A 
ATOM      9  C   UNL     1      -0.271  10.770  20.738  0.00  0.00    +0.000 A 
ATOM     10  C   UNL     1      -0.909  12.039  20.186  0.00  0.00    +0.000 C 
ATOM     11  C   UNL     1      -0.039  12.752  19.107  0.00  0.00    +0.000 C 
ATOM     12  O   UNL     1      -0.736  12.605  17.849  0.00  0.00    +0.000 OA
ATOM     13  C   UNL     1      -1.905  11.972  18.082  0.00  0.00    +0.000 C 
ATOM     14  N   UNL     1      -2.697  11.713  17.118  0.00  0.00    +0.000 NA
ATOM     15  N   UNL     1      -2.058  11.675  19.384  0.00  0.00    +0.000 N 
ATOM     16  C   UNL     1      -1.342  12.963  21.353  0.00  0.00    +0.000 C 
ATOM     17  C   UNL     1      -2.096  14.239  20.898  0.00  0.00    +0.000 C 
ATOM     18  O   UNL     1      -0.893  15.035  21.055  0.00  0.00    +0.000 OA
ATOM     19  C   UNL     1      -0.273  13.979  21.833  0.00  0.00    +0.000 C 
ATOM     20  H   UNL     1      -2.265  12.108  16.274  0.00  0.00    +0.000 HD
ATOM     21  H   UNL     1      -2.693  10.929  19.635  0.00  0.00    +0.000 HD
ENDROOT
BRANCH   7  22
ATOM     22  C   UNL     1       1.935   7.887  19.510  0.00  0.00    +0.000 A 
ATOM     23  C   UNL     1       2.494   8.391  18.323  0.00  0.00    +0.000 A 
ATOM     24  C   UNL     1       3.343   7.607  17.541  0.00  0.00    +0.000 A 
ATOM     25  C   UNL     1       3.607   6.314  17.953  0.00  0.00    +0.000 A 
ATOM     26  N   UNL     1       3.087   5.769  19.067  0.00  0.00    +0.000 NA
ATOM     27  C   UNL     1       2.277   6.561  19.814  0.00  0.00    +0.000 A 
ATOM     28  F   UNL     1       1.812   6.000  20.942  0.00  0.00    +0.000 F 
ENDBRANCH   7  22
TORSDOF 1
ENDMDL
MODEL 7
REMARK VINA RESULT:      -8.0      2.874      6.646
REMARK  Name = 
REMARK  2 active torsions:
REMARK  status: ('A' for Active; 'I' for Inactive)
REMARK    1  A    between atoms: C_1  and  C_2
REMARK    2  A    between atoms: C_7  and  C_8
REMARK                            x       y       z     vdW  Elec       q    Type
REMARK                         _______ _______ _______ _____ _____    ______ ____
ROOT
ATOM      1  C   UNL     1       1.212  12.734  18.221  0.00  0.00    +0.000 C 
ATOM      2  C   UNL     1       1.389  11.426  18.987  0.00  0.00    +0.000 C 
ATOM      3  O   UNL     1       1.868  10.480  18.022  0.00  0.00    +0.000 OA
ATOM      4  C   UNL     1       2.061   9.217  18.508  0.00  0.00    +0.000 A 
ATOM      5  C   UNL     1       2.903   8.407  17.749  0.00  0.00    +0.000 A 
ATOM      6  C   UNL     1       3.142   7.084  18.128  0.00  0.00    +0.000 A 
ATOM      7  C   UNL     1       2.540   6.537  19.271  0.00  0.00    +0.000 A 
ATOM      8  C   UNL     1       1.719   7.393  20.033  0.00  0.00    +0.000 A 
ATOM      9  C   UNL     1       1.434   8.724  19.655  0.00  0.00    +0.000 A 
ATOM     10  C   UNL     1       0.485   9.601  20.464  0.00  0.00    +0.000 C 
ATOM     11  C   UNL     1      -0.755   8.831  21.012  0.00  0.00    +0.000 C 
ATOM     12  O   UNL     1      -0.599   8.762  22.448  0.00  0.00    +0.000 OA
ATOM     13  C   UNL     1       0.515   9.444  22.788  0.00  0.00    +0.000 C 
ATOM     14  N   UNL     1       0.875   9.516  24.008  0.00  0.00    +0.000 NA
ATOM     15  N   UNL     1       1.128   9.962  21.709  0.00  0.00    +0.000 N 
ATOM     16  C   UNL     1       0.126  10.874  19.657  0.00  0.00    +0.000 C 
ATOM     17  C   UNL     1      -0.757  11.884  20.435  0.00  0.00    +0.000 C 
ATOM     18  O   UNL     1      -1.943  11.420  19.739  0.00  0.00    +0.000 OA
ATOM     19  C   UNL     1      -1.122  10.757  18.743  0.00  0.00    +0.000 C 
ATOM     20  H   UNL     1       0.156   9.024  24.551  0.00  0.00    +0.000 HD
ATOM     21  H   UNL     1       2.111  10.188  21.778  0.00  0.00    +0.000 HD
ENDROOT
BRANCH   7  22
ATOM     22  C   UNL     1       2.712   5.111  19.644  0.00  0.00    +0.000 A 
ATOM     23  C   UNL     1       3.901   4.412  19.373  0.00  0.00    +0.000 A 
ATOM     24  C   UNL     1       4.072   3.095  19.803  0.00  0.00    +0.000 A 
ATOM     25  C   UNL     1       3.035   2.488  20.485  0.00  0.00    +0.000 A 
ATOM     26  N   UNL     1       1.867   3.097  20.756  0.00  0.00    +0.000 NA
ATOM     27  C   UNL     1       1.737   4.381  20.339  0.00  0.00    +0.000 A 
ATOM     28  F   UNL     1       0.576   4.973  20.666  0.00  0.00    +0.000 F 
ENDBRANCH   7  22
TORSDOF 1
ENDMDL
MODEL 8
REMARK VINA RESULT:      -7.8      3.798      8.315
REMARK  Name = 
REMARK  2 active torsions:
REMARK  status: ('A' for Active; 'I' for Inactive)
REMARK    1  A    between atoms: C_1  and  C_2
REMARK    2  A    between atoms: C_7  and  C_8
REMARK                            x       y       z     vdW  Elec       q    Type
REMARK                         _______ _______ _______ _____ _____    ______ ____
ROOT
ATOM      1  C   UNL     1      -2.852  12.827  23.782  0.00  0.00    +0.000 C 
ATOM      2  C   UNL     1      -2.240  12.093  22.592  0.00  0.00    +0.000 C 
ATOM      3  O   UNL     1      -1.259  11.209  23.151  0.00  0.00    +0.000 OA
ATOM      4  C   UNL     1      -0.563  10.474  22.233  0.00  0.00    +0.000 A 
ATOM      5  C   UNL     1       0.065   9.335  22.731  0.00  0.00    +0.000 A 
ATOM      6  C   UNL     1       0.837   8.529  21.891  0.00  0.00    +0.000 A 
ATOM      7  C   UNL     1       1.005   8.845  20.535  0.00  0.00    +0.000 A 
ATOM      8  C   UNL     1       0.330   9.987  20.056  0.00  0.00    +0.000 A 
ATOM      9  C   UNL     1      -0.430  10.837  20.890  0.00  0.00    +0.000 A 
ATOM     10  C   UNL     1      -1.089  12.104  20.355  0.00  0.00    +0.000 C 
ATOM     11  C   UNL     1      -0.211  12.870  19.319  0.00  0.00    +0.000 C 
ATOM     12  O   UNL     1      -0.870  12.738  18.039  0.00  0.00    +0.000 OA
ATOM     13  C   UNL     1      -2.026  12.067  18.222  0.00  0.00    +0.000 C 
ATOM     14  N   UNL     1      -2.784  11.813  17.231  0.00  0.00    +0.000 NA
ATOM     15  N   UNL     1      -2.205  11.730  19.512  0.00  0.00    +0.000 N 
ATOM     16  C   UNL     1      -1.579  12.982  21.534  0.00  0.00    +0.000 C 
ATOM     17  C   UNL     1      -2.357  14.249  21.093  0.00  0.00    +0.000 C 
ATOM     18  O   UNL     1      -1.182  15.073  21.304  0.00  0.00    +0.000 OA
ATOM     19  C   UNL     1      -0.553  14.014  22.070  0.00  0.00    +0.000 C 
ATOM     20  H   UNL     1      -2.341  12.243  16.410  0.00  0.00    +0.000 HD
ATOM     21  H   UNL     1      -2.825  10.961  19.725  0.00  0.00    +0.000 HD
ENDROOT
BRANCH   7  22
ATOM     22  C   UNL     1       1.889   8.052  19.646  0.00  0.00    +0.000 A 
ATOM     23  C   UNL     1       2.316   6.757  19.989  0.00  0.00    +0.000 A 
ATOM     24  C   UNL     1       3.082   5.997  19.103  0.00  0.00    +0.000 A 
ATOM     25  C   UNL     1       3.427   6.556  17.888  0.00  0.00    +0.000 A 
ATOM     26  N   UNL     1       3.066   7.796  17.512  0.00  0.00    +0.000 NA
ATOM     27  C   UNL     1       2.310   8.504  18.387  0.00  0.00    +0.000 A 
ATOM     28  F   UNL     1       1.930   9.720  17.961  0.00  0.00    +0.000 F 
ENDBRANCH   7  22
TORSDOF 1
ENDMDL
MODEL 9
REMARK VINA RESULT:      -7.3      3.790      7.123
REMARK  Name = 
REMARK  2 active torsions:
REMARK  status: ('A' for Active; 'I' for Inactive)
REMARK    1  A    between atoms: C_1  and  C_2
REMARK    2  A    between atoms: C_7  and  C_8
REMARK                            x       y       z     vdW  Elec       q    Type
REMARK                         _______ _______ _______ _____ _____    ______ ____
ROOT
ATOM      1  C   UNL     1       1.542   6.170  21.140  0.00  0.00    +0.000 C 
ATOM      2  C   UNL     1       2.511   5.493  20.174  0.00  0.00    +0.000 C 
ATOM      3  O   UNL     1       2.677   6.417  19.090  0.00  0.00    +0.000 OA
ATOM      4  C   UNL     1       3.494   5.977  18.086  0.00  0.00    +0.000 A 
ATOM      5  C   UNL     1       4.009   6.972  17.257  0.00  0.00    +0.000 A 
ATOM      6  C   UNL     1       4.825   6.636  16.174  0.00  0.00    +0.000 A 
ATOM      7  C   UNL     1       5.141   5.300  15.890  0.00  0.00    +0.000 A 
ATOM      8  C   UNL     1       4.629   4.321  16.767  0.00  0.00    +0.000 A 
ATOM      9  C   UNL     1       3.775   4.629  17.850  0.00  0.00    +0.000 A 
ATOM     10  C   UNL     1       3.181   3.541  18.736  0.00  0.00    +0.000 C 
ATOM     11  C   UNL     1       2.752   2.265  17.950  0.00  0.00    +0.000 C 
ATOM     12  O   UNL     1       3.662   1.212  18.341  0.00  0.00    +0.000 OA
ATOM     13  C   UNL     1       4.495   1.697  19.285  0.00  0.00    +0.000 C 
ATOM     14  N   UNL     1       5.404   0.955  19.782  0.00  0.00    +0.000 NA
ATOM     15  N   UNL     1       4.232   2.986  19.564  0.00  0.00    +0.000 N 
ATOM     16  C   UNL     1       2.059   4.137  19.624  0.00  0.00    +0.000 C 
ATOM     17  C   UNL     1       1.458   3.130  20.638  0.00  0.00    +0.000 C 
ATOM     18  O   UNL     1       0.309   2.913  19.779  0.00  0.00    +0.000 OA
ATOM     19  C   UNL     1       0.634   4.102  19.013  0.00  0.00    +0.000 C 
ATOM     20  H   UNL     1       5.290   0.030  19.350  0.00  0.00    +0.000 HD
ATOM     21  H   UNL     1       4.964   3.548  19.977  0.00  0.00    +0.000 HD
ENDROOT
BRANCH   7  22
ATOM     22  C   UNL     1       5.934   4.915  14.696  0.00  0.00    +0.000 A 
ATOM     23  C   UNL     1       7.247   5.378  14.498  0.00  0.00    +0.000 A 
ATOM     24  C   UNL     1       8.004   4.941  13.410  0.00  0.00    +0.000 A 
ATOM     25  C   UNL     1       7.424   4.057  12.520  0.00  0.00    +0.000 A 
ATOM     26  N   UNL     1       6.168   3.596  12.645  0.00  0.00    +0.000 NA
ATOM     27  C   UNL     1       5.462   4.026  13.720  0.00  0.00    +0.000 A 
ATOM     28  F   UNL     1       4.228   3.510  13.838  0.00  0.00    +0.000 F 
ENDBRANCH   7  22
TORSDOF 1
ENDMDL
