MODEL 1
REMARK VINA RESULT:      -8.7      0.000      0.000
REMARK  Name = 
REMARK  9 active torsions:
REMARK  status: ('A' for Active; 'I' for Inactive)
REMARK    1  A    between atoms: C_1  and  C_2
REMARK    2  A    between atoms: C_2  and  C_3
REMARK    3  A    between atoms: C_2  and  N_4
REMARK    4  A    between atoms: C_8  and  C_10
REMARK    5  A    between atoms: C_10  and  O_11
REMARK    6  A    between atoms: O_11  and  C_12
REMARK    7  A    between atoms: C_12  and  C_14
REMARK    8  A    between atoms: C_19  and  O_20
REMARK    9  A    between atoms: O_20  and  C_21
REMARK                            x       y       z     vdW  Elec       q    Type
REMARK                         _______ _______ _______ _____ _____    ______ ____
ROOT
ATOM      1  C   UNL     1       5.228   4.654  18.838  0.00  0.00    +0.000 C 
ATOM      2  O   UNL     1       5.979   4.243  19.709  0.00  0.00    +0.000 OA
ENDROOT
BRANCH   1   3
ATOM      3  C   UNL     1       3.808   4.191  18.762  0.00  0.00    +0.000 A 
ATOM      4  C   UNL     1       3.622   2.990  18.037  0.00  0.00    +0.000 A 
ATOM      5  C   UNL     1       2.361   2.419  17.875  0.00  0.00    +0.000 A 
ATOM      6  C   UNL     1       1.246   3.067  18.379  0.00  0.00    +0.000 A 
ATOM      7  C   UNL     1       1.402   4.272  19.062  0.00  0.00    +0.000 A 
ATOM      8  C   UNL     1       2.681   4.806  19.332  0.00  0.00    +0.000 A 
BRANCH   8   9
ATOM      9  O   UNL     1       2.806   5.918  20.152  0.00  0.00    +0.000 OA
BRANCH   9  10
ATOM     10  C   UNL     1       2.330   7.128  19.664  0.00  0.00    +0.000 A 
ATOM     11  C   UNL     1       1.587   8.020  20.449  0.00  0.00    +0.000 A 
ATOM     12  C   UNL     1       1.028   9.169  19.882  0.00  0.00    +0.000 A 
ATOM     13  C   UNL     1       1.269   9.470  18.546  0.00  0.00    +0.000 A 
ATOM     14  C   UNL     1       2.070   8.622  17.776  0.00  0.00    +0.000 A 
ATOM     15  C   UNL     1       2.596   7.449  18.332  0.00  0.00    +0.000 A 
ENDBRANCH   9  10
ENDBRANCH   8   9
ENDBRANCH   1   3
BRANCH   1  16
ATOM     16  O   UNL     1       5.586   5.529  17.868  0.00  0.00    +0.000 OA
BRANCH  16  17
ATOM     17  C   UNL     1       6.824   5.220  17.207  0.00  0.00    +0.000 C 
BRANCH  17  22
ATOM     18  N   UNL     1       6.429   3.801  13.133  0.00  0.00    +0.000 N 
ATOM     19  C   UNL     1       7.248   4.832  13.478  0.00  0.00    +0.000 C 
ATOM     20  O   UNL     1       7.865   5.524  12.674  0.00  0.00    +0.000 OA
ATOM     21  N   UNL     1       7.335   5.106  14.821  0.00  0.00    +0.000 N 
ATOM     22  C   UNL     1       6.642   4.521  15.864  0.00  0.00    +0.000 C 
ATOM     23  O   UNL     1       5.976   3.492  15.754  0.00  0.00    +0.000 OA
ATOM     24  H   UNL     1       6.123   3.198  13.895  0.00  0.00    +0.000 HD
ATOM     25  H   UNL     1       7.895   5.923  15.035  0.00  0.00    +0.000 HD
BRANCH  18  27
ATOM     26  C   UNL     1       7.068   2.077  11.509  0.00  0.00    +0.000 C 
ATOM     27  C   UNL     1       6.252   3.341  11.766  0.00  0.00    +0.000 C 
ATOM     28  C   UNL     1       4.774   3.088  11.479  0.00  0.00    +0.000 C 
ENDBRANCH  18  27
ENDBRANCH  17  22
ENDBRANCH  16  17
ENDBRANCH   1  16
TORSDOF 7
ENDMDL
MODEL 2
REMARK VINA RESULT:      -8.3      0.579      1.109
REMARK  Name = 
REMARK  9 active torsions:
REMARK  status: ('A' for Active; 'I' for Inactive)
REMARK    1  A    between atoms: C_1  and  C_2
REMARK    2  A    between atoms: C_2  and  C_3
REMARK    3  A    between atoms: C_2  and  N_4
REMARK    4  A    between atoms: C_8  and  C_10
REMARK    5  A    between atoms: C_10  and  O_11
REMARK    6  A    between atoms: O_11  and  C_12
REMARK    7  A    between atoms: C_12  and  C_14
REMARK    8  A    between atoms: C_19  and  O_20
REMARK    9  A    between atoms: O_20  and  C_21
REMARK                            x       y       z     vdW  Elec       q    Type
REMARK                         _______ _______ _______ _____ _____    ______ ____
ROOT
ATOM      1  C   UNL     1       5.220   4.661  19.114  0.00  0.00    +0.000 C 
ATOM      2  O   UNL     1       6.098   4.389  19.917  0.00  0.00    +0.000 OA
ENDROOT
BRANCH   1   3
ATOM      3  C   UNL     1       3.802   4.254  19.353  0.00  0.00    +0.000 A 
ATOM      4  C   UNL     1       3.517   2.906  19.027  0.00  0.00    +0.000 A 
ATOM      5  C   UNL     1       2.243   2.364  19.195  0.00  0.00    +0.000 A 
ATOM      6  C   UNL     1       1.208   3.172  19.633  0.00  0.00    +0.000 A 
ATOM      7  C   UNL     1       1.457   4.513  19.922  0.00  0.00    +0.000 A 
ATOM      8  C   UNL     1       2.763   5.049  19.865  0.00  0.00    +0.000 A 
BRANCH   8   9
ATOM      9  O   UNL     1       3.000   6.340  20.315  0.00  0.00    +0.000 OA
BRANCH   9  10
ATOM     10  C   UNL     1       2.342   7.374  19.663  0.00  0.00    +0.000 A 
ATOM     11  C   UNL     1       2.471   7.604  18.287  0.00  0.00    +0.000 A 
ATOM     12  C   UNL     1       1.886   8.727  17.696  0.00  0.00    +0.000 A 
ATOM     13  C   UNL     1       1.108   9.588  18.464  0.00  0.00    +0.000 A 
ATOM     14  C   UNL     1       0.915   9.325  19.823  0.00  0.00    +0.000 A 
ATOM     15  C   UNL     1       1.535   8.222  20.424  0.00  0.00    +0.000 A 
ENDBRANCH   9  10
ENDBRANCH   8   9
ENDBRANCH   1   3
BRANCH   1  16
ATOM     16  O   UNL     1       5.426   5.323  17.951  0.00  0.00    +0.000 OA
BRANCH  16  17
ATOM     17  C   UNL     1       6.624   4.950  17.250  0.00  0.00    +0.000 C 
BRANCH  17  22
ATOM     18  N   UNL     1       6.075   3.621  13.163  0.00  0.00    +0.000 N 
ATOM     19  C   UNL     1       7.014   4.540  13.520  0.00  0.00    +0.000 C 
ATOM     20  O   UNL     1       7.715   5.157  12.723  0.00  0.00    +0.000 OA
ATOM     21  N   UNL     1       7.128   4.791  14.866  0.00  0.00    +0.000 N 
ATOM     22  C   UNL     1       6.363   4.289  15.901  0.00  0.00    +0.000 C 
ATOM     23  O   UNL     1       5.575   3.351  15.780  0.00  0.00    +0.000 OA
ATOM     24  H   UNL     1       5.693   3.055  13.920  0.00  0.00    +0.000 HD
ATOM     25  H   UNL     1       7.785   5.531  15.087  0.00  0.00    +0.000 HD
BRANCH  18  27
ATOM     26  C   UNL     1       6.314   1.759  11.586  0.00  0.00    +0.000 C 
ATOM     27  C   UNL     1       5.848   3.198  11.792  0.00  0.00    +0.000 C 
ATOM     28  C   UNL     1       4.372   3.337  11.431  0.00  0.00    +0.000 C 
ENDBRANCH  18  27
ENDBRANCH  17  22
ENDBRANCH  16  17
ENDBRANCH   1  16
TORSDOF 7
ENDMDL
MODEL 3
REMARK VINA RESULT:      -7.9      1.005      3.559
REMARK  Name = 
REMARK  9 active torsions:
REMARK  status: ('A' for Active; 'I' for Inactive)
REMARK    1  A    between atoms: C_1  and  C_2
REMARK    2  A    between atoms: C_2  and  C_3
REMARK    3  A    between atoms: C_2  and  N_4
REMARK    4  A    between atoms: C_8  and  C_10
REMARK    5  A    between atoms: C_10  and  O_11
REMARK    6  A    between atoms: O_11  and  C_12
REMARK    7  A    between atoms: C_12  and  C_14
REMARK    8  A    between atoms: C_19  and  O_20
REMARK    9  A    between atoms: O_20  and  C_21
REMARK                            x       y       z     vdW  Elec       q    Type
REMARK                         _______ _______ _______ _____ _____    ______ ____
ROOT
ATOM      1  C   UNL     1       5.102   6.557  17.242  0.00  0.00    +0.000 C 
ATOM      2  O   UNL     1       5.402   6.913  16.114  0.00  0.00    +0.000 OA
ENDROOT
BRANCH   1   3
ATOM      3  C   UNL     1       3.897   7.110  17.932  0.00  0.00    +0.000 A 
ATOM      4  C   UNL     1       3.388   8.300  17.358  0.00  0.00    +0.000 A 
ATOM      5  C   UNL     1       2.265   8.943  17.876  0.00  0.00    +0.000 A 
ATOM      6  C   UNL     1       1.660   8.448  19.019  0.00  0.00    +0.000 A 
ATOM      7  C   UNL     1       2.168   7.301  19.624  0.00  0.00    +0.000 A 
ATOM      8  C   UNL     1       3.234   6.574  19.049  0.00  0.00    +0.000 A 
BRANCH   8   9
ATOM      9  O   UNL     1       3.606   5.351  19.588  0.00  0.00    +0.000 OA
BRANCH   9  10
ATOM     10  C   UNL     1       2.757   4.274  19.375  0.00  0.00    +0.000 A 
ATOM     11  C   UNL     1       1.781   3.885  20.302  0.00  0.00    +0.000 A 
ATOM     12  C   UNL     1       1.029   2.724  20.098  0.00  0.00    +0.000 A 
ATOM     13  C   UNL     1       1.200   1.985  18.933  0.00  0.00    +0.000 A 
ATOM     14  C   UNL     1       2.121   2.406  17.970  0.00  0.00    +0.000 A 
ATOM     15  C   UNL     1       2.903   3.547  18.192  0.00  0.00    +0.000 A 
ENDBRANCH   9  10
ENDBRANCH   8   9
ENDBRANCH   1   3
BRANCH   1  16
ATOM     16  O   UNL     1       5.809   5.665  17.977  0.00  0.00    +0.000 OA
BRANCH  16  17
ATOM     17  C   UNL     1       6.992   5.160  17.334  0.00  0.00    +0.000 C 
BRANCH  17  22
ATOM     18  N   UNL     1       6.358   3.809  13.267  0.00  0.00    +0.000 N 
ATOM     19  C   UNL     1       7.245   4.792  13.588  0.00  0.00    +0.000 C 
ATOM     20  O   UNL     1       7.864   5.459  12.765  0.00  0.00    +0.000 OA
ATOM     21  N   UNL     1       7.400   5.046  14.929  0.00  0.00    +0.000 N 
ATOM     22  C   UNL     1       6.719   4.486  15.993  0.00  0.00    +0.000 C 
ATOM     23  O   UNL     1       5.995   3.495  15.902  0.00  0.00    +0.000 OA
ATOM     24  H   UNL     1       6.052   3.214  14.036  0.00  0.00    +0.000 HD
ATOM     25  H   UNL     1       8.010   5.830  15.126  0.00  0.00    +0.000 HD
BRANCH  18  27
ATOM     26  C   UNL     1       6.834   2.068  11.605  0.00  0.00    +0.000 C 
ATOM     27  C   UNL     1       6.102   3.374  11.905  0.00  0.00    +0.000 C 
ATOM     28  C   UNL     1       4.603   3.209  11.674  0.00  0.00    +0.000 C 
ENDBRANCH  18  27
ENDBRANCH  17  22
ENDBRANCH  16  17
ENDBRANCH   1  16
TORSDOF 7
ENDMDL
MODEL 4
REMARK VINA RESULT:      -7.9      1.353      3.477
REMARK  Name = 
REMARK  9 active torsions:
REMARK  status: ('A' for Active; 'I' for Inactive)
REMARK    1  A    between atoms: C_1  and  C_2
REMARK    2  A    between atoms: C_2  and  C_3
REMARK    3  A    between atoms: C_2  and  N_4
REMARK    4  A    between atoms: C_8  and  C_10
REMARK    5  A    between atoms: C_10  and  O_11
REMARK    6  A    between atoms: O_11  and  C_12
REMARK    7  A    between atoms: C_12  and  C_14
REMARK    8  A    between atoms: C_19  and  O_20
REMARK    9  A    between atoms: O_20  and  C_21
REMARK                            x       y       z     vdW  Elec       q    Type
REMARK                         _______ _______ _______ _____ _____    ______ ____
ROOT
ATOM      1  C   UNL     1       6.312   5.246  18.956  0.00  0.00    +0.000 C 
ATOM      2  O   UNL     1       6.897   5.458  20.006  0.00  0.00    +0.000 OA
ENDROOT
BRANCH   1   3
ATOM      3  C   UNL     1       5.083   6.014  18.589  0.00  0.00    +0.000 A 
ATOM      4  C   UNL     1       5.270   6.955  17.548  0.00  0.00    +0.000 A 
ATOM      5  C   UNL     1       4.224   7.750  17.081  0.00  0.00    +0.000 A 
ATOM      6  C   UNL     1       2.981   7.670  17.685  0.00  0.00    +0.000 A 
ATOM      7  C   UNL     1       2.785   6.779  18.738  0.00  0.00    +0.000 A 
ATOM      8  C   UNL     1       3.801   5.888  19.149  0.00  0.00    +0.000 A 
BRANCH   8   9
ATOM      9  O   UNL     1       3.520   4.906  20.088  0.00  0.00    +0.000 OA
BRANCH   9  10
ATOM     10  C   UNL     1       2.633   3.904  19.719  0.00  0.00    +0.000 A 
ATOM     11  C   UNL     1       2.914   2.982  18.702  0.00  0.00    +0.000 A 
ATOM     12  C   UNL     1       1.944   2.066  18.284  0.00  0.00    +0.000 A 
ATOM     13  C   UNL     1       0.713   2.020  18.929  0.00  0.00    +0.000 A 
ATOM     14  C   UNL     1       0.451   2.888  19.993  0.00  0.00    +0.000 A 
ATOM     15  C   UNL     1       1.408   3.833  20.385  0.00  0.00    +0.000 A 
ENDBRANCH   9  10
ENDBRANCH   8   9
ENDBRANCH   1   3
BRANCH   1  16
ATOM     16  O   UNL     1       6.684   4.314  18.046  0.00  0.00    +0.000 OA
BRANCH  16  17
ATOM     17  C   UNL     1       7.284   4.846  16.853  0.00  0.00    +0.000 C 
BRANCH  17  22
ATOM     18  N   UNL     1       6.083   3.466  12.926  0.00  0.00    +0.000 N 
ATOM     19  C   UNL     1       7.085   4.368  13.116  0.00  0.00    +0.000 C 
ATOM     20  O   UNL     1       7.668   4.955  12.209  0.00  0.00    +0.000 OA
ATOM     21  N   UNL     1       7.411   4.637  14.423  0.00  0.00    +0.000 N 
ATOM     22  C   UNL     1       6.804   4.170  15.573  0.00  0.00    +0.000 C 
ATOM     23  O   UNL     1       5.988   3.249  15.594  0.00  0.00    +0.000 OA
ATOM     24  H   UNL     1       5.810   2.921  13.743  0.00  0.00    +0.000 HD
ATOM     25  H   UNL     1       8.109   5.365  14.526  0.00  0.00    +0.000 HD
BRANCH  18  27
ATOM     26  C   UNL     1       5.957   1.548  11.402  0.00  0.00    +0.000 C 
ATOM     27  C   UNL     1       5.638   3.026  11.615  0.00  0.00    +0.000 C 
ATOM     28  C   UNL     1       4.142   3.277  11.450  0.00  0.00    +0.000 C 
ENDBRANCH  18  27
ENDBRANCH  17  22
ENDBRANCH  16  17
ENDBRANCH   1  16
TORSDOF 7
ENDMDL
MODEL 5
REMARK VINA RESULT:      -7.8      1.021      1.402
REMARK  Name = 
REMARK  9 active torsions:
REMARK  status: ('A' for Active; 'I' for Inactive)
REMARK    1  A    between atoms: C_1  and  C_2
REMARK    2  A    between atoms: C_2  and  C_3
REMARK    3  A    between atoms: C_2  and  N_4
REMARK    4  A    between atoms: C_8  and  C_10
REMARK    5  A    between atoms: C_10  and  O_11
REMARK    6  A    between atoms: O_11  and  C_12
REMARK    7  A    between atoms: C_12  and  C_14
REMARK    8  A    between atoms: C_19  and  O_20
REMARK    9  A    between atoms: O_20  and  C_21
REMARK                            x       y       z     vdW  Elec       q    Type
REMARK                         _______ _______ _______ _____ _____    ______ ____
ROOT
ATOM      1  C   UNL     1       5.765   4.783  18.902  0.00  0.00    +0.000 C 
ATOM      2  O   UNL     1       5.931   5.599  19.796  0.00  0.00    +0.000 OA
ENDROOT
BRANCH   1   3
ATOM      3  C   UNL     1       4.410   4.223  18.610  0.00  0.00    +0.000 A 
ATOM      4  C   UNL     1       4.213   2.899  19.070  0.00  0.00    +0.000 A 
ATOM      5  C   UNL     1       3.004   2.230  18.884  0.00  0.00    +0.000 A 
ATOM      6  C   UNL     1       1.984   2.844  18.177  0.00  0.00    +0.000 A 
ATOM      7  C   UNL     1       2.171   4.133  17.680  0.00  0.00    +0.000 A 
ATOM      8  C   UNL     1       3.346   4.866  17.957  0.00  0.00    +0.000 A 
BRANCH   8   9
ATOM      9  O   UNL     1       3.430   6.201  17.586  0.00  0.00    +0.000 OA
BRANCH   9  10
ATOM     10  C   UNL     1       2.749   7.125  18.367  0.00  0.00    +0.000 A 
ATOM     11  C   UNL     1       2.438   6.894  19.713  0.00  0.00    +0.000 A 
ATOM     12  C   UNL     1       1.648   7.801  20.425  0.00  0.00    +0.000 A 
ATOM     13  C   UNL     1       1.225   8.978  19.817  0.00  0.00    +0.000 A 
ATOM     14  C   UNL     1       1.592   9.249  18.496  0.00  0.00    +0.000 A 
ATOM     15  C   UNL     1       2.349   8.321  17.768  0.00  0.00    +0.000 A 
ENDBRANCH   9  10
ENDBRANCH   8   9
ENDBRANCH   1   3
BRANCH   1  16
ATOM     16  O   UNL     1       6.755   4.299  18.115  0.00  0.00    +0.000 OA
BRANCH  16  17
ATOM     17  C   UNL     1       6.896   4.965  16.849  0.00  0.00    +0.000 C 
BRANCH  17  22
ATOM     18  N   UNL     1       5.859   3.034  13.112  0.00  0.00    +0.000 N 
ATOM     19  C   UNL     1       6.753   4.058  13.190  0.00  0.00    +0.000 C 
ATOM     20  O   UNL     1       7.266   4.603  12.216  0.00  0.00    +0.000 OA
ATOM     21  N   UNL     1       7.046   4.505  14.455  0.00  0.00    +0.000 N 
ATOM     22  C   UNL     1       6.495   4.102  15.656  0.00  0.00    +0.000 C 
ATOM     23  O   UNL     1       5.788   3.103  15.788  0.00  0.00    +0.000 OA
ATOM     24  H   UNL     1       5.650   2.555  13.987  0.00  0.00    +0.000 HD
ATOM     25  H   UNL     1       7.657   5.313  14.470  0.00  0.00    +0.000 HD
BRANCH  18  27
ATOM     26  C   UNL     1       4.531   3.311  11.068  0.00  0.00    +0.000 C 
ATOM     27  C   UNL     1       5.468   2.404  11.862  0.00  0.00    +0.000 C 
ATOM     28  C   UNL     1       6.702   2.057  11.034  0.00  0.00    +0.000 C 
ENDBRANCH  18  27
ENDBRANCH  17  22
ENDBRANCH  16  17
ENDBRANCH   1  16
TORSDOF 7
ENDMDL
MODEL 6
REMARK VINA RESULT:      -7.8      1.091      3.590
REMARK  Name = 
REMARK  9 active torsions:
REMARK  status: ('A' for Active; 'I' for Inactive)
REMARK    1  A    between atoms: C_1  and  C_2
REMARK    2  A    between atoms: C_2  and  C_3
REMARK    3  A    between atoms: C_2  and  N_4
REMARK    4  A    between atoms: C_8  and  C_10
REMARK    5  A    between atoms: C_10  and  O_11
REMARK    6  A    between atoms: O_11  and  C_12
REMARK    7  A    between atoms: C_12  and  C_14
REMARK    8  A    between atoms: C_19  and  O_20
REMARK    9  A    between atoms: O_20  and  C_21
REMARK                            x       y       z     vdW  Elec       q    Type
REMARK                         _______ _______ _______ _____ _____    ______ ____
ROOT
ATOM      1  C   UNL     1       5.352   6.668  17.556  0.00  0.00    +0.000 C 
ATOM      2  O   UNL     1       6.045   7.335  16.805  0.00  0.00    +0.000 OA
ENDROOT
BRANCH   1   3
ATOM      3  C   UNL     1       4.052   7.191  18.076  0.00  0.00    +0.000 A 
ATOM      4  C   UNL     1       3.549   8.312  17.374  0.00  0.00    +0.000 A 
ATOM      5  C   UNL     1       2.345   8.919  17.727  0.00  0.00    +0.000 A 
ATOM      6  C   UNL     1       1.644   8.460  18.829  0.00  0.00    +0.000 A 
ATOM      7  C   UNL     1       2.140   7.382  19.559  0.00  0.00    +0.000 A 
ATOM      8  C   UNL     1       3.299   6.685  19.149  0.00  0.00    +0.000 A 
BRANCH   8   9
ATOM      9  O   UNL     1       3.672   5.520  19.804  0.00  0.00    +0.000 OA
BRANCH   9  10
ATOM     10  C   UNL     1       2.800   4.441  19.734  0.00  0.00    +0.000 A 
ATOM     11  C   UNL     1       2.554   3.742  18.545  0.00  0.00    +0.000 A 
ATOM     12  C   UNL     1       1.581   2.741  18.497  0.00  0.00    +0.000 A 
ATOM     13  C   UNL     1       0.897   2.384  19.654  0.00  0.00    +0.000 A 
ATOM     14  C   UNL     1       1.188   3.027  20.861  0.00  0.00    +0.000 A 
ATOM     15  C   UNL     1       2.135   4.059  20.901  0.00  0.00    +0.000 A 
ENDBRANCH   9  10
ENDBRANCH   8   9
ENDBRANCH   1   3
BRANCH   1  16
ATOM     16  O   UNL     1       5.677   5.430  18.001  0.00  0.00    +0.000 OA
BRANCH  16  17
ATOM     17  C   UNL     1       6.876   4.881  17.427  0.00  0.00    +0.000 C 
BRANCH  17  22
ATOM     18  N   UNL     1       6.386   3.772  13.269  0.00  0.00    +0.000 N 
ATOM     19  C   UNL     1       7.178   4.806  13.668  0.00  0.00    +0.000 C 
ATOM     20  O   UNL     1       7.738   5.584  12.901  0.00  0.00    +0.000 OA
ATOM     21  N   UNL     1       7.304   4.976  15.025  0.00  0.00    +0.000 N 
ATOM     22  C   UNL     1       6.671   4.283  16.039  0.00  0.00    +0.000 C 
ATOM     23  O   UNL     1       6.042   3.239  15.870  0.00  0.00    +0.000 OA
ATOM     24  H   UNL     1       6.132   3.099  13.990  0.00  0.00    +0.000 HD
ATOM     25  H   UNL     1       7.839   5.797  15.284  0.00  0.00    +0.000 HD
BRANCH  18  27
ATOM     26  C   UNL     1       6.966   2.158  11.514  0.00  0.00    +0.000 C 
ATOM     27  C   UNL     1       6.177   3.414  11.876  0.00  0.00    +0.000 C 
ATOM     28  C   UNL     1       4.690   3.208  11.599  0.00  0.00    +0.000 C 
ENDBRANCH  18  27
ENDBRANCH  17  22
ENDBRANCH  16  17
ENDBRANCH   1  16
TORSDOF 7
ENDMDL
MODEL 7
REMARK VINA RESULT:      -7.5      4.523      6.844
REMARK  Name = 
REMARK  9 active torsions:
REMARK  status: ('A' for Active; 'I' for Inactive)
REMARK    1  A    between atoms: C_1  and  C_2
REMARK    2  A    between atoms: C_2  and  C_3
REMARK    3  A    between atoms: C_2  and  N_4
REMARK    4  A    between atoms: C_8  and  C_10
REMARK    5  A    between atoms: C_10  and  O_11
REMARK    6  A    between atoms: O_11  and  C_12
REMARK    7  A    between atoms: C_12  and  C_14
REMARK    8  A    between atoms: C_19  and  O_20
REMARK    9  A    between atoms: O_20  and  C_21
REMARK                            x       y       z     vdW  Elec       q    Type
REMARK                         _______ _______ _______ _____ _____    ______ ____
ROOT
ATOM      1  C   UNL     1       7.558   5.807  19.175  0.00  0.00    +0.000 C 
ATOM      2  O   UNL     1       7.585   5.290  20.280  0.00  0.00    +0.000 OA
ENDROOT
BRANCH   1   3
ATOM      3  C   UNL     1       6.643   5.300  18.107  0.00  0.00    +0.000 A 
ATOM      4  C   UNL     1       7.303   4.738  16.988  0.00  0.00    +0.000 A 
ATOM      5  C   UNL     1       6.596   4.214  15.906  0.00  0.00    +0.000 A 
ATOM      6  C   UNL     1       5.214   4.295  15.888  0.00  0.00    +0.000 A 
ATOM      7  C   UNL     1       4.545   4.880  16.961  0.00  0.00    +0.000 A 
ATOM      8  C   UNL     1       5.238   5.313  18.114  0.00  0.00    +0.000 A 
BRANCH   8   9
ATOM      9  O   UNL     1       4.528   5.739  19.227  0.00  0.00    +0.000 OA
BRANCH   9  10
ATOM     10  C   UNL     1       3.507   4.918  19.686  0.00  0.00    +0.000 A 
ATOM     11  C   UNL     1       2.213   5.391  19.944  0.00  0.00    +0.000 A 
ATOM     12  C   UNL     1       1.252   4.554  20.517  0.00  0.00    +0.000 A 
ATOM     13  C   UNL     1       1.556   3.221  20.770  0.00  0.00    +0.000 A 
ATOM     14  C   UNL     1       2.822   2.723  20.448  0.00  0.00    +0.000 A 
ATOM     15  C   UNL     1       3.799   3.572  19.911  0.00  0.00    +0.000 A 
ENDBRANCH   9  10
ENDBRANCH   8   9
ENDBRANCH   1   3
BRANCH   1  16
ATOM     16  O   UNL     1       8.338   6.848  18.797  0.00  0.00    +0.000 OA
BRANCH  16  17
ATOM     17  C   UNL     1       7.704   7.781  17.906  0.00  0.00    +0.000 C 
BRANCH  17  22
ATOM     18  N   UNL     1       9.122  11.738  18.953  0.00  0.00    +0.000 N 
ATOM     19  C   UNL     1       9.347  10.644  19.732  0.00  0.00    +0.000 C 
ATOM     20  O   UNL     1       9.869  10.682  20.842  0.00  0.00    +0.000 OA
ATOM     21  N   UNL     1       8.915   9.445  19.221  0.00  0.00    +0.000 N 
ATOM     22  C   UNL     1       8.213   9.211  18.054  0.00  0.00    +0.000 C 
ATOM     23  O   UNL     1       8.051  10.051  17.170  0.00  0.00    +0.000 OA
ATOM     24  H   UNL     1       8.851  11.553  17.988  0.00  0.00    +0.000 HD
ATOM     25  H   UNL     1       9.033   8.665  19.858  0.00  0.00    +0.000 HD
BRANCH  18  27
ATOM     26  C   UNL     1      10.893  13.409  18.660  0.00  0.00    +0.000 C 
ATOM     27  C   UNL     1       9.552  13.079  19.310  0.00  0.00    +0.000 C 
ATOM     28  C   UNL     1       8.496  14.102  18.902  0.00  0.00    +0.000 C 
ENDBRANCH  18  27
ENDBRANCH  17  22
ENDBRANCH  16  17
ENDBRANCH   1  16
TORSDOF 7
ENDMDL
MODEL 8
REMARK VINA RESULT:      -7.4      3.527      7.646
REMARK  Name = 
REMARK  9 active torsions:
REMARK  status: ('A' for Active; 'I' for Inactive)
REMARK    1  A    between atoms: C_1  and  C_2
REMARK    2  A    between atoms: C_2  and  C_3
REMARK    3  A    between atoms: C_2  and  N_4
REMARK    4  A    between atoms: C_8  and  C_10
REMARK    5  A    between atoms: C_10  and  O_11
REMARK    6  A    between atoms: O_11  and  C_12
REMARK    7  A    between atoms: C_12  and  C_14
REMARK    8  A    between atoms: C_19  and  O_20
REMARK    9  A    between atoms: O_20  and  C_21
REMARK                            x       y       z     vdW  Elec       q    Type
REMARK                         _______ _______ _______ _____ _____    ______ ____
ROOT
ATOM      1  C   UNL     1       2.327   6.012  19.835  0.00  0.00    +0.000 C 
ATOM      2  O   UNL     1       1.720   6.388  20.825  0.00  0.00    +0.000 OA
ENDROOT
BRANCH   1   3
ATOM      3  C   UNL     1       2.394   4.563  19.475  0.00  0.00    +0.000 A 
ATOM      4  C   UNL     1       1.133   3.929  19.360  0.00  0.00    +0.000 A 
ATOM      5  C   UNL     1       1.017   2.581  19.025  0.00  0.00    +0.000 A 
ATOM      6  C   UNL     1       2.159   1.817  18.859  0.00  0.00    +0.000 A 
ATOM      7  C   UNL     1       3.411   2.410  19.006  0.00  0.00    +0.000 A 
ATOM      8  C   UNL     1       3.547   3.797  19.234  0.00  0.00    +0.000 A 
BRANCH   8   9
ATOM      9  O   UNL     1       4.806   4.380  19.213  0.00  0.00    +0.000 OA
BRANCH   9  10
ATOM     10  C   UNL     1       5.449   4.467  17.986  0.00  0.00    +0.000 A 
ATOM     11  C   UNL     1       6.844   4.528  17.865  0.00  0.00    +0.000 A 
ATOM     12  C   UNL     1       7.442   4.734  16.619  0.00  0.00    +0.000 A 
ATOM     13  C   UNL     1       6.652   4.810  15.476  0.00  0.00    +0.000 A 
ATOM     14  C   UNL     1       5.264   4.677  15.580  0.00  0.00    +0.000 A 
ATOM     15  C   UNL     1       4.662   4.511  16.834  0.00  0.00    +0.000 A 
ENDBRANCH   9  10
ENDBRANCH   8   9
ENDBRANCH   1   3
BRANCH   1  16
ATOM     16  O   UNL     1       2.998   6.832  18.991  0.00  0.00    +0.000 OA
BRANCH  16  17
ATOM     17  C   UNL     1       2.187   7.438  17.971  0.00  0.00    +0.000 C 
BRANCH  17  22
ATOM     18  N   UNL     1       0.764  11.359  19.141  0.00  0.00    +0.000 N 
ATOM     19  C   UNL     1       0.678  10.270  19.955  0.00  0.00    +0.000 C 
ATOM     20  O   UNL     1       0.101  10.261  21.038  0.00  0.00    +0.000 OA
ATOM     21  N   UNL     1       1.255   9.118  19.479  0.00  0.00    +0.000 N 
ATOM     22  C   UNL     1       1.847   8.899  18.249  0.00  0.00    +0.000 C 
ATOM     23  O   UNL     1       2.137   9.794  17.456  0.00  0.00    +0.000 OA
ATOM     24  H   UNL     1       1.418  11.286  18.363  0.00  0.00    +0.000 HD
ATOM     25  H   UNL     1       1.108   8.313  20.076  0.00  0.00    +0.000 HD
BRANCH  18  27
ATOM     26  C   UNL     1       1.367  13.554  20.054  0.00  0.00    +0.000 C 
ATOM     27  C   UNL     1       0.253  12.670  19.501  0.00  0.00    +0.000 C 
ATOM     28  C   UNL     1      -0.402  13.334  18.293  0.00  0.00    +0.000 C 
ENDBRANCH  18  27
ENDBRANCH  17  22
ENDBRANCH  16  17
ENDBRANCH   1  16
TORSDOF 7
ENDMDL
MODEL 9
REMARK VINA RESULT:      -7.4      3.868      7.675
REMARK  Name = 
REMARK  9 active torsions:
REMARK  status: ('A' for Active; 'I' for Inactive)
REMARK    1  A    between atoms: C_1  and  C_2
REMARK    2  A    between atoms: C_2  and  C_3
REMARK    3  A    between atoms: C_2  and  N_4
REMARK    4  A    between atoms: C_8  and  C_10
REMARK    5  A    between atoms: C_10  and  O_11
REMARK    6  A    between atoms: O_11  and  C_12
REMARK    7  A    between atoms: C_12  and  C_14
REMARK    8  A    between atoms: C_19  and  O_20
REMARK    9  A    between atoms: O_20  and  C_21
REMARK                            x       y       z     vdW  Elec       q    Type
REMARK                         _______ _______ _______ _____ _____    ______ ____
ROOT
ATOM      1  C   UNL     1       1.671   4.692  18.024  0.00  0.00    +0.000 C 
ATOM      2  O   UNL     1       0.972   4.217  17.142  0.00  0.00    +0.000 OA
ENDROOT
BRANCH   1   3
ATOM      3  C   UNL     1       2.131   3.859  19.177  0.00  0.00    +0.000 A 
ATOM      4  C   UNL     1       1.251   3.855  20.285  0.00  0.00    +0.000 A 
ATOM      5  C   UNL     1       1.528   3.125  21.440  0.00  0.00    +0.000 A 
ATOM      6  C   UNL     1       2.721   2.431  21.541  0.00  0.00    +0.000 A 
ATOM      7  C   UNL     1       3.622   2.453  20.477  0.00  0.00    +0.000 A 
ATOM      8  C   UNL     1       3.307   3.094  19.258  0.00  0.00    +0.000 A 
BRANCH   8   9
ATOM      9  O   UNL     1       4.154   2.958  18.168  0.00  0.00    +0.000 OA
BRANCH   9  10
ATOM     10  C   UNL     1       4.934   4.055  17.825  0.00  0.00    +0.000 A 
ATOM     11  C   UNL     1       5.756   4.716  18.746  0.00  0.00    +0.000 A 
ATOM     12  C   UNL     1       6.431   5.886  18.385  0.00  0.00    +0.000 A 
ATOM     13  C   UNL     1       6.344   6.361  17.081  0.00  0.00    +0.000 A 
ATOM     14  C   UNL     1       5.584   5.665  16.136  0.00  0.00    +0.000 A 
ATOM     15  C   UNL     1       4.874   4.516  16.508  0.00  0.00    +0.000 A 
ENDBRANCH   9  10
ENDBRANCH   8   9
ENDBRANCH   1   3
BRANCH   1  16
ATOM     16  O   UNL     1       2.079   5.983  18.065  0.00  0.00    +0.000 OA
BRANCH  16  17
ATOM     17  C   UNL     1       2.459   6.451  19.370  0.00  0.00    +0.000 C 
BRANCH  17  22
ATOM     18  N   UNL     1       0.902  10.257  20.733  0.00  0.00    +0.000 N 
ATOM     19  C   UNL     1       1.265   9.260  21.587  0.00  0.00    +0.000 C 
ATOM     20  O   UNL     1       1.090   9.293  22.802  0.00  0.00    +0.000 OA
ATOM     21  N   UNL     1       1.826   8.148  21.008  0.00  0.00    +0.000 N 
ATOM     22  C   UNL     1       2.002   7.876  19.665  0.00  0.00    +0.000 C 
ATOM     23  O   UNL     1       1.866   8.711  18.771  0.00  0.00    +0.000 OA
ATOM     24  H   UNL     1       1.262  10.185  19.783  0.00  0.00    +0.000 HD
ATOM     25  H   UNL     1       2.016   7.400  21.665  0.00  0.00    +0.000 HD
BRANCH  18  27
ATOM     26  C   UNL     1       0.982  12.689  20.430  0.00  0.00    +0.000 C 
ATOM     27  C   UNL     1       0.337  11.522  21.172  0.00  0.00    +0.000 C 
ATOM     28  C   UNL     1      -1.175  11.528  20.963  0.00  0.00    +0.000 C 
ENDBRANCH  18  27
ENDBRANCH  17  22
ENDBRANCH  16  17
ENDBRANCH   1  16
TORSDOF 7
ENDMDL
