MODEL 1
REMARK VINA RESULT:      -7.2      0.000      0.000
REMARK  Name = 
REMARK  9 active torsions:
REMARK  status: ('A' for Active; 'I' for Inactive)
REMARK    1  A    between atoms: C_1  and  C_2
REMARK    2  A    between atoms: C_2  and  C_3
REMARK    3  A    between atoms: C_3  and  N_4
REMARK    4  A    between atoms: C_3  and  C_17
REMARK    5  A    between atoms: C_5  and  C_7
REMARK    6  A    between atoms: C_9  and  C_10
REMARK    7  A    between atoms: C_12  and  O_13
REMARK    8  A    between atoms: O_13  and  C_14
REMARK    9  A    between atoms: C_15  and  O_16
REMARK                            x       y       z     vdW  Elec       q    Type
REMARK                         _______ _______ _______ _____ _____    ______ ____
ROOT
ATOM      1  N   UNL     1       2.760   4.393  18.636  0.00  0.00    +0.000 N 
ATOM      2  C   UNL     1       3.177   3.936  17.408  0.00  0.00    +0.000 C 
ATOM      3  O   UNL     1       2.443   3.352  16.615  0.00  0.00    +0.000 OA
ATOM      4  H   UNL     1       3.439   4.907  19.191  0.00  0.00    +0.000 HD
ENDROOT
BRANCH   2   5
ATOM      5  C   UNL     1       4.622   4.122  17.087  0.00  0.00    +0.000 A 
ATOM      6  C   UNL     1       4.963   4.270  15.733  0.00  0.00    +0.000 A 
ATOM      7  C   UNL     1       6.286   4.496  15.351  0.00  0.00    +0.000 A 
ATOM      8  C   UNL     1       6.654   4.640  13.903  0.00  0.00    +0.000 C 
ATOM      9  C   UNL     1       7.270   4.602  16.342  0.00  0.00    +0.000 A 
ATOM     10  C   UNL     1       6.954   4.459  17.700  0.00  0.00    +0.000 A 
ATOM     11  C   UNL     1       5.624   4.210  18.069  0.00  0.00    +0.000 A 
BRANCH  10  12
ATOM     12  O   UNL     1       8.005   4.685  18.547  0.00  0.00    +0.000 OA
ATOM     13  C   UNL     1       8.045   5.930  19.235  0.00  0.00    +0.000 C 
ENDBRANCH  10  12
BRANCH  11  14
ATOM     14  O   UNL     1       5.268   4.128  19.388  0.00  0.00    +0.000 OA
ATOM     15  H   UNL     1       4.933   3.220  19.505  0.00  0.00    +0.000 HD
ENDBRANCH  11  14
ENDBRANCH   2   5
BRANCH   1  16
ATOM     16  C   UNL     1       1.411   4.200  19.162  0.00  0.00    +0.000 C 
BRANCH  16  17
ATOM     17  C   UNL     1       1.280   2.801  19.834  0.00  0.00    +0.000 C 
ATOM     18  C   UNL     1       1.158   2.809  21.351  0.00  0.00    +0.000 C 
ATOM     19  C   UNL     1       2.596   2.909  21.809  0.00  0.00    +0.000 C 
ATOM     20  O   UNL     1       3.376   2.212  20.827  0.00  0.00    +0.000 OA
ATOM     21  C   UNL     1       2.544   1.953  19.687  0.00  0.00    +0.000 C 
ENDBRANCH  16  17
BRANCH  16  23
ATOM     22  C   UNL     1       2.127   6.453  20.186  0.00  0.00    +0.000 C 
ATOM     23  C   UNL     1       1.108   5.321  20.187  0.00  0.00    +0.000 C 
ENDBRANCH  16  23
ENDBRANCH   1  16
TORSDOF 6
ENDMDL
MODEL 2
REMARK VINA RESULT:      -6.9      2.246      3.697
REMARK  Name = 
REMARK  9 active torsions:
REMARK  status: ('A' for Active; 'I' for Inactive)
REMARK    1  A    between atoms: C_1  and  C_2
REMARK    2  A    between atoms: C_2  and  C_3
REMARK    3  A    between atoms: C_3  and  N_4
REMARK    4  A    between atoms: C_3  and  C_17
REMARK    5  A    between atoms: C_5  and  C_7
REMARK    6  A    between atoms: C_9  and  C_10
REMARK    7  A    between atoms: C_12  and  O_13
REMARK    8  A    between atoms: O_13  and  C_14
REMARK    9  A    between atoms: C_15  and  O_16
REMARK                            x       y       z     vdW  Elec       q    Type
REMARK                         _______ _______ _______ _____ _____    ______ ____
ROOT
ATOM      1  N   UNL     1       4.584   3.292  16.985  0.00  0.00    +0.000 N 
ATOM      2  C   UNL     1       5.050   4.487  16.488  0.00  0.00    +0.000 C 
ATOM      3  O   UNL     1       4.855   5.571  17.030  0.00  0.00    +0.000 OA
ATOM      4  H   UNL     1       4.847   2.450  16.481  0.00  0.00    +0.000 HD
ENDROOT
BRANCH   2   5
ATOM      5  C   UNL     1       5.771   4.426  15.183  0.00  0.00    +0.000 A 
ATOM      6  C   UNL     1       5.175   3.672  14.158  0.00  0.00    +0.000 A 
ATOM      7  C   UNL     1       5.759   3.603  12.893  0.00  0.00    +0.000 A 
ATOM      8  C   UNL     1       5.132   2.786  11.801  0.00  0.00    +0.000 C 
ATOM      9  C   UNL     1       6.936   4.322  12.648  0.00  0.00    +0.000 A 
ATOM     10  C   UNL     1       7.548   5.081  13.653  0.00  0.00    +0.000 A 
ATOM     11  C   UNL     1       6.963   5.125  14.928  0.00  0.00    +0.000 A 
BRANCH  10  12
ATOM     12  O   UNL     1       8.634   5.800  13.232  0.00  0.00    +0.000 OA
ATOM     13  C   UNL     1       8.573   6.395  11.941  0.00  0.00    +0.000 C 
ENDBRANCH  10  12
BRANCH  11  14
ATOM     14  O   UNL     1       7.497   5.906  15.916  0.00  0.00    +0.000 OA
ATOM     15  H   UNL     1       8.453   5.935  15.729  0.00  0.00    +0.000 HD
ENDBRANCH  11  14
ENDBRANCH   2   5
BRANCH   1  16
ATOM     16  C   UNL     1       3.765   3.174  18.189  0.00  0.00    +0.000 C 
BRANCH  16  17
ATOM     17  C   UNL     1       2.252   3.268  17.834  0.00  0.00    +0.000 C 
ATOM     18  C   UNL     1       1.542   4.526  18.310  0.00  0.00    +0.000 C 
ATOM     19  C   UNL     1       1.197   4.203  19.746  0.00  0.00    +0.000 C 
ATOM     20  O   UNL     1       0.959   2.789  19.790  0.00  0.00    +0.000 OA
ATOM     21  C   UNL     1       1.409   2.215  18.553  0.00  0.00    +0.000 C 
ENDBRANCH  16  17
BRANCH  16  23
ATOM     22  C   UNL     1       4.560   1.951  20.312  0.00  0.00    +0.000 C 
ATOM     23  C   UNL     1       4.076   1.821  18.875  0.00  0.00    +0.000 C 
ENDBRANCH  16  23
ENDBRANCH   1  16
TORSDOF 6
ENDMDL
MODEL 3
REMARK VINA RESULT:      -6.8      2.086      3.194
REMARK  Name = 
REMARK  9 active torsions:
REMARK  status: ('A' for Active; 'I' for Inactive)
REMARK    1  A    between atoms: C_1  and  C_2
REMARK    2  A    between atoms: C_2  and  C_3
REMARK    3  A    between atoms: C_3  and  N_4
REMARK    4  A    between atoms: C_3  and  C_17
REMARK    5  A    between atoms: C_5  and  C_7
REMARK    6  A    between atoms: C_9  and  C_10
REMARK    7  A    between atoms: C_12  and  O_13
REMARK    8  A    between atoms: O_13  and  C_14
REMARK    9  A    between atoms: C_15  and  O_16
REMARK                            x       y       z     vdW  Elec       q    Type
REMARK                         _______ _______ _______ _____ _____    ______ ____
ROOT
ATOM      1  N   UNL     1       4.005   4.107  17.880  0.00  0.00    +0.000 N 
ATOM      2  C   UNL     1       4.979   4.542  17.012  0.00  0.00    +0.000 C 
ATOM      3  O   UNL     1       5.047   4.193  15.836  0.00  0.00    +0.000 OA
ATOM      4  H   UNL     1       4.015   4.498  18.818  0.00  0.00    +0.000 HD
ENDROOT
BRANCH   2   5
ATOM      5  C   UNL     1       6.029   5.432  17.587  0.00  0.00    +0.000 A 
ATOM      6  C   UNL     1       6.744   4.946  18.694  0.00  0.00    +0.000 A 
ATOM      7  C   UNL     1       7.775   5.694  19.262  0.00  0.00    +0.000 A 
ATOM      8  C   UNL     1       8.530   5.184  20.454  0.00  0.00    +0.000 C 
ATOM      9  C   UNL     1       8.109   6.930  18.693  0.00  0.00    +0.000 A 
ATOM     10  C   UNL     1       7.412   7.436  17.588  0.00  0.00    +0.000 A 
ATOM     11  C   UNL     1       6.362   6.683  17.041  0.00  0.00    +0.000 A 
BRANCH  10  12
ATOM     12  O   UNL     1       7.920   8.605  17.091  0.00  0.00    +0.000 OA
ATOM     13  C   UNL     1       8.394   9.571  18.023  0.00  0.00    +0.000 C 
ENDBRANCH  10  12
BRANCH  11  14
ATOM     14  O   UNL     1       5.701   7.115  15.923  0.00  0.00    +0.000 OA
ATOM     15  H   UNL     1       4.755   7.015  16.133  0.00  0.00    +0.000 HD
ENDBRANCH  11  14
ENDBRANCH   2   5
BRANCH   1  16
ATOM     16  C   UNL     1       2.963   3.147  17.521  0.00  0.00    +0.000 C 
BRANCH  16  17
ATOM     17  C   UNL     1       2.956   1.950  18.517  0.00  0.00    +0.000 C 
ATOM     18  C   UNL     1       1.800   1.924  19.506  0.00  0.00    +0.000 C 
ATOM     19  C   UNL     1       2.270   2.850  20.605  0.00  0.00    +0.000 C 
ATOM     20  O   UNL     1       3.696   2.711  20.661  0.00  0.00    +0.000 OA
ATOM     21  C   UNL     1       4.127   1.988  19.498  0.00  0.00    +0.000 C 
ENDBRANCH  16  17
BRANCH  16  23
ATOM     22  C   UNL     1       1.660   5.320  17.984  0.00  0.00    +0.000 C 
ATOM     23  C   UNL     1       1.592   3.868  17.533  0.00  0.00    +0.000 C 
ENDBRANCH  16  23
ENDBRANCH   1  16
TORSDOF 6
ENDMDL
MODEL 4
REMARK VINA RESULT:      -6.8      1.935      2.741
REMARK  Name = 
REMARK  9 active torsions:
REMARK  status: ('A' for Active; 'I' for Inactive)
REMARK    1  A    between atoms: C_1  and  C_2
REMARK    2  A    between atoms: C_2  and  C_3
REMARK    3  A    between atoms: C_3  and  N_4
REMARK    4  A    between atoms: C_3  and  C_17
REMARK    5  A    between atoms: C_5  and  C_7
REMARK    6  A    between atoms: C_9  and  C_10
REMARK    7  A    between atoms: C_12  and  O_13
REMARK    8  A    between atoms: O_13  and  C_14
REMARK    9  A    between atoms: C_15  and  O_16
REMARK                            x       y       z     vdW  Elec       q    Type
REMARK                         _______ _______ _______ _____ _____    ______ ____
ROOT
ATOM      1  N   UNL     1       2.794   5.316  19.156  0.00  0.00    +0.000 N 
ATOM      2  C   UNL     1       3.124   6.241  18.193  0.00  0.00    +0.000 C 
ATOM      3  O   UNL     1       2.382   7.156  17.846  0.00  0.00    +0.000 OA
ATOM      4  H   UNL     1       3.505   4.631  19.400  0.00  0.00    +0.000 HD
ENDROOT
BRANCH   2   5
ATOM      5  C   UNL     1       4.437   6.047  17.511  0.00  0.00    +0.000 A 
ATOM      6  C   UNL     1       5.437   6.999  17.766  0.00  0.00    +0.000 A 
ATOM      7  C   UNL     1       6.708   6.867  17.207  0.00  0.00    +0.000 A 
ATOM      8  C   UNL     1       7.774   7.890  17.467  0.00  0.00    +0.000 C 
ATOM      9  C   UNL     1       6.983   5.751  16.405  0.00  0.00    +0.000 A 
ATOM     10  C   UNL     1       6.002   4.788  16.136  0.00  0.00    +0.000 A 
ATOM     11  C   UNL     1       4.722   4.945  16.688  0.00  0.00    +0.000 A 
BRANCH  10  12
ATOM     12  O   UNL     1       6.454   3.712  15.420  0.00  0.00    +0.000 OA
ATOM     13  C   UNL     1       6.328   3.759  14.004  0.00  0.00    +0.000 C 
ENDBRANCH  10  12
BRANCH  11  14
ATOM     14  O   UNL     1       3.758   3.992  16.499  0.00  0.00    +0.000 OA
ATOM     15  H   UNL     1       4.221   3.140  16.592  0.00  0.00    +0.000 HD
ENDBRANCH  11  14
ENDBRANCH   2   5
BRANCH   1  16
ATOM     16  C   UNL     1       1.508   5.284  19.848  0.00  0.00    +0.000 C 
BRANCH  16  17
ATOM     17  C   UNL     1       1.096   3.817  20.170  0.00  0.00    +0.000 C 
ATOM     18  C   UNL     1       1.998   3.080  21.148  0.00  0.00    +0.000 C 
ATOM     19  C   UNL     1       3.123   2.584  20.268  0.00  0.00    +0.000 C 
ATOM     20  O   UNL     1       2.539   2.322  18.985  0.00  0.00    +0.000 OA
ATOM     21  C   UNL     1       1.220   2.889  18.962  0.00  0.00    +0.000 C 
ENDBRANCH  16  17
BRANCH  16  23
ATOM     22  C   UNL     1       1.189   7.564  21.004  0.00  0.00    +0.000 C 
ATOM     23  C   UNL     1       1.621   6.112  21.153  0.00  0.00    +0.000 C 
ENDBRANCH  16  23
ENDBRANCH   1  16
TORSDOF 6
ENDMDL
MODEL 5
REMARK VINA RESULT:      -6.7      1.897      6.136
REMARK  Name = 
REMARK  9 active torsions:
REMARK  status: ('A' for Active; 'I' for Inactive)
REMARK    1  A    between atoms: C_1  and  C_2
REMARK    2  A    between atoms: C_2  and  C_3
REMARK    3  A    between atoms: C_3  and  N_4
REMARK    4  A    between atoms: C_3  and  C_17
REMARK    5  A    between atoms: C_5  and  C_7
REMARK    6  A    between atoms: C_9  and  C_10
REMARK    7  A    between atoms: C_12  and  O_13
REMARK    8  A    between atoms: O_13  and  C_14
REMARK    9  A    between atoms: C_15  and  O_16
REMARK                            x       y       z     vdW  Elec       q    Type
REMARK                         _______ _______ _______ _____ _____    ______ ____
ROOT
ATOM      1  N   UNL     1       5.620   6.003  17.994  0.00  0.00    +0.000 N 
ATOM      2  C   UNL     1       5.515   5.242  19.135  0.00  0.00    +0.000 C 
ATOM      3  O   UNL     1       6.482   4.785  19.739  0.00  0.00    +0.000 OA
ATOM      4  H   UNL     1       4.757   6.372  17.605  0.00  0.00    +0.000 HD
ENDROOT
BRANCH   2   5
ATOM      5  C   UNL     1       4.132   4.923  19.593  0.00  0.00    +0.000 A 
ATOM      6  C   UNL     1       3.323   6.002  19.987  0.00  0.00    +0.000 A 
ATOM      7  C   UNL     1       2.002   5.795  20.383  0.00  0.00    +0.000 A 
ATOM      8  C   UNL     1       1.140   6.945  20.818  0.00  0.00    +0.000 C 
ATOM      9  C   UNL     1       1.480   4.495  20.355  0.00  0.00    +0.000 A 
ATOM     10  C   UNL     1       2.266   3.403  19.966  0.00  0.00    +0.000 A 
ATOM     11  C   UNL     1       3.600   3.622  19.591  0.00  0.00    +0.000 A 
BRANCH  10  12
ATOM     12  O   UNL     1       1.586   2.218  19.900  0.00  0.00    +0.000 OA
ATOM     13  C   UNL     1       0.634   2.057  18.855  0.00  0.00    +0.000 C 
ENDBRANCH  10  12
BRANCH  11  14
ATOM     14  O   UNL     1       4.380   2.589  19.145  0.00  0.00    +0.000 OA
ATOM     15  H   UNL     1       3.871   2.182  18.420  0.00  0.00    +0.000 HD
ENDBRANCH  11  14
ENDBRANCH   2   5
BRANCH   1  16
ATOM     16  C   UNL     1       6.888   6.321  17.340  0.00  0.00    +0.000 C 
BRANCH  16  17
ATOM     17  C   UNL     1       6.941   5.693  15.916  0.00  0.00    +0.000 C 
ATOM     18  C   UNL     1       5.633   5.712  15.140  0.00  0.00    +0.000 C 
ATOM     19  C   UNL     1       4.907   4.493  15.663  0.00  0.00    +0.000 C 
ATOM     20  O   UNL     1       5.922   3.529  15.977  0.00  0.00    +0.000 OA
ATOM     21  C   UNL     1       7.198   4.186  15.943  0.00  0.00    +0.000 C 
ENDBRANCH  16  17
BRANCH  16  23
ATOM     22  C   UNL     1       8.221   8.411  18.040  0.00  0.00    +0.000 C 
ATOM     23  C   UNL     1       7.036   7.860  17.258  0.00  0.00    +0.000 C 
ENDBRANCH  16  23
ENDBRANCH   1  16
TORSDOF 6
ENDMDL
MODEL 6
REMARK VINA RESULT:      -6.7      3.778      6.669
REMARK  Name = 
REMARK  9 active torsions:
REMARK  status: ('A' for Active; 'I' for Inactive)
REMARK    1  A    between atoms: C_1  and  C_2
REMARK    2  A    between atoms: C_2  and  C_3
REMARK    3  A    between atoms: C_3  and  N_4
REMARK    4  A    between atoms: C_3  and  C_17
REMARK    5  A    between atoms: C_5  and  C_7
REMARK    6  A    between atoms: C_9  and  C_10
REMARK    7  A    between atoms: C_12  and  O_13
REMARK    8  A    between atoms: O_13  and  C_14
REMARK    9  A    between atoms: C_15  and  O_16
REMARK                            x       y       z     vdW  Elec       q    Type
REMARK                         _______ _______ _______ _____ _____    ______ ____
ROOT
ATOM      1  N   UNL     1       2.467   6.089  19.298  0.00  0.00    +0.000 N 
ATOM      2  C   UNL     1       2.639   7.351  18.780  0.00  0.00    +0.000 C 
ATOM      3  O   UNL     1       3.519   7.640  17.973  0.00  0.00    +0.000 OA
ATOM      4  H   UNL     1       1.676   5.951  19.921  0.00  0.00    +0.000 HD
ENDROOT
BRANCH   2   5
ATOM      5  C   UNL     1       1.730   8.412  19.301  0.00  0.00    +0.000 A 
ATOM      6  C   UNL     1       1.285   8.278  20.626  0.00  0.00    +0.000 A 
ATOM      7  C   UNL     1       0.471   9.251  21.207  0.00  0.00    +0.000 A 
ATOM      8  C   UNL     1      -0.018   9.102  22.618  0.00  0.00    +0.000 C 
ATOM      9  C   UNL     1       0.125  10.382  20.457  0.00  0.00    +0.000 A 
ATOM     10  C   UNL     1       0.557  10.539  19.134  0.00  0.00    +0.000 A 
ATOM     11  C   UNL     1       1.357   9.543  18.555  0.00  0.00    +0.000 A 
BRANCH  10  12
ATOM     12  O   UNL     1       0.218  11.739  18.572  0.00  0.00    +0.000 OA
ATOM     13  C   UNL     1      -1.166  12.040  18.436  0.00  0.00    +0.000 C 
ENDBRANCH  10  12
BRANCH  11  14
ATOM     14  O   UNL     1       1.850   9.691  17.287  0.00  0.00    +0.000 OA
ATOM     15  H   UNL     1       1.627  10.605  17.033  0.00  0.00    +0.000 HD
ENDBRANCH  11  14
ENDBRANCH   2   5
BRANCH   1  16
ATOM     16  C   UNL     1       3.334   4.954  18.988  0.00  0.00    +0.000 C 
BRANCH  16  17
ATOM     17  C   UNL     1       3.126   3.807  20.020  0.00  0.00    +0.000 C 
ATOM     18  C   UNL     1       2.401   2.576  19.498  0.00  0.00    +0.000 C 
ATOM     19  C   UNL     1       0.944   2.962  19.615  0.00  0.00    +0.000 C 
ATOM     20  O   UNL     1       0.850   3.823  20.759  0.00  0.00    +0.000 OA
ATOM     21  C   UNL     1       2.178   4.196  21.155  0.00  0.00    +0.000 C 
ENDBRANCH  16  17
BRANCH  16  23
ATOM     22  C   UNL     1       4.245   4.199  16.700  0.00  0.00    +0.000 C 
ATOM     23  C   UNL     1       3.013   4.457  17.556  0.00  0.00    +0.000 C 
ENDBRANCH  16  23
ENDBRANCH   1  16
TORSDOF 6
ENDMDL
MODEL 7
REMARK VINA RESULT:      -6.7      0.910      1.061
REMARK  Name = 
REMARK  9 active torsions:
REMARK  status: ('A' for Active; 'I' for Inactive)
REMARK    1  A    between atoms: C_1  and  C_2
REMARK    2  A    between atoms: C_2  and  C_3
REMARK    3  A    between atoms: C_3  and  N_4
REMARK    4  A    between atoms: C_3  and  C_17
REMARK    5  A    between atoms: C_5  and  C_7
REMARK    6  A    between atoms: C_9  and  C_10
REMARK    7  A    between atoms: C_12  and  O_13
REMARK    8  A    between atoms: O_13  and  C_14
REMARK    9  A    between atoms: C_15  and  O_16
REMARK                            x       y       z     vdW  Elec       q    Type
REMARK                         _______ _______ _______ _____ _____    ______ ____
ROOT
ATOM      1  N   UNL     1       2.774   5.043  19.330  0.00  0.00    +0.000 N 
ATOM      2  C   UNL     1       2.988   4.738  18.006  0.00  0.00    +0.000 C 
ATOM      3  O   UNL     1       2.083   4.520  17.204  0.00  0.00    +0.000 OA
ATOM      4  H   UNL     1       3.594   5.253  19.892  0.00  0.00    +0.000 HD
ENDROOT
BRANCH   2   5
ATOM      5  C   UNL     1       4.411   4.610  17.576  0.00  0.00    +0.000 A 
ATOM      6  C   UNL     1       4.646   4.296  16.228  0.00  0.00    +0.000 A 
ATOM      7  C   UNL     1       5.947   4.206  15.733  0.00  0.00    +0.000 A 
ATOM      8  C   UNL     1       6.201   3.855  14.296  0.00  0.00    +0.000 C 
ATOM      9  C   UNL     1       7.021   4.462  16.596  0.00  0.00    +0.000 A 
ATOM     10  C   UNL     1       6.812   4.778  17.945  0.00  0.00    +0.000 A 
ATOM     11  C   UNL     1       5.499   4.844  18.435  0.00  0.00    +0.000 A 
BRANCH  10  12
ATOM     12  O   UNL     1       7.953   5.095  18.630  0.00  0.00    +0.000 OA
ATOM     13  C   UNL     1       8.188   6.466  18.927  0.00  0.00    +0.000 C 
ENDBRANCH  10  12
BRANCH  11  14
ATOM     14  O   UNL     1       5.253   5.212  19.730  0.00  0.00    +0.000 OA
ATOM     15  H   UNL     1       4.394   5.671  19.705  0.00  0.00    +0.000 HD
ENDBRANCH  11  14
ENDBRANCH   2   5
BRANCH   1  16
ATOM     16  C   UNL     1       1.452   5.100  19.950  0.00  0.00    +0.000 C 
BRANCH  16  17
ATOM     17  C   UNL     1       1.166   3.795  20.750  0.00  0.00    +0.000 C 
ATOM     18  C   UNL     1       2.300   3.307  21.640  0.00  0.00    +0.000 C 
ATOM     19  C   UNL     1       3.182   2.540  20.681  0.00  0.00    +0.000 C 
ATOM     20  O   UNL     1       2.303   1.969  19.702  0.00  0.00    +0.000 OA
ATOM     21  C   UNL     1       1.008   2.570  19.849  0.00  0.00    +0.000 C 
ENDBRANCH  16  17
BRANCH  16  23
ATOM     22  C   UNL     1       1.869   7.625  20.240  0.00  0.00    +0.000 C 
ATOM     23  C   UNL     1       1.392   6.332  20.886  0.00  0.00    +0.000 C 
ENDBRANCH  16  23
ENDBRANCH   1  16
TORSDOF 6
ENDMDL
MODEL 8
REMARK VINA RESULT:      -6.7      1.044      1.117
REMARK  Name = 
REMARK  9 active torsions:
REMARK  status: ('A' for Active; 'I' for Inactive)
REMARK    1  A    between atoms: C_1  and  C_2
REMARK    2  A    between atoms: C_2  and  C_3
REMARK    3  A    between atoms: C_3  and  N_4
REMARK    4  A    between atoms: C_3  and  C_17
REMARK    5  A    between atoms: C_5  and  C_7
REMARK    6  A    between atoms: C_9  and  C_10
REMARK    7  A    between atoms: C_12  and  O_13
REMARK    8  A    between atoms: O_13  and  C_14
REMARK    9  A    between atoms: C_15  and  O_16
REMARK                            x       y       z     vdW  Elec       q    Type
REMARK                         _______ _______ _______ _____ _____    ______ ____
ROOT
ATOM      1  N   UNL     1       2.923   4.531  18.832  0.00  0.00    +0.000 N 
ATOM      2  C   UNL     1       3.105   4.290  17.490  0.00  0.00    +0.000 C 
ATOM      3  O   UNL     1       2.225   3.856  16.751  0.00  0.00    +0.000 OA
ATOM      4  H   UNL     1       3.705   4.937  19.337  0.00  0.00    +0.000 HD
ENDROOT
BRANCH   2   5
ATOM      5  C   UNL     1       4.479   4.519  16.956  0.00  0.00    +0.000 A 
ATOM      6  C   UNL     1       4.729   4.110  15.636  0.00  0.00    +0.000 A 
ATOM      7  C   UNL     1       5.972   4.331  15.044  0.00  0.00    +0.000 A 
ATOM      8  C   UNL     1       6.246   3.881  13.638  0.00  0.00    +0.000 C 
ATOM      9  C   UNL     1       6.965   4.994  15.777  0.00  0.00    +0.000 A 
ATOM     10  C   UNL     1       6.740   5.412  17.095  0.00  0.00    +0.000 A 
ATOM     11  C   UNL     1       5.492   5.164  17.686  0.00  0.00    +0.000 A 
BRANCH  10  12
ATOM     12  O   UNL     1       7.770   6.129  17.640  0.00  0.00    +0.000 OA
ATOM     13  C   UNL     1       7.689   7.548  17.589  0.00  0.00    +0.000 C 
ENDBRANCH  10  12
BRANCH  11  14
ATOM     14  O   UNL     1       5.214   5.614  18.948  0.00  0.00    +0.000 OA
ATOM     15  H   UNL     1       4.254   5.493  19.056  0.00  0.00    +0.000 HD
ENDBRANCH  11  14
ENDBRANCH   2   5
BRANCH   1  16
ATOM     16  C   UNL     1       1.678   4.258  19.547  0.00  0.00    +0.000 C 
BRANCH  16  17
ATOM     17  C   UNL     1       1.737   2.863  20.236  0.00  0.00    +0.000 C 
ATOM     18  C   UNL     1       2.801   2.705  21.312  0.00  0.00    +0.000 C 
ATOM     19  C   UNL     1       4.045   2.379  20.518  0.00  0.00    +0.000 C 
ATOM     20  O   UNL     1       3.602   1.641  19.370  0.00  0.00    +0.000 OA
ATOM     21  C   UNL     1       2.174   1.750  19.284  0.00  0.00    +0.000 C 
ENDBRANCH  16  17
BRANCH  16  23
ATOM     22  C   UNL     1       2.051   6.718  20.216  0.00  0.00    +0.000 C 
ATOM     23  C   UNL     1       1.452   5.372  20.600  0.00  0.00    +0.000 C 
ENDBRANCH  16  23
ENDBRANCH   1  16
TORSDOF 6
ENDMDL
MODEL 9
REMARK VINA RESULT:      -6.7      3.687      6.904
REMARK  Name = 
REMARK  9 active torsions:
REMARK  status: ('A' for Active; 'I' for Inactive)
REMARK    1  A    between atoms: C_1  and  C_2
REMARK    2  A    between atoms: C_2  and  C_3
REMARK    3  A    between atoms: C_3  and  N_4
REMARK    4  A    between atoms: C_3  and  C_17
REMARK    5  A    between atoms: C_5  and  C_7
REMARK    6  A    between atoms: C_9  and  C_10
REMARK    7  A    between atoms: C_12  and  O_13
REMARK    8  A    between atoms: O_13  and  C_14
REMARK    9  A    between atoms: C_15  and  O_16
REMARK                            x       y       z     vdW  Elec       q    Type
REMARK                         _______ _______ _______ _____ _____    ______ ____
ROOT
ATOM      1  N   UNL     1       2.640   6.602  18.219  0.00  0.00    +0.000 N 
ATOM      2  C   UNL     1       2.486   7.944  17.960  0.00  0.00    +0.000 C 
ATOM      3  O   UNL     1       3.122   8.547  17.099  0.00  0.00    +0.000 OA
ATOM      4  H   UNL     1       2.027   6.195  18.920  0.00  0.00    +0.000 HD
ENDROOT
BRANCH   2   5
ATOM      5  C   UNL     1       1.535   8.683  18.839  0.00  0.00    +0.000 A 
ATOM      6  C   UNL     1       0.683   9.612  18.220  0.00  0.00    +0.000 A 
ATOM      7  C   UNL     1      -0.269  10.311  18.962  0.00  0.00    +0.000 A 
ATOM      8  C   UNL     1      -1.171  11.316  18.306  0.00  0.00    +0.000 C 
ATOM      9  C   UNL     1      -0.385  10.052  20.334  0.00  0.00    +0.000 A 
ATOM     10  C   UNL     1       0.453   9.130  20.974  0.00  0.00    +0.000 A 
ATOM     11  C   UNL     1       1.421   8.450  20.220  0.00  0.00    +0.000 A 
BRANCH  10  12
ATOM     12  O   UNL     1       0.151   8.918  22.292  0.00  0.00    +0.000 OA
ATOM     13  C   UNL     1      -0.406  10.002  23.026  0.00  0.00    +0.000 C 
ENDBRANCH  10  12
BRANCH  11  14
ATOM     14  O   UNL     1       2.214   7.495  20.798  0.00  0.00    +0.000 OA
ATOM     15  H   UNL     1       1.599   6.907  21.272  0.00  0.00    +0.000 HD
ENDBRANCH  11  14
ENDBRANCH   2   5
BRANCH   1  16
ATOM     16  C   UNL     1       3.606   5.745  17.534  0.00  0.00    +0.000 C 
BRANCH  16  17
ATOM     17  C   UNL     1       5.005   5.849  18.208  0.00  0.00    +0.000 C 
ATOM     18  C   UNL     1       6.049   6.644  17.438  0.00  0.00    +0.000 C 
ATOM     19  C   UNL     1       6.587   5.634  16.450  0.00  0.00    +0.000 C 
ATOM     20  O   UNL     1       6.518   4.359  17.105  0.00  0.00    +0.000 OA
ATOM     21  C   UNL     1       5.724   4.503  18.292  0.00  0.00    +0.000 C 
ENDBRANCH  16  17
BRANCH  16  23
ATOM     22  C   UNL     1       1.588   4.159  17.759  0.00  0.00    +0.000 C 
ATOM     23  C   UNL     1       3.094   4.283  17.575  0.00  0.00    +0.000 C 
ENDBRANCH  16  23
ENDBRANCH   1  16
TORSDOF 6
ENDMDL
