MODEL 1
REMARK VINA RESULT:      -9.3      0.000      0.000
REMARK  Name = 
REMARK  7 active torsions:
REMARK  status: ('A' for Active; 'I' for Inactive)
REMARK    1  A    between atoms: C_1  and  O_2
REMARK    2  A    between atoms: O_2  and  C_3
REMARK    3  A    between atoms: C_5  and  N_6
REMARK    4  A    between atoms: C_21  and  N_22
REMARK    5  A    between atoms: C_23  and  C_25
REMARK    6  A    between atoms: C_25  and  C_26
REMARK    7  A    between atoms: C_29  and  C_30
REMARK                            x       y       z     vdW  Elec       q    Type
REMARK                         _______ _______ _______ _____ _____    ______ ____
ROOT
ATOM      1  C   UNL     1       1.661   8.272  20.110  0.00  0.00    +0.000 A 
ATOM      2  C   UNL     1       2.327   7.107  19.685  0.00  0.00    +0.000 A 
ATOM      3  C   UNL     1       2.627   6.899  18.336  0.00  0.00    +0.000 A 
ATOM      4  C   UNL     1       2.325   7.909  17.421  0.00  0.00    +0.000 A 
ATOM      5  C   UNL     1       1.733   9.102  17.848  0.00  0.00    +0.000 A 
ATOM      6  C   UNL     1       1.388   9.296  19.187  0.00  0.00    +0.000 A 
ENDROOT
BRANCH   3   7
ATOM      7  N   UNL     1       3.262   5.703  17.890  0.00  0.00    +0.000 N 
ATOM      8  C   UNL     1       2.719   4.449  18.009  0.00  0.00    +0.000 A 
ATOM      9  C   UNL     1       3.519   3.522  17.432  0.00  0.00    +0.000 A 
ATOM     10  C   UNL     1       4.649   4.161  16.957  0.00  0.00    +0.000 A 
ATOM     11  N   UNL     1       5.711   3.619  16.331  0.00  0.00    +0.000 NA
ATOM     12  C   UNL     1       6.647   4.511  16.016  0.00  0.00    +0.000 A 
ATOM     13  N   UNL     1       6.633   5.828  16.262  0.00  0.00    +0.000 NA
ATOM     14  C   UNL     1       5.575   6.367  16.897  0.00  0.00    +0.000 A 
ATOM     15  N   UNL     1       5.698   7.721  17.176  0.00  0.00    +0.000 N 
ATOM     16  C   UNL     1       4.508   5.533  17.245  0.00  0.00    +0.000 A 
ATOM     17  C   UNL     1       2.874   2.218  17.474  0.00  0.00    +0.000 C 
ATOM     18  O   UNL     1       1.510   2.501  17.937  0.00  0.00    +0.000 OA
ATOM     19  C   UNL     1       1.443   3.875  18.455  0.00  0.00    +0.000 C 
ATOM     20  H   UNL     1       6.655   7.999  16.972  0.00  0.00    +0.000 HD
ATOM     21  H   UNL     1       5.387   7.967  18.107  0.00  0.00    +0.000 HD
ENDBRANCH   3   7
BRANCH   6  22
ATOM     22  N   UNL     1       0.812  10.515  19.637  0.00  0.00    +0.000 N 
ATOM     23  C   UNL     1      -0.473  10.963  19.373  0.00  0.00    +0.000 C 
ATOM     24  O   UNL     1      -1.378  10.300  18.866  0.00  0.00    +0.000 OA
ATOM     25  H   UNL     1       1.403  11.055  20.263  0.00  0.00    +0.000 HD
BRANCH  23  26
ATOM     26  C   UNL     1      -0.738  12.398  19.778  0.00  0.00    +0.000 C 
BRANCH  26  27
ATOM     27  C   UNL     1      -1.640  12.525  20.974  0.00  0.00    +0.000 A 
ATOM     28  C   UNL     1      -1.273  11.993  22.211  0.00  0.00    +0.000 A 
ATOM     29  C   UNL     1      -2.106  12.165  23.313  0.00  0.00    +0.000 A 
ATOM     30  C   UNL     1      -3.298  12.878  23.168  0.00  0.00    +0.000 A 
ATOM     31  N   UNL     1      -3.668  13.404  21.966  0.00  0.00    +0.000 NA
ATOM     32  C   UNL     1      -2.842  13.224  20.910  0.00  0.00    +0.000 A 
BRANCH  30  33
ATOM     33  C   UNL     1      -4.201  13.091  24.377  0.00  0.00    +0.000 C 
ATOM     34  F   UNL     1      -3.599  13.807  25.376  0.00  0.00    +0.000 F 
ATOM     35  F   UNL     1      -5.340  13.781  24.081  0.00  0.00    +0.000 F 
ATOM     36  F   UNL     1      -4.602  11.926  24.962  0.00  0.00    +0.000 F 
ENDBRANCH  30  33
ENDBRANCH  26  27
ENDBRANCH  23  26
ENDBRANCH   6  22
BRANCH   1  38
ATOM     37  C   UNL     1      -0.100   8.149  21.683  0.00  0.00    +0.000 C 
ATOM     38  O   UNL     1       1.270   8.474  21.415  0.00  0.00    +0.000 OA
ENDBRANCH   1  38
TORSDOF 6
ENDMDL
MODEL 2
REMARK VINA RESULT:      -9.3      1.530      2.654
REMARK  Name = 
REMARK  7 active torsions:
REMARK  status: ('A' for Active; 'I' for Inactive)
REMARK    1  A    between atoms: C_1  and  O_2
REMARK    2  A    between atoms: O_2  and  C_3
REMARK    3  A    between atoms: C_5  and  N_6
REMARK    4  A    between atoms: C_21  and  N_22
REMARK    5  A    between atoms: C_23  and  C_25
REMARK    6  A    between atoms: C_25  and  C_26
REMARK    7  A    between atoms: C_29  and  C_30
REMARK                            x       y       z     vdW  Elec       q    Type
REMARK                         _______ _______ _______ _____ _____    ______ ____
ROOT
ATOM      1  C   UNL     1       1.573   8.292  20.257  0.00  0.00    +0.000 A 
ATOM      2  C   UNL     1       2.275   7.148  19.833  0.00  0.00    +0.000 A 
ATOM      3  C   UNL     1       2.562   6.936  18.482  0.00  0.00    +0.000 A 
ATOM      4  C   UNL     1       2.209   7.923  17.562  0.00  0.00    +0.000 A 
ATOM      5  C   UNL     1       1.580   9.099  17.985  0.00  0.00    +0.000 A 
ATOM      6  C   UNL     1       1.248   9.295  19.327  0.00  0.00    +0.000 A 
ENDROOT
BRANCH   3   7
ATOM      7  N   UNL     1       3.234   5.759  18.039  0.00  0.00    +0.000 N 
ATOM      8  C   UNL     1       4.294   5.756  17.169  0.00  0.00    +0.000 A 
ATOM      9  C   UNL     1       4.768   4.500  16.992  0.00  0.00    +0.000 A 
ATOM     10  C   UNL     1       3.976   3.633  17.722  0.00  0.00    +0.000 A 
ATOM     11  N   UNL     1       4.079   2.294  17.818  0.00  0.00    +0.000 NA
ATOM     12  C   UNL     1       3.144   1.749  18.594  0.00  0.00    +0.000 A 
ATOM     13  N   UNL     1       2.156   2.380  19.245  0.00  0.00    +0.000 NA
ATOM     14  C   UNL     1       2.049   3.718  19.139  0.00  0.00    +0.000 A 
ATOM     15  N   UNL     1       0.947   4.261  19.783  0.00  0.00    +0.000 N 
ATOM     16  C   UNL     1       3.000   4.407  18.380  0.00  0.00    +0.000 A 
ATOM     17  C   UNL     1       5.956   4.534  16.153  0.00  0.00    +0.000 C 
ATOM     18  O   UNL     1       6.274   5.961  16.029  0.00  0.00    +0.000 OA
ATOM     19  C   UNL     1       5.137   6.761  16.508  0.00  0.00    +0.000 C 
ATOM     20  H   UNL     1       0.347   3.495  20.081  0.00  0.00    +0.000 HD
ATOM     21  H   UNL     1       0.471   4.967  19.235  0.00  0.00    +0.000 HD
ENDBRANCH   3   7
BRANCH   6  22
ATOM     22  N   UNL     1       0.635  10.497  19.773  0.00  0.00    +0.000 N 
ATOM     23  C   UNL     1      -0.641  10.936  19.452  0.00  0.00    +0.000 C 
ATOM     24  O   UNL     1      -1.510  10.273  18.886  0.00  0.00    +0.000 OA
ATOM     25  H   UNL     1       1.186  11.030  20.439  0.00  0.00    +0.000 HD
BRANCH  23  26
ATOM     26  C   UNL     1      -0.944  12.358  19.874  0.00  0.00    +0.000 C 
BRANCH  26  27
ATOM     27  C   UNL     1      -1.999  12.454  20.940  0.00  0.00    +0.000 A 
ATOM     28  C   UNL     1      -1.743  12.033  22.245  0.00  0.00    +0.000 A 
ATOM     29  C   UNL     1      -2.723  12.175  23.225  0.00  0.00    +0.000 A 
ATOM     30  C   UNL     1      -3.951  12.749  22.887  0.00  0.00    +0.000 A 
ATOM     31  N   UNL     1      -4.214  13.166  21.617  0.00  0.00    +0.000 NA
ATOM     32  C   UNL     1      -3.246  13.017  20.684  0.00  0.00    +0.000 A 
BRANCH  30  33
ATOM     33  C   UNL     1      -5.017  12.930  23.961  0.00  0.00    +0.000 C 
ATOM     34  F   UNL     1      -4.726  12.269  25.123  0.00  0.00    +0.000 F 
ATOM     35  F   UNL     1      -5.194  14.233  24.327  0.00  0.00    +0.000 F 
ATOM     36  F   UNL     1      -6.244  12.470  23.585  0.00  0.00    +0.000 F 
ENDBRANCH  30  33
ENDBRANCH  26  27
ENDBRANCH  23  26
ENDBRANCH   6  22
BRANCH   1  38
ATOM     37  C   UNL     1      -0.181   8.200  21.839  0.00  0.00    +0.000 C 
ATOM     38  O   UNL     1       1.194   8.495  21.565  0.00  0.00    +0.000 OA
ENDBRANCH   1  38
TORSDOF 6
ENDMDL
MODEL 3
REMARK VINA RESULT:      -9.2      1.906      2.962
REMARK  Name = 
REMARK  7 active torsions:
REMARK  status: ('A' for Active; 'I' for Inactive)
REMARK    1  A    between atoms: C_1  and  O_2
REMARK    2  A    between atoms: O_2  and  C_3
REMARK    3  A    between atoms: C_5  and  N_6
REMARK    4  A    between atoms: C_21  and  N_22
REMARK    5  A    between atoms: C_23  and  C_25
REMARK    6  A    between atoms: C_25  and  C_26
REMARK    7  A    between atoms: C_29  and  C_30
REMARK                            x       y       z     vdW  Elec       q    Type
REMARK                         _______ _______ _______ _____ _____    ______ ____
ROOT
ATOM      1  C   UNL     1       1.296   8.728  20.352  0.00  0.00    +0.000 A 
ATOM      2  C   UNL     1       2.170   7.633  20.222  0.00  0.00    +0.000 A 
ATOM      3  C   UNL     1       2.634   7.224  18.969  0.00  0.00    +0.000 A 
ATOM      4  C   UNL     1       2.277   7.974  17.848  0.00  0.00    +0.000 A 
ATOM      5  C   UNL     1       1.471   9.110  17.978  0.00  0.00    +0.000 A 
ATOM      6  C   UNL     1       0.966   9.496  19.222  0.00  0.00    +0.000 A 
ENDROOT
BRANCH   3   7
ATOM      7  N   UNL     1       3.485   6.089  18.823  0.00  0.00    +0.000 N 
ATOM      8  C   UNL     1       4.618   6.067  18.051  0.00  0.00    +0.000 A 
ATOM      9  C   UNL     1       5.257   4.879  18.166  0.00  0.00    +0.000 A 
ATOM     10  C   UNL     1       4.509   4.066  18.998  0.00  0.00    +0.000 A 
ATOM     11  N   UNL     1       4.764   2.797  19.370  0.00  0.00    +0.000 NA
ATOM     12  C   UNL     1       3.830   2.286  20.169  0.00  0.00    +0.000 A 
ATOM     13  N   UNL     1       2.714   2.886  20.606  0.00  0.00    +0.000 NA
ATOM     14  C   UNL     1       2.455   4.152  20.224  0.00  0.00    +0.000 A 
ATOM     15  N   UNL     1       1.237   4.648  20.663  0.00  0.00    +0.000 N 
ATOM     16  C   UNL     1       3.385   4.808  19.413  0.00  0.00    +0.000 A 
ATOM     17  C   UNL     1       6.509   4.918  17.426  0.00  0.00    +0.000 C 
ATOM     18  O   UNL     1       6.661   6.325  17.040  0.00  0.00    +0.000 OA
ATOM     19  C   UNL     1       5.393   7.035  17.263  0.00  0.00    +0.000 C 
ATOM     20  H   UNL     1       0.708   3.878  21.065  0.00  0.00    +0.000 HD
ATOM     21  H   UNL     1       0.735   5.164  19.951  0.00  0.00    +0.000 HD
ENDBRANCH   3   7
BRANCH   6  22
ATOM     22  N   UNL     1       0.170  10.663  19.371  0.00  0.00    +0.000 N 
ATOM     23  C   UNL     1      -1.124  10.840  18.905  0.00  0.00    +0.000 C 
ATOM     24  O   UNL     1      -1.855   9.957  18.453  0.00  0.00    +0.000 OA
ATOM     25  H   UNL     1       0.595  11.395  19.933  0.00  0.00    +0.000 HD
BRANCH  23  26
ATOM     26  C   UNL     1      -1.640  12.260  18.997  0.00  0.00    +0.000 C 
BRANCH  26  27
ATOM     27  C   UNL     1      -2.512  12.503  20.198  0.00  0.00    +0.000 A 
ATOM     28  C   UNL     1      -3.897  12.614  20.070  0.00  0.00    +0.000 A 
ATOM     29  C   UNL     1      -4.685  12.794  21.204  0.00  0.00    +0.000 A 
ATOM     30  C   UNL     1      -4.077  12.852  22.460  0.00  0.00    +0.000 A 
ATOM     31  N   UNL     1      -2.726  12.743  22.599  0.00  0.00    +0.000 NA
ATOM     32  C   UNL     1      -1.982  12.569  21.483  0.00  0.00    +0.000 A 
BRANCH  30  33
ATOM     33  C   UNL     1      -4.937  13.023  23.706  0.00  0.00    +0.000 C 
ATOM     34  F   UNL     1      -5.110  14.333  24.062  0.00  0.00    +0.000 F 
ATOM     35  F   UNL     1      -6.199  12.524  23.560  0.00  0.00    +0.000 F 
ATOM     36  F   UNL     1      -4.414  12.417  24.810  0.00  0.00    +0.000 F 
ENDBRANCH  30  33
ENDBRANCH  26  27
ENDBRANCH  23  26
ENDBRANCH   6  22
BRANCH   1  38
ATOM     37  C   UNL     1      -0.441   8.395  21.921  0.00  0.00    +0.000 C 
ATOM     38  O   UNL     1       0.748   9.108  21.557  0.00  0.00    +0.000 OA
ENDBRANCH   1  38
TORSDOF 6
ENDMDL
MODEL 4
REMARK VINA RESULT:      -9.1      2.594      3.596
REMARK  Name = 
REMARK  7 active torsions:
REMARK  status: ('A' for Active; 'I' for Inactive)
REMARK    1  A    between atoms: C_1  and  O_2
REMARK    2  A    between atoms: O_2  and  C_3
REMARK    3  A    between atoms: C_5  and  N_6
REMARK    4  A    between atoms: C_21  and  N_22
REMARK    5  A    between atoms: C_23  and  C_25
REMARK    6  A    between atoms: C_25  and  C_26
REMARK    7  A    between atoms: C_29  and  C_30
REMARK                            x       y       z     vdW  Elec       q    Type
REMARK                         _______ _______ _______ _____ _____    ______ ____
ROOT
ATOM      1  C   UNL     1       1.168   8.525  20.096  0.00  0.00    +0.000 A 
ATOM      2  C   UNL     1       2.089   7.461  20.077  0.00  0.00    +0.000 A 
ATOM      3  C   UNL     1       2.733   7.085  18.896  0.00  0.00    +0.000 A 
ATOM      4  C   UNL     1       2.507   7.839  17.743  0.00  0.00    +0.000 A 
ATOM      5  C   UNL     1       1.652   8.945  17.772  0.00  0.00    +0.000 A 
ATOM      6  C   UNL     1       0.969   9.297  18.938  0.00  0.00    +0.000 A 
ENDROOT
BRANCH   3   7
ATOM      7  N   UNL     1       3.635   5.982  18.858  0.00  0.00    +0.000 N 
ATOM      8  C   UNL     1       4.814   5.971  18.157  0.00  0.00    +0.000 A 
ATOM      9  C   UNL     1       5.491   4.818  18.370  0.00  0.00    +0.000 A 
ATOM     10  C   UNL     1       4.724   4.013  19.193  0.00  0.00    +0.000 A 
ATOM     11  N   UNL     1       5.004   2.775  19.641  0.00  0.00    +0.000 NA
ATOM     12  C   UNL     1       4.043   2.263  20.406  0.00  0.00    +0.000 A 
ATOM     13  N   UNL     1       2.879   2.835  20.744  0.00  0.00    +0.000 NA
ATOM     14  C   UNL     1       2.596   4.070  20.286  0.00  0.00    +0.000 A 
ATOM     15  N   UNL     1       1.334   4.535  20.626  0.00  0.00    +0.000 N 
ATOM     16  C   UNL     1       3.549   4.726  19.502  0.00  0.00    +0.000 A 
ATOM     17  C   UNL     1       6.784   4.874  17.706  0.00  0.00    +0.000 C 
ATOM     18  O   UNL     1       6.905   6.267  17.261  0.00  0.00    +0.000 OA
ATOM     19  C   UNL     1       5.599   6.933  17.372  0.00  0.00    +0.000 C 
ATOM     20  H   UNL     1       0.812   3.763  21.032  0.00  0.00    +0.000 HD
ATOM     21  H   UNL     1       0.858   4.995  19.859  0.00  0.00    +0.000 HD
ENDBRANCH   3   7
BRANCH   6  22
ATOM     22  N   UNL     1       0.119  10.434  18.987  0.00  0.00    +0.000 N 
ATOM     23  C   UNL     1      -1.029  10.636  18.235  0.00  0.00    +0.000 C 
ATOM     24  O   UNL     1      -1.596   9.789  17.544  0.00  0.00    +0.000 OA
ATOM     25  H   UNL     1       0.369  11.117  19.697  0.00  0.00    +0.000 HD
BRANCH  23  26
ATOM     26  C   UNL     1      -1.602  12.035  18.320  0.00  0.00    +0.000 C 
BRANCH  26  27
ATOM     27  C   UNL     1      -2.932  12.095  19.018  0.00  0.00    +0.000 A 
ATOM     28  C   UNL     1      -3.054  12.666  20.285  0.00  0.00    +0.000 A 
ATOM     29  C   UNL     1      -4.306  12.750  20.890  0.00  0.00    +0.000 A 
ATOM     30  C   UNL     1      -5.428  12.268  20.213  0.00  0.00    +0.000 A 
ATOM     31  N   UNL     1      -5.324  11.709  18.974  0.00  0.00    +0.000 NA
ATOM     32  C   UNL     1      -4.097  11.639  18.408  0.00  0.00    +0.000 A 
BRANCH  30  33
ATOM     33  C   UNL     1      -6.803  12.381  20.859  0.00  0.00    +0.000 C 
ATOM     34  F   UNL     1      -7.610  11.307  20.594  0.00  0.00    +0.000 F 
ATOM     35  F   UNL     1      -6.752  12.460  22.220  0.00  0.00    +0.000 F 
ATOM     36  F   UNL     1      -7.509  13.470  20.441  0.00  0.00    +0.000 F 
ENDBRANCH  30  33
ENDBRANCH  26  27
ENDBRANCH  23  26
ENDBRANCH   6  22
BRANCH   1  38
ATOM     37  C   UNL     1       1.245   9.235  22.349  0.00  0.00    +0.000 C 
ATOM     38  O   UNL     1       0.447   8.869  21.217  0.00  0.00    +0.000 OA
ENDBRANCH   1  38
TORSDOF 6
ENDMDL
MODEL 5
REMARK VINA RESULT:      -8.9      2.053      3.017
REMARK  Name = 
REMARK  7 active torsions:
REMARK  status: ('A' for Active; 'I' for Inactive)
REMARK    1  A    between atoms: C_1  and  O_2
REMARK    2  A    between atoms: O_2  and  C_3
REMARK    3  A    between atoms: C_5  and  N_6
REMARK    4  A    between atoms: C_21  and  N_22
REMARK    5  A    between atoms: C_23  and  C_25
REMARK    6  A    between atoms: C_25  and  C_26
REMARK    7  A    between atoms: C_29  and  C_30
REMARK                            x       y       z     vdW  Elec       q    Type
REMARK                         _______ _______ _______ _____ _____    ______ ____
ROOT
ATOM      1  C   UNL     1       1.328   8.853  19.921  0.00  0.00    +0.000 A 
ATOM      2  C   UNL     1       2.189   7.741  19.978  0.00  0.00    +0.000 A 
ATOM      3  C   UNL     1       2.724   7.183  18.815  0.00  0.00    +0.000 A 
ATOM      4  C   UNL     1       2.454   7.799  17.592  0.00  0.00    +0.000 A 
ATOM      5  C   UNL     1       1.660   8.950  17.536  0.00  0.00    +0.000 A 
ATOM      6  C   UNL     1       1.084   9.485  18.690  0.00  0.00    +0.000 A 
ENDROOT
BRANCH   3   7
ATOM      7  N   UNL     1       3.563   6.030  18.859  0.00  0.00    +0.000 N 
ATOM      8  C   UNL     1       4.771   5.929  18.216  0.00  0.00    +0.000 A 
ATOM      9  C   UNL     1       5.370   4.749  18.502  0.00  0.00    +0.000 A 
ATOM     10  C   UNL     1       4.522   4.019  19.316  0.00  0.00    +0.000 A 
ATOM     11  N   UNL     1       4.711   2.786  19.821  0.00  0.00    +0.000 NA
ATOM     12  C   UNL     1       3.689   2.357  20.557  0.00  0.00    +0.000 A 
ATOM     13  N   UNL     1       2.545   3.005  20.819  0.00  0.00    +0.000 NA
ATOM     14  C   UNL     1       2.353   4.235  20.304  0.00  0.00    +0.000 A 
ATOM     15  N   UNL     1       1.105   4.781  20.566  0.00  0.00    +0.000 N 
ATOM     16  C   UNL     1       3.377   4.807  19.543  0.00  0.00    +0.000 A 
ATOM     17  C   UNL     1       6.693   4.708  17.899  0.00  0.00    +0.000 C 
ATOM     18  O   UNL     1       6.913   6.074  17.411  0.00  0.00    +0.000 OA
ATOM     19  C   UNL     1       5.644   6.815  17.435  0.00  0.00    +0.000 C 
ATOM     20  H   UNL     1       0.522   4.055  20.974  0.00  0.00    +0.000 HD
ATOM     21  H   UNL     1       0.692   5.237  19.762  0.00  0.00    +0.000 HD
ENDBRANCH   3   7
BRANCH   6  22
ATOM     22  N   UNL     1       0.300  10.669  18.648  0.00  0.00    +0.000 N 
ATOM     23  C   UNL     1       0.713  11.940  19.018  0.00  0.00    +0.000 C 
ATOM     24  O   UNL     1       1.870  12.280  19.265  0.00  0.00    +0.000 OA
ATOM     25  H   UNL     1      -0.624  10.550  18.243  0.00  0.00    +0.000 HD
BRANCH  23  26
ATOM     26  C   UNL     1      -0.397  12.967  19.096  0.00  0.00    +0.000 C 
BRANCH  26  27
ATOM     27  C   UNL     1      -1.259  12.826  20.320  0.00  0.00    +0.000 A 
ATOM     28  C   UNL     1      -0.697  12.552  21.567  0.00  0.00    +0.000 A 
ATOM     29  C   UNL     1      -1.513  12.471  22.692  0.00  0.00    +0.000 A 
ATOM     30  C   UNL     1      -2.889  12.675  22.558  0.00  0.00    +0.000 A 
ATOM     31  N   UNL     1      -3.451  12.945  21.345  0.00  0.00    +0.000 NA
ATOM     32  C   UNL     1      -2.636  13.018  20.268  0.00  0.00    +0.000 A 
BRANCH  30  33
ATOM     33  C   UNL     1      -3.783  12.613  23.790  0.00  0.00    +0.000 C 
ATOM     34  F   UNL     1      -3.635  11.454  24.502  0.00  0.00    +0.000 F 
ATOM     35  F   UNL     1      -3.537  13.615  24.683  0.00  0.00    +0.000 F 
ATOM     36  F   UNL     1      -5.113  12.685  23.495  0.00  0.00    +0.000 F 
ENDBRANCH  30  33
ENDBRANCH  26  27
ENDBRANCH  23  26
ENDBRANCH   6  22
BRANCH   1  38
ATOM     37  C   UNL     1      -0.288   8.529  21.617  0.00  0.00    +0.000 C 
ATOM     38  O   UNL     1       0.710   9.377  21.035  0.00  0.00    +0.000 OA
ENDBRANCH   1  38
TORSDOF 6
ENDMDL
MODEL 6
REMARK VINA RESULT:      -8.7      3.015      4.087
REMARK  Name = 
REMARK  7 active torsions:
REMARK  status: ('A' for Active; 'I' for Inactive)
REMARK    1  A    between atoms: C_1  and  O_2
REMARK    2  A    between atoms: O_2  and  C_3
REMARK    3  A    between atoms: C_5  and  N_6
REMARK    4  A    between atoms: C_21  and  N_22
REMARK    5  A    between atoms: C_23  and  C_25
REMARK    6  A    between atoms: C_25  and  C_26
REMARK    7  A    between atoms: C_29  and  C_30
REMARK                            x       y       z     vdW  Elec       q    Type
REMARK                         _______ _______ _______ _____ _____    ______ ____
ROOT
ATOM      1  C   UNL     1       1.338   8.546  20.147  0.00  0.00    +0.000 A 
ATOM      2  C   UNL     1       2.197   7.431  20.128  0.00  0.00    +0.000 A 
ATOM      3  C   UNL     1       2.836   7.032  18.951  0.00  0.00    +0.000 A 
ATOM      4  C   UNL     1       2.671   7.810  17.804  0.00  0.00    +0.000 A 
ATOM      5  C   UNL     1       1.879   8.963  17.835  0.00  0.00    +0.000 A 
ATOM      6  C   UNL     1       1.201   9.340  18.995  0.00  0.00    +0.000 A 
ENDROOT
BRANCH   3   7
ATOM      7  N   UNL     1       3.674   5.879  18.912  0.00  0.00    +0.000 N 
ATOM      8  C   UNL     1       4.859   5.807  18.225  0.00  0.00    +0.000 A 
ATOM      9  C   UNL     1       5.465   4.615  18.434  0.00  0.00    +0.000 A 
ATOM     10  C   UNL     1       4.644   3.848  19.240  0.00  0.00    +0.000 A 
ATOM     11  N   UNL     1       4.848   2.592  19.680  0.00  0.00    +0.000 NA
ATOM     12  C   UNL     1       3.850   2.129  20.429  0.00  0.00    +0.000 A 
ATOM     13  N   UNL     1       2.716   2.764  20.759  0.00  0.00    +0.000 NA
ATOM     14  C   UNL     1       2.510   4.017  20.311  0.00  0.00    +0.000 A 
ATOM     15  N   UNL     1       1.273   4.550  20.640  0.00  0.00    +0.000 N 
ATOM     16  C   UNL     1       3.508   4.625  19.543  0.00  0.00    +0.000 A 
ATOM     17  C   UNL     1       6.767   4.603  17.785  0.00  0.00    +0.000 C 
ATOM     18  O   UNL     1       6.973   5.991  17.355  0.00  0.00    +0.000 OA
ATOM     19  C   UNL     1       5.706   6.729  17.458  0.00  0.00    +0.000 C 
ATOM     20  H   UNL     1       0.702   3.806  21.033  0.00  0.00    +0.000 HD
ATOM     21  H   UNL     1       0.833   5.044  19.873  0.00  0.00    +0.000 HD
ENDBRANCH   3   7
BRANCH   6  22
ATOM     22  N   UNL     1       0.417  10.525  19.046  0.00  0.00    +0.000 N 
ATOM     23  C   UNL     1       0.867  11.817  18.821  0.00  0.00    +0.000 C 
ATOM     24  O   UNL     1       1.966  12.129  18.362  0.00  0.00    +0.000 OA
ATOM     25  H   UNL     1      -0.575  10.368  19.201  0.00  0.00    +0.000 HD
BRANCH  23  26
ATOM     26  C   UNL     1      -0.128  12.902  19.173  0.00  0.00    +0.000 C 
BRANCH  26  27
ATOM     27  C   UNL     1      -1.560  12.496  18.954  0.00  0.00    +0.000 A 
ATOM     28  C   UNL     1      -1.949  11.835  17.789  0.00  0.00    +0.000 A 
ATOM     29  C   UNL     1      -3.272  11.429  17.632  0.00  0.00    +0.000 A 
ATOM     30  C   UNL     1      -4.193  11.683  18.651  0.00  0.00    +0.000 A 
ATOM     31  N   UNL     1      -3.825  12.327  19.794  0.00  0.00    +0.000 NA
ATOM     32  C   UNL     1      -2.535  12.711  19.923  0.00  0.00    +0.000 A 
BRANCH  30  33
ATOM     33  C   UNL     1      -5.636  11.219  18.495  0.00  0.00    +0.000 C 
ATOM     34  F   UNL     1      -5.770   9.858  18.546  0.00  0.00    +0.000 F 
ATOM     35  F   UNL     1      -6.461  11.696  19.470  0.00  0.00    +0.000 F 
ATOM     36  F   UNL     1      -6.196  11.589  17.308  0.00  0.00    +0.000 F 
ENDBRANCH  30  33
ENDBRANCH  26  27
ENDBRANCH  23  26
ENDBRANCH   6  22
BRANCH   1  38
ATOM     37  C   UNL     1       1.425   9.311  22.382  0.00  0.00    +0.000 C 
ATOM     38  O   UNL     1       0.622   8.918  21.262  0.00  0.00    +0.000 OA
ENDBRANCH   1  38
TORSDOF 6
ENDMDL
MODEL 7
REMARK VINA RESULT:      -8.7      0.652      1.092
REMARK  Name = 
REMARK  7 active torsions:
REMARK  status: ('A' for Active; 'I' for Inactive)
REMARK    1  A    between atoms: C_1  and  O_2
REMARK    2  A    between atoms: O_2  and  C_3
REMARK    3  A    between atoms: C_5  and  N_6
REMARK    4  A    between atoms: C_21  and  N_22
REMARK    5  A    between atoms: C_23  and  C_25
REMARK    6  A    between atoms: C_25  and  C_26
REMARK    7  A    between atoms: C_29  and  C_30
REMARK                            x       y       z     vdW  Elec       q    Type
REMARK                         _______ _______ _______ _____ _____    ______ ____
ROOT
ATOM      1  C   UNL     1       1.408   8.438  20.052  0.00  0.00    +0.000 A 
ATOM      2  C   UNL     1       2.082   7.261  19.677  0.00  0.00    +0.000 A 
ATOM      3  C   UNL     1       2.605   7.108  18.390  0.00  0.00    +0.000 A 
ATOM      4  C   UNL     1       2.518   8.181  17.502  0.00  0.00    +0.000 A 
ATOM      5  C   UNL     1       1.917   9.382  17.893  0.00  0.00    +0.000 A 
ATOM      6  C   UNL     1       1.351   9.524  19.162  0.00  0.00    +0.000 A 
ENDROOT
BRANCH   3   7
ATOM      7  N   UNL     1       3.252   5.903  17.987  0.00  0.00    +0.000 N 
ATOM      8  C   UNL     1       2.695   4.654  18.095  0.00  0.00    +0.000 A 
ATOM      9  C   UNL     1       3.513   3.715  17.566  0.00  0.00    +0.000 A 
ATOM     10  C   UNL     1       4.669   4.341  17.136  0.00  0.00    +0.000 A 
ATOM     11  N   UNL     1       5.754   3.784  16.566  0.00  0.00    +0.000 NA
ATOM     12  C   UNL     1       6.711   4.666  16.285  0.00  0.00    +0.000 A 
ATOM     13  N   UNL     1       6.695   5.987  16.515  0.00  0.00    +0.000 NA
ATOM     14  C   UNL     1       5.613   6.540  17.095  0.00  0.00    +0.000 A 
ATOM     15  N   UNL     1       5.732   7.896  17.363  0.00  0.00    +0.000 N 
ATOM     16  C   UNL     1       4.525   5.717  17.402  0.00  0.00    +0.000 A 
ATOM     17  C   UNL     1       2.857   2.416  17.593  0.00  0.00    +0.000 C 
ATOM     18  O   UNL     1       1.476   2.713  17.989  0.00  0.00    +0.000 OA
ATOM     19  C   UNL     1       1.395   4.093  18.488  0.00  0.00    +0.000 C 
ATOM     20  H   UNL     1       6.700   8.165  17.201  0.00  0.00    +0.000 HD
ATOM     21  H   UNL     1       5.380   8.155  18.277  0.00  0.00    +0.000 HD
ENDBRANCH   3   7
BRANCH   6  22
ATOM     22  N   UNL     1       0.763  10.748  19.580  0.00  0.00    +0.000 N 
ATOM     23  C   UNL     1      -0.482  11.232  19.207  0.00  0.00    +0.000 C 
ATOM     24  O   UNL     1      -1.350  10.600  18.605  0.00  0.00    +0.000 OA
ATOM     25  H   UNL     1       1.305  11.262  20.269  0.00  0.00    +0.000 HD
BRANCH  23  26
ATOM     26  C   UNL     1      -0.751  12.665  19.613  0.00  0.00    +0.000 C 
BRANCH  26  27
ATOM     27  C   UNL     1      -1.644  12.788  20.816  0.00  0.00    +0.000 A 
ATOM     28  C   UNL     1      -3.032  12.714  20.692  0.00  0.00    +0.000 A 
ATOM     29  C   UNL     1      -3.834  12.787  21.827  0.00  0.00    +0.000 A 
ATOM     30  C   UNL     1      -3.236  12.923  23.082  0.00  0.00    +0.000 A 
ATOM     31  N   UNL     1      -1.882  12.995  23.218  0.00  0.00    +0.000 NA
ATOM     32  C   UNL     1      -1.124  12.923  22.100  0.00  0.00    +0.000 A 
BRANCH  30  33
ATOM     33  C   UNL     1      -4.109  12.976  24.330  0.00  0.00    +0.000 C 
ATOM     34  F   UNL     1      -5.307  13.603  24.120  0.00  0.00    +0.000 F 
ATOM     35  F   UNL     1      -4.432  11.741  24.813  0.00  0.00    +0.000 F 
ATOM     36  F   UNL     1      -3.529  13.649  25.365  0.00  0.00    +0.000 F 
ENDBRANCH  30  33
ENDBRANCH  26  27
ENDBRANCH  23  26
ENDBRANCH   6  22
BRANCH   1  38
ATOM     37  C   UNL     1       1.670   9.071  22.315  0.00  0.00    +0.000 C 
ATOM     38  O   UNL     1       0.803   8.593  21.279  0.00  0.00    +0.000 OA
ENDBRANCH   1  38
TORSDOF 6
ENDMDL
MODEL 8
REMARK VINA RESULT:      -8.7      0.947      1.637
REMARK  Name = 
REMARK  7 active torsions:
REMARK  status: ('A' for Active; 'I' for Inactive)
REMARK    1  A    between atoms: C_1  and  O_2
REMARK    2  A    between atoms: O_2  and  C_3
REMARK    3  A    between atoms: C_5  and  N_6
REMARK    4  A    between atoms: C_21  and  N_22
REMARK    5  A    between atoms: C_23  and  C_25
REMARK    6  A    between atoms: C_25  and  C_26
REMARK    7  A    between atoms: C_29  and  C_30
REMARK                            x       y       z     vdW  Elec       q    Type
REMARK                         _______ _______ _______ _____ _____    ______ ____
ROOT
ATOM      1  C   UNL     1       1.847   9.136  18.259  0.00  0.00    +0.000 A 
ATOM      2  C   UNL     1       2.350   7.924  17.750  0.00  0.00    +0.000 A 
ATOM      3  C   UNL     1       2.579   6.829  18.587  0.00  0.00    +0.000 A 
ATOM      4  C   UNL     1       2.222   6.930  19.932  0.00  0.00    +0.000 A 
ATOM      5  C   UNL     1       1.650   8.106  20.430  0.00  0.00    +0.000 A 
ATOM      6  C   UNL     1       1.462   9.219  19.609  0.00  0.00    +0.000 A 
ENDROOT
BRANCH   3   7
ATOM      7  N   UNL     1       3.129   5.612  18.087  0.00  0.00    +0.000 N 
ATOM      8  C   UNL     1       2.525   4.386  18.204  0.00  0.00    +0.000 A 
ATOM      9  C   UNL     1       3.248   3.431  17.572  0.00  0.00    +0.000 A 
ATOM     10  C   UNL     1       4.389   4.021  17.060  0.00  0.00    +0.000 A 
ATOM     11  N   UNL     1       5.391   3.439  16.376  0.00  0.00    +0.000 NA
ATOM     12  C   UNL     1       6.360   4.287  16.038  0.00  0.00    +0.000 A 
ATOM     13  N   UNL     1       6.427   5.598  16.312  0.00  0.00    +0.000 NA
ATOM     14  C   UNL     1       5.429   6.176  17.005  0.00  0.00    +0.000 A 
ATOM     15  N   UNL     1       5.636   7.515  17.307  0.00  0.00    +0.000 N 
ATOM     16  C   UNL     1       4.335   5.392  17.383  0.00  0.00    +0.000 A 
ATOM     17  C   UNL     1       2.536   2.163  17.616  0.00  0.00    +0.000 C 
ATOM     18  O   UNL     1       1.211   2.507  18.145  0.00  0.00    +0.000 OA
ATOM     19  C   UNL     1       1.241   3.869  18.695  0.00  0.00    +0.000 C 
ATOM     20  H   UNL     1       6.597   7.747  17.066  0.00  0.00    +0.000 HD
ATOM     21  H   UNL     1       5.380   7.755  18.256  0.00  0.00    +0.000 HD
ENDBRANCH   3   7
BRANCH   6  22
ATOM     22  N   UNL     1       0.856  10.408  20.096  0.00  0.00    +0.000 N 
ATOM     23  C   UNL     1      -0.435  10.839  19.833  0.00  0.00    +0.000 C 
ATOM     24  O   UNL     1      -1.320  10.177  19.291  0.00  0.00    +0.000 OA
ATOM     25  H   UNL     1       1.428  10.937  20.749  0.00  0.00    +0.000 HD
BRANCH  23  26
ATOM     26  C   UNL     1      -0.735  12.252  20.288  0.00  0.00    +0.000 C 
BRANCH  26  27
ATOM     27  C   UNL     1      -1.909  12.344  21.223  0.00  0.00    +0.000 A 
ATOM     28  C   UNL     1      -1.782  12.007  22.571  0.00  0.00    +0.000 A 
ATOM     29  C   UNL     1      -2.874  12.144  23.425  0.00  0.00    +0.000 A 
ATOM     30  C   UNL     1      -4.082  12.629  22.920  0.00  0.00    +0.000 A 
ATOM     31  N   UNL     1      -4.219  12.963  21.606  0.00  0.00    +0.000 NA
ATOM     32  C   UNL     1      -3.145  12.821  20.797  0.00  0.00    +0.000 A 
BRANCH  30  33
ATOM     33  C   UNL     1      -5.272  12.806  23.855  0.00  0.00    +0.000 C 
ATOM     34  F   UNL     1      -5.143  12.107  25.025  0.00  0.00    +0.000 F 
ATOM     35  F   UNL     1      -5.469  14.102  24.235  0.00  0.00    +0.000 F 
ATOM     36  F   UNL     1      -6.451  12.384  23.314  0.00  0.00    +0.000 F 
ENDBRANCH  30  33
ENDBRANCH  26  27
ENDBRANCH  23  26
ENDBRANCH   6  22
BRANCH   1  38
ATOM     37  C   UNL     1       2.627  11.312  17.766  0.00  0.00    +0.000 C 
ATOM     38  O   UNL     1       1.691  10.264  17.486  0.00  0.00    +0.000 OA
ENDBRANCH   1  38
TORSDOF 6
ENDMDL
MODEL 9
REMARK VINA RESULT:      -8.7      2.115      3.170
REMARK  Name = 
REMARK  7 active torsions:
REMARK  status: ('A' for Active; 'I' for Inactive)
REMARK    1  A    between atoms: C_1  and  O_2
REMARK    2  A    between atoms: O_2  and  C_3
REMARK    3  A    between atoms: C_5  and  N_6
REMARK    4  A    between atoms: C_21  and  N_22
REMARK    5  A    between atoms: C_23  and  C_25
REMARK    6  A    between atoms: C_25  and  C_26
REMARK    7  A    between atoms: C_29  and  C_30
REMARK                            x       y       z     vdW  Elec       q    Type
REMARK                         _______ _______ _______ _____ _____    ______ ____
ROOT
ATOM      1  C   UNL     1       1.264   8.627  20.060  0.00  0.00    +0.000 A 
ATOM      2  C   UNL     1       2.132   7.519  20.047  0.00  0.00    +0.000 A 
ATOM      3  C   UNL     1       2.798   7.138  18.879  0.00  0.00    +0.000 A 
ATOM      4  C   UNL     1       2.651   7.928  17.738  0.00  0.00    +0.000 A 
ATOM      5  C   UNL     1       1.851   9.075  17.765  0.00  0.00    +0.000 A 
ATOM      6  C   UNL     1       1.145   9.434  18.915  0.00  0.00    +0.000 A 
ENDROOT
BRANCH   3   7
ATOM      7  N   UNL     1       3.644   5.991  18.845  0.00  0.00    +0.000 N 
ATOM      8  C   UNL     1       4.822   5.921  18.144  0.00  0.00    +0.000 A 
ATOM      9  C   UNL     1       5.440   4.736  18.361  0.00  0.00    +0.000 A 
ATOM     10  C   UNL     1       4.635   3.972  19.186  0.00  0.00    +0.000 A 
ATOM     11  N   UNL     1       4.854   2.723  19.639  0.00  0.00    +0.000 NA
ATOM     12  C   UNL     1       3.868   2.262  20.405  0.00  0.00    +0.000 A 
ATOM     13  N   UNL     1       2.734   2.892  20.741  0.00  0.00    +0.000 NA
ATOM     14  C   UNL     1       2.512   4.137  20.279  0.00  0.00    +0.000 A 
ATOM     15  N   UNL     1       1.274   4.665  20.617  0.00  0.00    +0.000 N 
ATOM     16  C   UNL     1       3.496   4.744  19.493  0.00  0.00    +0.000 A 
ATOM     17  C   UNL     1       6.735   4.726  17.697  0.00  0.00    +0.000 C 
ATOM     18  O   UNL     1       6.925   6.110  17.248  0.00  0.00    +0.000 OA
ATOM     19  C   UNL     1       5.653   6.840  17.356  0.00  0.00    +0.000 C 
ATOM     20  H   UNL     1       0.715   3.921  21.025  0.00  0.00    +0.000 HD
ATOM     21  H   UNL     1       0.822   5.146  19.849  0.00  0.00    +0.000 HD
ENDBRANCH   3   7
BRANCH   6  22
ATOM     22  N   UNL     1       0.353  10.612  18.963  0.00  0.00    +0.000 N 
ATOM     23  C   UNL     1      -0.842  10.827  18.292  0.00  0.00    +0.000 C 
ATOM     24  O   UNL     1      -1.499   9.971  17.699  0.00  0.00    +0.000 OA
ATOM     25  H   UNL     1       0.688  11.320  19.610  0.00  0.00    +0.000 HD
BRANCH  23  26
ATOM     26  C   UNL     1      -1.346  12.254  18.339  0.00  0.00    +0.000 C 
BRANCH  26  27
ATOM     27  C   UNL     1      -1.527  12.779  19.736  0.00  0.00    +0.000 A 
ATOM     28  C   UNL     1      -0.693  13.775  20.243  0.00  0.00    +0.000 A 
ATOM     29  C   UNL     1      -0.910  14.276  21.524  0.00  0.00    +0.000 A 
ATOM     30  C   UNL     1      -1.972  13.779  22.283  0.00  0.00    +0.000 A 
ATOM     31  N   UNL     1      -2.795  12.806  21.800  0.00  0.00    +0.000 NA
ATOM     32  C   UNL     1      -2.563  12.336  20.553  0.00  0.00    +0.000 A 
BRANCH  30  33
ATOM     33  C   UNL     1      -2.230  14.342  23.676  0.00  0.00    +0.000 C 
ATOM     34  F   UNL     1      -3.096  13.578  24.411  0.00  0.00    +0.000 F 
ATOM     35  F   UNL     1      -1.101  14.432  24.436  0.00  0.00    +0.000 F 
ATOM     36  F   UNL     1      -2.779  15.590  23.660  0.00  0.00    +0.000 F 
ENDBRANCH  30  33
ENDBRANCH  26  27
ENDBRANCH  23  26
ENDBRANCH   6  22
BRANCH   1  38
ATOM     37  C   UNL     1       1.293   9.224  22.347  0.00  0.00    +0.000 C 
ATOM     38  O   UNL     1       0.522   8.982  21.164  0.00  0.00    +0.000 OA
ENDBRANCH   1  38
TORSDOF 6
ENDMDL
