MODEL 1
REMARK VINA RESULT:     -10.1      0.000      0.000
REMARK  Name = 
REMARK  9 active torsions:
REMARK  status: ('A' for Active; 'I' for Inactive)
REMARK    1  A    between atoms: C_1  and  N_2
REMARK    2  A    between atoms: N_2  and  C_3
REMARK    3  A    between atoms: N_2  and  C_22
REMARK    4  A    between atoms: C_3  and  C_4
REMARK    5  A    between atoms: C_4  and  C_5
REMARK    6  A    between atoms: C_5  and  C_6
REMARK    7  A    between atoms: C_5  and  C_12
REMARK    8  A    between atoms: C_14  and  N_15
REMARK    9  A    between atoms: C_25  and  C_26
REMARK                            x       y       z     vdW  Elec       q    Type
REMARK                         _______ _______ _______ _____ _____    ______ ____
ROOT
ATOM      1  C   UNL     1       3.233   5.878  17.902  0.00  0.00    +0.000 C 
ENDROOT
BRANCH   1   2
ATOM      2  C   UNL     1       4.609   5.387  17.440  0.00  0.00    +0.000 A 
ATOM      3  C   UNL     1       4.815   5.008  16.096  0.00  0.00    +0.000 A 
ATOM      4  C   UNL     1       6.072   4.587  15.648  0.00  0.00    +0.000 A 
ATOM      5  N   UNL     1       7.171   4.503  16.417  0.00  0.00    +0.000 NA
ATOM      6  C   UNL     1       6.935   4.845  17.696  0.00  0.00    +0.000 A 
ATOM      7  N   UNL     1       7.820   4.872  18.730  0.00  0.00    +0.000 N 
ATOM      8  N   UNL     1       7.234   5.257  19.878  0.00  0.00    +0.000 NA
ATOM      9  N   UNL     1       5.951   5.480  19.607  0.00  0.00    +0.000 NA
ATOM     10  C   UNL     1       5.744   5.256  18.268  0.00  0.00    +0.000 A 
ATOM     11  H   UNL     1       8.806   4.650  18.724  0.00  0.00    +0.000 HD
BRANCH   4  12
ATOM     12  N   UNL     1       6.214   4.158  14.329  0.00  0.00    +0.000 N 
ATOM     13  H   UNL     1       7.028   4.552  13.878  0.00  0.00    +0.000 HD
ATOM     14  H   UNL     1       6.217   3.142  14.327  0.00  0.00    +0.000 HD
ENDBRANCH   4  12
ENDBRANCH   1   2
BRANCH   1  15
ATOM     15  C   UNL     1       2.462   4.829  18.716  0.00  0.00    +0.000 A 
ATOM     16  C   UNL     1       1.623   3.876  18.117  0.00  0.00    +0.000 A 
ATOM     17  C   UNL     1       0.947   2.925  18.889  0.00  0.00    +0.000 A 
ATOM     18  C   UNL     1       1.102   2.899  20.273  0.00  0.00    +0.000 A 
ATOM     19  C   UNL     1       1.953   3.810  20.887  0.00  0.00    +0.000 A 
ATOM     20  C   UNL     1       2.638   4.748  20.113  0.00  0.00    +0.000 A 
ENDBRANCH   1  15
BRANCH   1  21
ATOM     21  C   UNL     1       3.353   7.323  18.497  0.00  0.00    +0.000 C 
BRANCH  21  22
ATOM     22  C   UNL     1       2.040   7.813  19.126  0.00  0.00    +0.000 C 
BRANCH  22  24
ATOM     23  C   UNL     1       2.227   9.694  17.633  0.00  0.00    +0.000 C 
ATOM     24  N   UNL     1       1.315   8.944  18.508  0.00  0.00    +0.000 NA
BRANCH  24  25
ATOM     25  C   UNL     1       0.654   9.800  19.559  0.00  0.00    +0.000 C 
ATOM     26  C   UNL     1       1.490  11.079  19.827  0.00  0.00    +0.000 C 
ATOM     27  C   UNL     1       0.802  12.005  20.837  0.00  0.00    +0.000 C 
ATOM     28  C   UNL     1      -0.552  11.431  21.330  0.00  0.00    +0.000 C 
ATOM     29  C   UNL     1      -0.264  10.034  21.939  0.00  0.00    +0.000 C 
ATOM     30  C   UNL     1       0.448   9.110  20.937  0.00  0.00    +0.000 C 
ATOM     31  C   UNL     1      -1.423  11.237  20.071  0.00  0.00    +0.000 C 
ATOM     32  C   UNL     1      -0.747  10.295  19.071  0.00  0.00    +0.000 C 
BRANCH  28  33
ATOM     33  C   UNL     1      -1.278  12.333  22.337  0.00  0.00    +0.000 A 
ATOM     34  C   UNL     1      -0.796  13.605  22.690  0.00  0.00    +0.000 A 
ATOM     35  C   UNL     1      -1.491  14.427  23.580  0.00  0.00    +0.000 A 
ATOM     36  C   UNL     1      -2.689  13.997  24.141  0.00  0.00    +0.000 A 
ATOM     37  C   UNL     1      -3.184  12.737  23.815  0.00  0.00    +0.000 A 
ATOM     38  C   UNL     1      -2.488  11.917  22.923  0.00  0.00    +0.000 A 
ENDBRANCH  28  33
ENDBRANCH  24  25
ENDBRANCH  22  24
ENDBRANCH  21  22
ENDBRANCH   1  21
TORSDOF 8
ENDMDL
MODEL 2
REMARK VINA RESULT:     -10.0      0.888      1.741
REMARK  Name = 
REMARK  9 active torsions:
REMARK  status: ('A' for Active; 'I' for Inactive)
REMARK    1  A    between atoms: C_1  and  N_2
REMARK    2  A    between atoms: N_2  and  C_3
REMARK    3  A    between atoms: N_2  and  C_22
REMARK    4  A    between atoms: C_3  and  C_4
REMARK    5  A    between atoms: C_4  and  C_5
REMARK    6  A    between atoms: C_5  and  C_6
REMARK    7  A    between atoms: C_5  and  C_12
REMARK    8  A    between atoms: C_14  and  N_15
REMARK    9  A    between atoms: C_25  and  C_26
REMARK                            x       y       z     vdW  Elec       q    Type
REMARK                         _______ _______ _______ _____ _____    ______ ____
ROOT
ATOM      1  C   UNL     1       3.248   5.701  17.705  0.00  0.00    +0.000 C 
ENDROOT
BRANCH   1   2
ATOM      2  C   UNL     1       4.652   5.211  17.332  0.00  0.00    +0.000 A 
ATOM      3  C   UNL     1       4.913   4.722  16.034  0.00  0.00    +0.000 A 
ATOM      4  C   UNL     1       6.195   4.299  15.665  0.00  0.00    +0.000 A 
ATOM      5  N   UNL     1       7.269   4.316  16.474  0.00  0.00    +0.000 NA
ATOM      6  C   UNL     1       6.980   4.761  17.709  0.00  0.00    +0.000 A 
ATOM      7  N   UNL     1       7.829   4.905  18.764  0.00  0.00    +0.000 N 
ATOM      8  N   UNL     1       7.194   5.373  19.854  0.00  0.00    +0.000 NA
ATOM      9  N   UNL     1       5.916   5.534  19.524  0.00  0.00    +0.000 NA
ATOM     10  C   UNL     1       5.761   5.187  18.204  0.00  0.00    +0.000 A 
ATOM     11  H   UNL     1       8.821   4.712  18.808  0.00  0.00    +0.000 HD
BRANCH   4  12
ATOM     12  N   UNL     1       6.393   3.761  14.395  0.00  0.00    +0.000 N 
ATOM     13  H   UNL     1       6.175   2.775  14.352  0.00  0.00    +0.000 HD
ATOM     14  H   UNL     1       5.852   4.311  13.733  0.00  0.00    +0.000 HD
ENDBRANCH   4  12
ENDBRANCH   1   2
BRANCH   1  15
ATOM     15  C   UNL     1       2.498   4.732  18.630  0.00  0.00    +0.000 A 
ATOM     16  C   UNL     1       2.460   4.895  20.024  0.00  0.00    +0.000 A 
ATOM     17  C   UNL     1       1.753   4.000  20.835  0.00  0.00    +0.000 A 
ATOM     18  C   UNL     1       1.060   2.932  20.270  0.00  0.00    +0.000 A 
ATOM     19  C   UNL     1       1.054   2.768  18.891  0.00  0.00    +0.000 A 
ATOM     20  C   UNL     1       1.747   3.670  18.083  0.00  0.00    +0.000 A 
ENDBRANCH   1  15
BRANCH   1  21
ATOM     21  C   UNL     1       3.302   7.213  18.118  0.00  0.00    +0.000 C 
BRANCH  21  22
ATOM     22  C   UNL     1       1.920   7.885  18.077  0.00  0.00    +0.000 C 
BRANCH  22  24
ATOM     23  C   UNL     1       3.151   9.902  17.613  0.00  0.00    +0.000 C 
ATOM     24  N   UNL     1       1.813   9.299  17.661  0.00  0.00    +0.000 NA
BRANCH  24  25
ATOM     25  C   UNL     1       0.849  10.050  18.546  0.00  0.00    +0.000 C 
ATOM     26  C   UNL     1      -0.586   9.995  17.961  0.00  0.00    +0.000 C 
ATOM     27  C   UNL     1      -1.600  10.687  18.880  0.00  0.00    +0.000 C 
ATOM     28  C   UNL     1      -0.935  11.260  20.158  0.00  0.00    +0.000 C 
ATOM     29  C   UNL     1       0.177  12.237  19.699  0.00  0.00    +0.000 C 
ATOM     30  C   UNL     1       1.183  11.554  18.756  0.00  0.00    +0.000 C 
ATOM     31  C   UNL     1      -0.264  10.067  20.870  0.00  0.00    +0.000 C 
ATOM     32  C   UNL     1       0.765   9.389  19.961  0.00  0.00    +0.000 C 
BRANCH  28  33
ATOM     33  C   UNL     1      -1.919  11.954  21.111  0.00  0.00    +0.000 A 
ATOM     34  C   UNL     1      -2.995  12.728  20.646  0.00  0.00    +0.000 A 
ATOM     35  C   UNL     1      -3.902  13.321  21.529  0.00  0.00    +0.000 A 
ATOM     36  C   UNL     1      -3.755  13.152  22.901  0.00  0.00    +0.000 A 
ATOM     37  C   UNL     1      -2.692  12.396  23.388  0.00  0.00    +0.000 A 
ATOM     38  C   UNL     1      -1.787  11.803  22.504  0.00  0.00    +0.000 A 
ENDBRANCH  28  33
ENDBRANCH  24  25
ENDBRANCH  22  24
ENDBRANCH  21  22
ENDBRANCH   1  21
TORSDOF 8
ENDMDL
MODEL 3
REMARK VINA RESULT:     -10.0      0.152      1.158
REMARK  Name = 
REMARK  9 active torsions:
REMARK  status: ('A' for Active; 'I' for Inactive)
REMARK    1  A    between atoms: C_1  and  N_2
REMARK    2  A    between atoms: N_2  and  C_3
REMARK    3  A    between atoms: N_2  and  C_22
REMARK    4  A    between atoms: C_3  and  C_4
REMARK    5  A    between atoms: C_4  and  C_5
REMARK    6  A    between atoms: C_5  and  C_6
REMARK    7  A    between atoms: C_5  and  C_12
REMARK    8  A    between atoms: C_14  and  N_15
REMARK    9  A    between atoms: C_25  and  C_26
REMARK                            x       y       z     vdW  Elec       q    Type
REMARK                         _______ _______ _______ _____ _____    ______ ____
ROOT
ATOM      1  C   UNL     1       3.223   5.754  18.007  0.00  0.00    +0.000 C 
ENDROOT
BRANCH   1   2
ATOM      2  C   UNL     1       4.604   5.266  17.556  0.00  0.00    +0.000 A 
ATOM      3  C   UNL     1       4.804   4.820  16.232  0.00  0.00    +0.000 A 
ATOM      4  C   UNL     1       6.065   4.400  15.793  0.00  0.00    +0.000 A 
ATOM      5  N   UNL     1       7.174   4.381  16.553  0.00  0.00    +0.000 NA
ATOM      6  C   UNL     1       6.943   4.787  17.814  0.00  0.00    +0.000 A 
ATOM      7  N   UNL     1       7.839   4.889  18.835  0.00  0.00    +0.000 N 
ATOM      8  N   UNL     1       7.257   5.324  19.967  0.00  0.00    +0.000 NA
ATOM      9  N   UNL     1       5.967   5.505  19.700  0.00  0.00    +0.000 NA
ATOM     10  C   UNL     1       5.750   5.204  18.377  0.00  0.00    +0.000 A 
ATOM     11  H   UNL     1       8.830   4.687  18.830  0.00  0.00    +0.000 HD
BRANCH   4  12
ATOM     12  N   UNL     1       6.202   3.904  14.498  0.00  0.00    +0.000 N 
ATOM     13  H   UNL     1       5.624   3.092  14.329  0.00  0.00    +0.000 HD
ATOM     14  H   UNL     1       6.012   4.662  13.849  0.00  0.00    +0.000 HD
ENDBRANCH   4  12
ENDBRANCH   1   2
BRANCH   1  15
ATOM     15  C   UNL     1       2.492   4.745  18.904  0.00  0.00    +0.000 A 
ATOM     16  C   UNL     1       2.573   4.784  20.305  0.00  0.00    +0.000 A 
ATOM     17  C   UNL     1       1.879   3.857  21.092  0.00  0.00    +0.000 A 
ATOM     18  C   UNL     1       1.083   2.881  20.497  0.00  0.00    +0.000 A 
ATOM     19  C   UNL     1       0.960   2.843  19.114  0.00  0.00    +0.000 A 
ATOM     20  C   UNL     1       1.639   3.777  18.332  0.00  0.00    +0.000 A 
ENDBRANCH   1  15
BRANCH   1  21
ATOM     21  C   UNL     1       3.315   7.239  18.500  0.00  0.00    +0.000 C 
BRANCH  21  22
ATOM     22  C   UNL     1       1.976   7.765  19.042  0.00  0.00    +0.000 C 
BRANCH  22  24
ATOM     23  C   UNL     1       2.401   9.715  17.694  0.00  0.00    +0.000 C 
ATOM     24  N   UNL     1       1.377   8.978  18.446  0.00  0.00    +0.000 NA
BRANCH  24  25
ATOM     25  C   UNL     1       0.689   9.812  19.497  0.00  0.00    +0.000 C 
ATOM     26  C   UNL     1       1.516  11.087  19.810  0.00  0.00    +0.000 C 
ATOM     27  C   UNL     1       0.803  11.991  20.822  0.00  0.00    +0.000 C 
ATOM     28  C   UNL     1      -0.561  11.406  21.271  0.00  0.00    +0.000 C 
ATOM     29  C   UNL     1      -0.285   9.998  21.859  0.00  0.00    +0.000 C 
ATOM     30  C   UNL     1       0.452   9.095  20.856  0.00  0.00    +0.000 C 
ATOM     31  C   UNL     1      -1.402  11.235  19.988  0.00  0.00    +0.000 C 
ATOM     32  C   UNL     1      -0.701  10.314  18.986  0.00  0.00    +0.000 C 
BRANCH  28  33
ATOM     33  C   UNL     1      -1.312  12.287  22.278  0.00  0.00    +0.000 A 
ATOM     34  C   UNL     1      -2.513  11.880  22.882  0.00  0.00    +0.000 A 
ATOM     35  C   UNL     1      -3.162  12.681  23.826  0.00  0.00    +0.000 A 
ATOM     36  C   UNL     1      -2.625  13.911  24.188  0.00  0.00    +0.000 A 
ATOM     37  C   UNL     1      -1.441  14.342  23.597  0.00  0.00    +0.000 A 
ATOM     38  C   UNL     1      -0.792  13.540  22.656  0.00  0.00    +0.000 A 
ENDBRANCH  28  33
ENDBRANCH  24  25
ENDBRANCH  22  24
ENDBRANCH  21  22
ENDBRANCH   1  21
TORSDOF 8
ENDMDL
MODEL 4
REMARK VINA RESULT:      -9.9      0.130      1.550
REMARK  Name = 
REMARK  9 active torsions:
REMARK  status: ('A' for Active; 'I' for Inactive)
REMARK    1  A    between atoms: C_1  and  N_2
REMARK    2  A    between atoms: N_2  and  C_3
REMARK    3  A    between atoms: N_2  and  C_22
REMARK    4  A    between atoms: C_3  and  C_4
REMARK    5  A    between atoms: C_4  and  C_5
REMARK    6  A    between atoms: C_5  and  C_6
REMARK    7  A    between atoms: C_5  and  C_12
REMARK    8  A    between atoms: C_14  and  N_15
REMARK    9  A    between atoms: C_25  and  C_26
REMARK                            x       y       z     vdW  Elec       q    Type
REMARK                         _______ _______ _______ _____ _____    ______ ____
ROOT
ATOM      1  C   UNL     1       3.249   5.859  18.011  0.00  0.00    +0.000 C 
ENDROOT
BRANCH   1   2
ATOM      2  C   UNL     1       4.616   5.384  17.507  0.00  0.00    +0.000 A 
ATOM      3  C   UNL     1       4.788   5.019  16.155  0.00  0.00    +0.000 A 
ATOM      4  C   UNL     1       6.036   4.612  15.669  0.00  0.00    +0.000 A 
ATOM      5  N   UNL     1       7.156   4.530  16.408  0.00  0.00    +0.000 NA
ATOM      6  C   UNL     1       6.952   4.858  17.696  0.00  0.00    +0.000 A 
ATOM      7  N   UNL     1       7.865   4.883  18.706  0.00  0.00    +0.000 N 
ATOM      8  N   UNL     1       7.307   5.252  19.873  0.00  0.00    +0.000 NA
ATOM      9  N   UNL     1       6.015   5.467  19.639  0.00  0.00    +0.000 NA
ATOM     10  C   UNL     1       5.774   5.254  18.303  0.00  0.00    +0.000 A 
ATOM     11  H   UNL     1       8.852   4.668  18.671  0.00  0.00    +0.000 HD
BRANCH   4  12
ATOM     12  N   UNL     1       6.146   4.197  14.343  0.00  0.00    +0.000 N 
ATOM     13  H   UNL     1       5.464   4.637  13.740  0.00  0.00    +0.000 HD
ATOM     14  H   UNL     1       7.102   4.363  14.040  0.00  0.00    +0.000 HD
ENDBRANCH   4  12
ENDBRANCH   1   2
BRANCH   1  15
ATOM     15  C   UNL     1       2.509   4.798  18.838  0.00  0.00    +0.000 A 
ATOM     16  C   UNL     1       2.618   4.719  20.236  0.00  0.00    +0.000 A 
ATOM     17  C   UNL     1       1.916   3.748  20.959  0.00  0.00    +0.000 A 
ATOM     18  C   UNL     1       1.084   2.843  20.303  0.00  0.00    +0.000 A 
ATOM     19  C   UNL     1       0.933   2.922  18.925  0.00  0.00    +0.000 A 
ATOM     20  C   UNL     1       1.622   3.901  18.207  0.00  0.00    +0.000 A 
ENDBRANCH   1  15
BRANCH   1  21
ATOM     21  C   UNL     1       3.374   7.301  18.614  0.00  0.00    +0.000 C 
BRANCH  21  22
ATOM     22  C   UNL     1       2.033   7.840  19.137  0.00  0.00    +0.000 C 
BRANCH  22  24
ATOM     23  C   UNL     1       2.336   9.617  17.540  0.00  0.00    +0.000 C 
ATOM     24  N   UNL     1       1.370   8.953  18.425  0.00  0.00    +0.000 NA
BRANCH  24  25
ATOM     25  C   UNL     1       0.703   9.894  19.397  0.00  0.00    +0.000 C 
ATOM     26  C   UNL     1      -0.694  10.319  18.875  0.00  0.00    +0.000 C 
ATOM     27  C   UNL     1      -1.426  11.217  19.879  0.00  0.00    +0.000 C 
ATOM     28  C   UNL     1      -0.588  11.468  21.159  0.00  0.00    +0.000 C 
ATOM     29  C   UNL     1       0.759  12.093  20.711  0.00  0.00    +0.000 C 
ATOM     30  C   UNL     1       1.486  11.207  19.685  0.00  0.00    +0.000 C 
ATOM     31  C   UNL     1      -0.296  10.079  21.765  0.00  0.00    +0.000 C 
ATOM     32  C   UNL     1       0.455   9.189  20.771  0.00  0.00    +0.000 C 
BRANCH  28  33
ATOM     33  C   UNL     1      -1.290  12.356  22.196  0.00  0.00    +0.000 A 
ATOM     34  C   UNL     1      -2.519  12.004  22.777  0.00  0.00    +0.000 A 
ATOM     35  C   UNL     1      -3.124  12.808  23.747  0.00  0.00    +0.000 A 
ATOM     36  C   UNL     1      -2.513  13.986  24.161  0.00  0.00    +0.000 A 
ATOM     37  C   UNL     1      -1.298  14.363  23.593  0.00  0.00    +0.000 A 
ATOM     38  C   UNL     1      -0.694  13.557  22.625  0.00  0.00    +0.000 A 
ENDBRANCH  28  33
ENDBRANCH  24  25
ENDBRANCH  22  24
ENDBRANCH  21  22
ENDBRANCH   1  21
TORSDOF 8
ENDMDL
MODEL 5
REMARK VINA RESULT:      -9.9      0.898      1.085
REMARK  Name = 
REMARK  9 active torsions:
REMARK  status: ('A' for Active; 'I' for Inactive)
REMARK    1  A    between atoms: C_1  and  N_2
REMARK    2  A    between atoms: N_2  and  C_3
REMARK    3  A    between atoms: N_2  and  C_22
REMARK    4  A    between atoms: C_3  and  C_4
REMARK    5  A    between atoms: C_4  and  C_5
REMARK    6  A    between atoms: C_5  and  C_6
REMARK    7  A    between atoms: C_5  and  C_12
REMARK    8  A    between atoms: C_14  and  N_15
REMARK    9  A    between atoms: C_25  and  C_26
REMARK                            x       y       z     vdW  Elec       q    Type
REMARK                         _______ _______ _______ _____ _____    ______ ____
ROOT
ATOM      1  C   UNL     1       3.217   5.811  17.627  0.00  0.00    +0.000 C 
ENDROOT
BRANCH   1   2
ATOM      2  C   UNL     1       4.634   5.340  17.284  0.00  0.00    +0.000 A 
ATOM      3  C   UNL     1       4.946   4.918  15.974  0.00  0.00    +0.000 A 
ATOM      4  C   UNL     1       6.242   4.513  15.634  0.00  0.00    +0.000 A 
ATOM      5  N   UNL     1       7.284   4.488  16.483  0.00  0.00    +0.000 NA
ATOM      6  C   UNL     1       6.947   4.870  17.727  0.00  0.00    +0.000 A 
ATOM      7  N   UNL     1       7.754   4.959  18.820  0.00  0.00    +0.000 N 
ATOM      8  N   UNL     1       7.077   5.371  19.907  0.00  0.00    +0.000 NA
ATOM      9  N   UNL     1       5.812   5.549  19.537  0.00  0.00    +0.000 NA
ATOM     10  C   UNL     1       5.708   5.270  18.196  0.00  0.00    +0.000 A 
ATOM     11  H   UNL     1       8.743   4.763  18.894  0.00  0.00    +0.000 HD
BRANCH   4  12
ATOM     12  N   UNL     1       6.490   4.040  14.346  0.00  0.00    +0.000 N 
ATOM     13  H   UNL     1       7.432   4.235  14.035  0.00  0.00    +0.000 HD
ATOM     14  H   UNL     1       6.267   3.049  14.327  0.00  0.00    +0.000 HD
ENDBRANCH   4  12
ENDBRANCH   1   2
BRANCH   1  15
ATOM     15  C   UNL     1       2.462   4.835  18.540  0.00  0.00    +0.000 A 
ATOM     16  C   UNL     1       1.932   3.621  18.074  0.00  0.00    +0.000 A 
ATOM     17  C   UNL     1       1.263   2.748  18.940  0.00  0.00    +0.000 A 
ATOM     18  C   UNL     1       1.119   3.063  20.289  0.00  0.00    +0.000 A 
ATOM     19  C   UNL     1       1.665   4.242  20.782  0.00  0.00    +0.000 A 
ATOM     20  C   UNL     1       2.345   5.104  19.920  0.00  0.00    +0.000 A 
ENDBRANCH   1  15
BRANCH   1  21
ATOM     21  C   UNL     1       3.240   7.325  18.034  0.00  0.00    +0.000 C 
BRANCH  21  22
ATOM     22  C   UNL     1       1.853   7.980  17.949  0.00  0.00    +0.000 C 
BRANCH  22  24
ATOM     23  C   UNL     1       3.092  10.031  17.700  0.00  0.00    +0.000 C 
ATOM     24  N   UNL     1       1.750   9.433  17.693  0.00  0.00    +0.000 NA
BRANCH  24  25
ATOM     25  C   UNL     1       0.798  10.085  18.664  0.00  0.00    +0.000 C 
ATOM     26  C   UNL     1       1.187  11.569  18.897  0.00  0.00    +0.000 C 
ATOM     27  C   UNL     1       0.192  12.278  19.823  0.00  0.00    +0.000 C 
ATOM     28  C   UNL     1      -0.949  11.336  20.287  0.00  0.00    +0.000 C 
ATOM     29  C   UNL     1      -0.285  10.121  20.986  0.00  0.00    +0.000 C 
ATOM     30  C   UNL     1       0.733   9.421  20.069  0.00  0.00    +0.000 C 
ATOM     31  C   UNL     1      -1.644  10.833  19.005  0.00  0.00    +0.000 C 
ATOM     32  C   UNL     1      -0.656  10.105  18.089  0.00  0.00    +0.000 C 
BRANCH  28  33
ATOM     33  C   UNL     1      -1.973  12.011  21.210  0.00  0.00    +0.000 A 
ATOM     34  C   UNL     1      -1.910  11.901  22.609  0.00  0.00    +0.000 A 
ATOM     35  C   UNL     1      -2.830  12.554  23.433  0.00  0.00    +0.000 A 
ATOM     36  C   UNL     1      -3.838  13.335  22.877  0.00  0.00    +0.000 A 
ATOM     37  C   UNL     1      -3.928  13.452  21.493  0.00  0.00    +0.000 A 
ATOM     38  C   UNL     1      -3.006  12.800  20.670  0.00  0.00    +0.000 A 
ENDBRANCH  28  33
ENDBRANCH  24  25
ENDBRANCH  22  24
ENDBRANCH  21  22
ENDBRANCH   1  21
TORSDOF 8
ENDMDL
MODEL 6
REMARK VINA RESULT:      -9.9      0.427      1.560
REMARK  Name = 
REMARK  9 active torsions:
REMARK  status: ('A' for Active; 'I' for Inactive)
REMARK    1  A    between atoms: C_1  and  N_2
REMARK    2  A    between atoms: N_2  and  C_3
REMARK    3  A    between atoms: N_2  and  C_22
REMARK    4  A    between atoms: C_3  and  C_4
REMARK    5  A    between atoms: C_4  and  C_5
REMARK    6  A    between atoms: C_5  and  C_6
REMARK    7  A    between atoms: C_5  and  C_12
REMARK    8  A    between atoms: C_14  and  N_15
REMARK    9  A    between atoms: C_25  and  C_26
REMARK                            x       y       z     vdW  Elec       q    Type
REMARK                         _______ _______ _______ _____ _____    ______ ____
ROOT
ATOM      1  C   UNL     1       3.194   5.763  17.749  0.00  0.00    +0.000 C 
ENDROOT
BRANCH   1   2
ATOM      2  C   UNL     1       4.601   5.297  17.362  0.00  0.00    +0.000 A 
ATOM      3  C   UNL     1       4.874   4.881  16.041  0.00  0.00    +0.000 A 
ATOM      4  C   UNL     1       6.161   4.481  15.661  0.00  0.00    +0.000 A 
ATOM      5  N   UNL     1       7.228   4.454  16.478  0.00  0.00    +0.000 NA
ATOM      6  C   UNL     1       6.927   4.831  17.734  0.00  0.00    +0.000 A 
ATOM      7  N   UNL     1       7.767   4.918  18.802  0.00  0.00    +0.000 N 
ATOM      8  N   UNL     1       7.121   5.324  19.911  0.00  0.00    +0.000 NA
ATOM      9  N   UNL     1       5.846   5.500  19.579  0.00  0.00    +0.000 NA
ATOM     10  C   UNL     1       5.702   5.227  18.241  0.00  0.00    +0.000 A 
ATOM     11  H   UNL     1       8.758   4.724  18.845  0.00  0.00    +0.000 HD
BRANCH   4  12
ATOM     12  N   UNL     1       6.371   4.013  14.364  0.00  0.00    +0.000 N 
ATOM     13  H   UNL     1       5.553   3.563  13.976  0.00  0.00    +0.000 HD
ATOM     14  H   UNL     1       6.696   4.793  13.799  0.00  0.00    +0.000 HD
ENDBRANCH   4  12
ENDBRANCH   1   2
BRANCH   1  15
ATOM     15  C   UNL     1       2.457   4.766  18.654  0.00  0.00    +0.000 A 
ATOM     16  C   UNL     1       2.295   4.975  20.033  0.00  0.00    +0.000 A 
ATOM     17  C   UNL     1       1.604   4.051  20.826  0.00  0.00    +0.000 A 
ATOM     18  C   UNL     1       1.050   2.908  20.256  0.00  0.00    +0.000 A 
ATOM     19  C   UNL     1       1.166   2.695  18.889  0.00  0.00    +0.000 A 
ATOM     20  C   UNL     1       1.842   3.624  18.098  0.00  0.00    +0.000 A 
ENDBRANCH   1  15
BRANCH   1  21
ATOM     21  C   UNL     1       3.231   7.266  18.194  0.00  0.00    +0.000 C 
BRANCH  21  22
ATOM     22  C   UNL     1       1.827   7.863  18.377  0.00  0.00    +0.000 C 
BRANCH  22  24
ATOM     23  C   UNL     1       2.809   9.871  17.482  0.00  0.00    +0.000 C 
ATOM     24  N   UNL     1       1.554   9.236  17.904  0.00  0.00    +0.000 NA
BRANCH  24  25
ATOM     25  C   UNL     1       0.803  10.027  18.946  0.00  0.00    +0.000 C 
ATOM     26  C   UNL     1       0.829   9.293  20.312  0.00  0.00    +0.000 C 
ATOM     27  C   UNL     1       0.136  10.111  21.408  0.00  0.00    +0.000 C 
ATOM     28  C   UNL     1      -0.409  11.461  20.876  0.00  0.00    +0.000 C 
ATOM     29  C   UNL     1      -1.377  11.137  19.708  0.00  0.00    +0.000 C 
ATOM     30  C   UNL     1      -0.694  10.295  18.617  0.00  0.00    +0.000 C 
ATOM     31  C   UNL     1       0.805  12.220  20.299  0.00  0.00    +0.000 C 
ATOM     32  C   UNL     1       1.484  11.413  19.188  0.00  0.00    +0.000 C 
BRANCH  28  33
ATOM     33  C   UNL     1      -1.102  12.315  21.946  0.00  0.00    +0.000 A 
ATOM     34  C   UNL     1      -2.313  11.931  22.545  0.00  0.00    +0.000 A 
ATOM     35  C   UNL     1      -2.909  12.704  23.545  0.00  0.00    +0.000 A 
ATOM     36  C   UNL     1      -2.306  13.883  23.972  0.00  0.00    +0.000 A 
ATOM     37  C   UNL     1      -1.110  14.290  23.388  0.00  0.00    +0.000 A 
ATOM     38  C   UNL     1      -0.515  13.515  22.389  0.00  0.00    +0.000 A 
ENDBRANCH  28  33
ENDBRANCH  24  25
ENDBRANCH  22  24
ENDBRANCH  21  22
ENDBRANCH   1  21
TORSDOF 8
ENDMDL
MODEL 7
REMARK VINA RESULT:      -9.9      1.162      2.362
REMARK  Name = 
REMARK  9 active torsions:
REMARK  status: ('A' for Active; 'I' for Inactive)
REMARK    1  A    between atoms: C_1  and  N_2
REMARK    2  A    between atoms: N_2  and  C_3
REMARK    3  A    between atoms: N_2  and  C_22
REMARK    4  A    between atoms: C_3  and  C_4
REMARK    5  A    between atoms: C_4  and  C_5
REMARK    6  A    between atoms: C_5  and  C_6
REMARK    7  A    between atoms: C_5  and  C_12
REMARK    8  A    between atoms: C_14  and  N_15
REMARK    9  A    between atoms: C_25  and  C_26
REMARK                            x       y       z     vdW  Elec       q    Type
REMARK                         _______ _______ _______ _____ _____    ______ ____
ROOT
ATOM      1  C   UNL     1       3.417   6.339  17.795  0.00  0.00    +0.000 C 
ENDROOT
BRANCH   1   2
ATOM      2  C   UNL     1       4.909   5.993  17.744  0.00  0.00    +0.000 A 
ATOM      3  C   UNL     1       5.642   5.830  18.939  0.00  0.00    +0.000 A 
ATOM      4  C   UNL     1       6.998   5.484  18.914  0.00  0.00    +0.000 A 
ATOM      5  N   UNL     1       7.715   5.278  17.795  0.00  0.00    +0.000 NA
ATOM      6  C   UNL     1       6.995   5.468  16.676  0.00  0.00    +0.000 A 
ATOM      7  N   UNL     1       7.409   5.341  15.385  0.00  0.00    +0.000 N 
ATOM      8  N   UNL     1       6.420   5.615  14.516  0.00  0.00    +0.000 NA
ATOM      9  N   UNL     1       5.345   5.932  15.232  0.00  0.00    +0.000 NA
ATOM     10  C   UNL     1       5.664   5.827  16.564  0.00  0.00    +0.000 A 
ATOM     11  H   UNL     1       8.321   5.078  15.037  0.00  0.00    +0.000 HD
BRANCH   4  12
ATOM     12  N   UNL     1       7.700   5.399  20.115  0.00  0.00    +0.000 N 
ATOM     13  H   UNL     1       7.292   5.967  20.844  0.00  0.00    +0.000 HD
ATOM     14  H   UNL     1       7.765   4.418  20.372  0.00  0.00    +0.000 HD
ENDBRANCH   4  12
ENDBRANCH   1   2
BRANCH   1  15
ATOM     15  C   UNL     1       2.580   5.286  18.535  0.00  0.00    +0.000 A 
ATOM     16  C   UNL     1       2.226   5.417  19.888  0.00  0.00    +0.000 A 
ATOM     17  C   UNL     1       1.448   4.445  20.526  0.00  0.00    +0.000 A 
ATOM     18  C   UNL     1       0.998   3.329  19.826  0.00  0.00    +0.000 A 
ATOM     19  C   UNL     1       1.306   3.192  18.478  0.00  0.00    +0.000 A 
ATOM     20  C   UNL     1       2.069   4.171  17.839  0.00  0.00    +0.000 A 
ENDBRANCH   1  15
BRANCH   1  21
ATOM     21  C   UNL     1       3.229   7.841  18.201  0.00  0.00    +0.000 C 
BRANCH  21  22
ATOM     22  C   UNL     1       1.804   8.351  17.934  0.00  0.00    +0.000 C 
BRANCH  22  24
ATOM     23  C   UNL     1       2.875  10.489  17.644  0.00  0.00    +0.000 C 
ATOM     24  N   UNL     1       1.583   9.791  17.684  0.00  0.00    +0.000 NA
BRANCH  24  25
ATOM     25  C   UNL     1       0.620  10.372  18.690  0.00  0.00    +0.000 C 
ATOM     26  C   UNL     1       0.962  11.857  18.980  0.00  0.00    +0.000 C 
ATOM     27  C   UNL     1      -0.047  12.493  19.943  0.00  0.00    +0.000 C 
ATOM     28  C   UNL     1      -1.151  11.496  20.377  0.00  0.00    +0.000 C 
ATOM     29  C   UNL     1      -0.441  10.275  21.019  0.00  0.00    +0.000 C 
ATOM     30  C   UNL     1       0.590   9.648  20.066  0.00  0.00    +0.000 C 
ATOM     31  C   UNL     1      -1.842  11.023  19.081  0.00  0.00    +0.000 C 
ATOM     32  C   UNL     1      -0.839  10.367  18.128  0.00  0.00    +0.000 C 
BRANCH  28  33
ATOM     33  C   UNL     1      -2.188  12.097  21.335  0.00  0.00    +0.000 A 
ATOM     34  C   UNL     1      -3.304  12.817  20.878  0.00  0.00    +0.000 A 
ATOM     35  C   UNL     1      -4.257  13.325  21.765  0.00  0.00    +0.000 A 
ATOM     36  C   UNL     1      -4.118  13.125  23.134  0.00  0.00    +0.000 A 
ATOM     37  C   UNL     1      -3.016  12.422  23.614  0.00  0.00    +0.000 A 
ATOM     38  C   UNL     1      -2.065  11.913  22.726  0.00  0.00    +0.000 A 
ENDBRANCH  28  33
ENDBRANCH  24  25
ENDBRANCH  22  24
ENDBRANCH  21  22
ENDBRANCH   1  21
TORSDOF 8
ENDMDL
MODEL 8
REMARK VINA RESULT:      -9.8      0.532      1.141
REMARK  Name = 
REMARK  9 active torsions:
REMARK  status: ('A' for Active; 'I' for Inactive)
REMARK    1  A    between atoms: C_1  and  N_2
REMARK    2  A    between atoms: N_2  and  C_3
REMARK    3  A    between atoms: N_2  and  C_22
REMARK    4  A    between atoms: C_3  and  C_4
REMARK    5  A    between atoms: C_4  and  C_5
REMARK    6  A    between atoms: C_5  and  C_6
REMARK    7  A    between atoms: C_5  and  C_12
REMARK    8  A    between atoms: C_14  and  N_15
REMARK    9  A    between atoms: C_25  and  C_26
REMARK                            x       y       z     vdW  Elec       q    Type
REMARK                         _______ _______ _______ _____ _____    ______ ____
ROOT
ATOM      1  C   UNL     1       3.258   5.873  17.838  0.00  0.00    +0.000 C 
ENDROOT
BRANCH   1   2
ATOM      2  C   UNL     1       4.638   5.372  17.400  0.00  0.00    +0.000 A 
ATOM      3  C   UNL     1       4.858   4.968  16.066  0.00  0.00    +0.000 A 
ATOM      4  C   UNL     1       6.119   4.536  15.639  0.00  0.00    +0.000 A 
ATOM      5  N   UNL     1       7.210   4.465  16.422  0.00  0.00    +0.000 NA
ATOM      6  C   UNL     1       6.960   4.831  17.692  0.00  0.00    +0.000 A 
ATOM      7  N   UNL     1       7.834   4.876  18.735  0.00  0.00    +0.000 N 
ATOM      8  N   UNL     1       7.236   5.283  19.869  0.00  0.00    +0.000 NA
ATOM      9  N   UNL     1       5.956   5.503  19.580  0.00  0.00    +0.000 NA
ATOM     10  C   UNL     1       5.764   5.255  18.243  0.00  0.00    +0.000 A 
ATOM     11  H   UNL     1       8.820   4.652  18.744  0.00  0.00    +0.000 HD
BRANCH   4  12
ATOM     12  N   UNL     1       6.275   4.084  14.330  0.00  0.00    +0.000 N 
ATOM     13  H   UNL     1       5.667   4.561  13.679  0.00  0.00    +0.000 HD
ATOM     14  H   UNL     1       7.258   4.168  14.083  0.00  0.00    +0.000 HD
ENDBRANCH   4  12
ENDBRANCH   1   2
BRANCH   1  15
ATOM     15  C   UNL     1       2.479   4.844  18.669  0.00  0.00    +0.000 A 
ATOM     16  C   UNL     1       1.705   3.830  18.081  0.00  0.00    +0.000 A 
ATOM     17  C   UNL     1       1.019   2.899  18.870  0.00  0.00    +0.000 A 
ATOM     18  C   UNL     1       1.102   2.954  20.260  0.00  0.00    +0.000 A 
ATOM     19  C   UNL     1       1.889   3.926  20.864  0.00  0.00    +0.000 A 
ATOM     20  C   UNL     1       2.583   4.844  20.076  0.00  0.00    +0.000 A 
ENDBRANCH   1  15
BRANCH   1  21
ATOM     21  C   UNL     1       3.373   7.332  18.401  0.00  0.00    +0.000 C 
BRANCH  21  22
ATOM     22  C   UNL     1       2.012   7.916  18.811  0.00  0.00    +0.000 C 
BRANCH  22  24
ATOM     23  C   UNL     1       2.615   9.855  17.516  0.00  0.00    +0.000 C 
ATOM     24  N   UNL     1       1.497   9.115  18.116  0.00  0.00    +0.000 NA
BRANCH  24  25
ATOM     25  C   UNL     1       0.651   9.953  19.041  0.00  0.00    +0.000 C 
ATOM     26  C   UNL     1       0.493   9.256  20.418  0.00  0.00    +0.000 C 
ATOM     27  C   UNL     1      -0.301  10.121  21.404  0.00  0.00    +0.000 C 
ATOM     28  C   UNL     1      -0.739  11.470  20.778  0.00  0.00    +0.000 C 
ATOM     29  C   UNL     1      -1.570  11.140  19.511  0.00  0.00    +0.000 C 
ATOM     30  C   UNL     1      -0.787  10.251  18.530  0.00  0.00    +0.000 C 
ATOM     31  C   UNL     1       0.556  12.181  20.332  0.00  0.00    +0.000 C 
ATOM     32  C   UNL     1       1.338  11.327  19.330  0.00  0.00    +0.000 C 
BRANCH  28  33
ATOM     33  C   UNL     1      -1.529  12.371  21.737  0.00  0.00    +0.000 A 
ATOM     34  C   UNL     1      -0.914  13.065  22.793  0.00  0.00    +0.000 A 
ATOM     35  C   UNL     1      -1.645  13.910  23.632  0.00  0.00    +0.000 A 
ATOM     36  C   UNL     1      -3.011  14.084  23.435  0.00  0.00    +0.000 A 
ATOM     37  C   UNL     1      -3.645  13.400  22.401  0.00  0.00    +0.000 A 
ATOM     38  C   UNL     1      -2.913  12.557  21.562  0.00  0.00    +0.000 A 
ENDBRANCH  28  33
ENDBRANCH  24  25
ENDBRANCH  22  24
ENDBRANCH  21  22
ENDBRANCH   1  21
TORSDOF 8
ENDMDL
MODEL 9
REMARK VINA RESULT:      -9.8      0.729      1.298
REMARK  Name = 
REMARK  9 active torsions:
REMARK  status: ('A' for Active; 'I' for Inactive)
REMARK    1  A    between atoms: C_1  and  N_2
REMARK    2  A    between atoms: N_2  and  C_3
REMARK    3  A    between atoms: N_2  and  C_22
REMARK    4  A    between atoms: C_3  and  C_4
REMARK    5  A    between atoms: C_4  and  C_5
REMARK    6  A    between atoms: C_5  and  C_6
REMARK    7  A    between atoms: C_5  and  C_12
REMARK    8  A    between atoms: C_14  and  N_15
REMARK    9  A    between atoms: C_25  and  C_26
REMARK                            x       y       z     vdW  Elec       q    Type
REMARK                         _______ _______ _______ _____ _____    ______ ____
ROOT
ATOM      1  C   UNL     1       3.236   5.682  17.836  0.00  0.00    +0.000 C 
ENDROOT
BRANCH   1   2
ATOM      2  C   UNL     1       4.627   5.189  17.427  0.00  0.00    +0.000 A 
ATOM      3  C   UNL     1       4.852   4.691  16.126  0.00  0.00    +0.000 A 
ATOM      4  C   UNL     1       6.123   4.264  15.724  0.00  0.00    +0.000 A 
ATOM      5  N   UNL     1       7.219   4.285  16.502  0.00  0.00    +0.000 NA
ATOM      6  C   UNL     1       6.965   4.739  17.742  0.00  0.00    +0.000 A 
ATOM      7  N   UNL     1       7.843   4.889  18.772  0.00  0.00    +0.000 N 
ATOM      8  N   UNL     1       7.240   5.364  19.876  0.00  0.00    +0.000 NA
ATOM      9  N   UNL     1       5.953   5.524  19.581  0.00  0.00    +0.000 NA
ATOM     10  C   UNL     1       5.760   5.169  18.268  0.00  0.00    +0.000 A 
ATOM     11  H   UNL     1       8.836   4.695  18.790  0.00  0.00    +0.000 HD
BRANCH   4  12
ATOM     12  N   UNL     1       6.285   3.717  14.452  0.00  0.00    +0.000 N 
ATOM     13  H   UNL     1       5.669   4.135  13.769  0.00  0.00    +0.000 HD
ATOM     14  H   UNL     1       7.266   3.797  14.199  0.00  0.00    +0.000 HD
ENDBRANCH   4  12
ENDBRANCH   1   2
BRANCH   1  15
ATOM     15  C   UNL     1       2.471   4.675  18.707  0.00  0.00    +0.000 A 
ATOM     16  C   UNL     1       1.705   3.633  18.160  0.00  0.00    +0.000 A 
ATOM     17  C   UNL     1       1.033   2.724  18.985  0.00  0.00    +0.000 A 
ATOM     18  C   UNL     1       1.121   2.829  20.371  0.00  0.00    +0.000 A 
ATOM     19  C   UNL     1       1.900   3.831  20.936  0.00  0.00    +0.000 A 
ATOM     20  C   UNL     1       2.581   4.727  20.112  0.00  0.00    +0.000 A 
ENDBRANCH   1  15
BRANCH   1  21
ATOM     21  C   UNL     1       3.320   7.166  18.336  0.00  0.00    +0.000 C 
BRANCH  21  22
ATOM     22  C   UNL     1       1.935   7.788  18.574  0.00  0.00    +0.000 C 
BRANCH  22  24
ATOM     23  C   UNL     1       2.810   9.707  17.410  0.00  0.00    +0.000 C 
ATOM     24  N   UNL     1       1.588   9.063  17.910  0.00  0.00    +0.000 NA
BRANCH  24  25
ATOM     25  C   UNL     1       0.777   9.945  18.827  0.00  0.00    +0.000 C 
ATOM     26  C   UNL     1      -0.662  10.128  18.277  0.00  0.00    +0.000 C 
ATOM     27  C   UNL     1      -1.530  10.960  19.228  0.00  0.00    +0.000 C 
ATOM     28  C   UNL     1      -0.754  11.402  20.495  0.00  0.00    +0.000 C 
ATOM     29  C   UNL     1       0.490  12.195  20.017  0.00  0.00    +0.000 C 
ATOM     30  C   UNL     1       1.352  11.374  19.044  0.00  0.00    +0.000 C 
ATOM     31  C   UNL     1      -0.266  10.107  21.177  0.00  0.00    +0.000 C 
ATOM     32  C   UNL     1       0.621   9.286  20.236  0.00  0.00    +0.000 C 
BRANCH  28  33
ATOM     33  C   UNL     1      -1.592  12.230  21.478  0.00  0.00    +0.000 A 
ATOM     34  C   UNL     1      -1.101  12.630  22.732  0.00  0.00    +0.000 A 
ATOM     35  C   UNL     1      -1.866  13.416  23.598  0.00  0.00    +0.000 A 
ATOM     36  C   UNL     1      -3.144  13.822  23.230  0.00  0.00    +0.000 A 
ATOM     37  C   UNL     1      -3.658  13.431  21.997  0.00  0.00    +0.000 A 
ATOM     38  C   UNL     1      -2.891  12.647  21.131  0.00  0.00    +0.000 A 
ENDBRANCH  28  33
ENDBRANCH  24  25
ENDBRANCH  22  24
ENDBRANCH  21  22
ENDBRANCH   1  21
TORSDOF 8
ENDMDL
