MODEL 1
REMARK VINA RESULT:      -7.5      0.000      0.000
REMARK  Name = 
REMARK  8 active torsions:
REMARK  status: ('A' for Active; 'I' for Inactive)
REMARK    1  A    between atoms: C_1  and  C_2
REMARK    2  A    between atoms: C_2  and  C_3
REMARK    3  A    between atoms: N_6  and  C_7
REMARK    4  A    between atoms: C_8  and  C_9
REMARK    5  A    between atoms: C_9  and  C_10
REMARK    6  A    between atoms: N_15  and  N_16
REMARK    7  A    between atoms: N_16  and  C_17
REMARK    8  A    between atoms: N_20  and  C_21
REMARK                            x       y       z     vdW  Elec       q    Type
REMARK                         _______ _______ _______ _____ _____    ______ ____
ROOT
ATOM      1  C   UNL     1       3.773   5.537  17.568  0.00  0.00    +0.000 A 
ATOM      2  C   UNL     1       2.920   5.233  18.676  0.00  0.00    +0.000 A 
ATOM      3  C   UNL     1       2.838   3.853  18.757  0.00  0.00    +0.000 A 
ATOM      4  N   UNL     1       3.619   3.309  17.770  0.00  0.00    +0.000 N 
ATOM      5  C   UNL     1       3.806   1.895  17.514  0.00  0.00    +0.000 C 
ATOM      6  C   UNL     1       4.216   4.324  17.046  0.00  0.00    +0.000 A 
ATOM      7  C   UNL     1       2.039   3.090  19.761  0.00  0.00    +0.000 C 
ATOM      8  C   UNL     1       0.977   4.003  20.386  0.00  0.00    +0.000 C 
ATOM      9  C   UNL     1       1.530   5.375  20.792  0.00  0.00    +0.000 C 
ATOM     10  C   UNL     1       2.190   6.088  19.620  0.00  0.00    +0.000 C 
ATOM     11  N   UNL     1       2.184   7.359  19.352  0.00  0.00    +0.000 NA
ENDROOT
BRANCH  11  12
ATOM     12  N   UNL     1       1.593   8.362  20.095  0.00  0.00    +0.000 N 
ATOM     13  C   UNL     1       1.403   8.218  21.532  0.00  0.00    +0.000 C 
ATOM     14  C   UNL     1       1.467   9.588  19.389  0.00  0.00    +0.000 C 
ATOM     15  O   UNL     1       1.724   9.676  18.186  0.00  0.00    +0.000 OA
ATOM     16  N   UNL     1       1.031  10.667  20.148  0.00  0.00    +0.000 N 
ATOM     17  H   UNL     1       1.055  10.567  21.146  0.00  0.00    +0.000 HD
BRANCH  16  18
ATOM     18  C   UNL     1       0.789  11.983  19.689  0.00  0.00    +0.000 A 
ATOM     19  C   UNL     1       1.768  12.977  19.602  0.00  0.00    +0.000 A 
ATOM     20  C   UNL     1       1.443  14.263  19.154  0.00  0.00    +0.000 A 
ATOM     21  C   UNL     1       0.134  14.562  18.789  0.00  0.00    +0.000 A 
ATOM     22 CL   UNL     1      -0.270  16.146  18.257  0.00  0.00    +0.000 Cl
ATOM     23  C   UNL     1      -0.850  13.580  18.855  0.00  0.00    +0.000 A 
ATOM     24  C   UNL     1      -0.521  12.294  19.294  0.00  0.00    +0.000 A 
ENDBRANCH  16  18
ENDBRANCH  11  12
BRANCH   1  26
ATOM     25  C   UNL     1       5.565   7.292  17.474  0.00  0.00    +0.000 C 
ATOM     26  C   UNL     1       4.147   6.908  17.080  0.00  0.00    +0.000 C 
ENDBRANCH   1  26
BRANCH   6  27
ATOM     27  C   UNL     1       5.181   4.072  15.920  0.00  0.00    +0.000 C 
ATOM     28  C   UNL     1       6.633   4.198  16.354  0.00  0.00    +0.000 C 
ENDBRANCH   6  27
TORSDOF 4
ENDMDL
MODEL 2
REMARK VINA RESULT:      -7.4      0.367      1.037
REMARK  Name = 
REMARK  8 active torsions:
REMARK  status: ('A' for Active; 'I' for Inactive)
REMARK    1  A    between atoms: C_1  and  C_2
REMARK    2  A    between atoms: C_2  and  C_3
REMARK    3  A    between atoms: N_6  and  C_7
REMARK    4  A    between atoms: C_8  and  C_9
REMARK    5  A    between atoms: C_9  and  C_10
REMARK    6  A    between atoms: N_15  and  N_16
REMARK    7  A    between atoms: N_16  and  C_17
REMARK    8  A    between atoms: N_20  and  C_21
REMARK                            x       y       z     vdW  Elec       q    Type
REMARK                         _______ _______ _______ _____ _____    ______ ____
ROOT
ATOM      1  C   UNL     1       4.033   5.496  17.715  0.00  0.00    +0.000 A 
ATOM      2  C   UNL     1       3.059   5.152  18.706  0.00  0.00    +0.000 A 
ATOM      3  C   UNL     1       2.955   3.771  18.709  0.00  0.00    +0.000 A 
ATOM      4  N   UNL     1       3.836   3.263  17.789  0.00  0.00    +0.000 N 
ATOM      5  C   UNL     1       4.037   1.860  17.486  0.00  0.00    +0.000 C 
ATOM      6  C   UNL     1       4.520   4.303  17.186  0.00  0.00    +0.000 A 
ATOM      7  C   UNL     1       2.042   2.972  19.579  0.00  0.00    +0.000 C 
ATOM      8  C   UNL     1       0.926   3.871  20.128  0.00  0.00    +0.000 C 
ATOM      9  C   UNL     1       1.444   5.213  20.660  0.00  0.00    +0.000 C 
ATOM     10  C   UNL     1       2.237   5.972  19.604  0.00  0.00    +0.000 C 
ATOM     11  N   UNL     1       2.273   7.254  19.400  0.00  0.00    +0.000 NA
ENDROOT
BRANCH  11  12
ATOM     12  N   UNL     1       1.612   8.229  20.122  0.00  0.00    +0.000 N 
ATOM     13  C   UNL     1       1.382   8.076  21.553  0.00  0.00    +0.000 C 
ATOM     14  C   UNL     1       1.453   9.448  19.410  0.00  0.00    +0.000 C 
ATOM     15  O   UNL     1       1.745   9.547  18.216  0.00  0.00    +0.000 OA
ATOM     16  N   UNL     1       0.944  10.505  20.152  0.00  0.00    +0.000 N 
ATOM     17  H   UNL     1       0.939  10.407  21.151  0.00  0.00    +0.000 HD
BRANCH  16  18
ATOM     18  C   UNL     1       0.656  11.809  19.683  0.00  0.00    +0.000 A 
ATOM     19  C   UNL     1      -0.494  12.148  18.965  0.00  0.00    +0.000 A 
ATOM     20  C   UNL     1      -0.698  13.460  18.519  0.00  0.00    +0.000 A 
ATOM     21  C   UNL     1       0.251  14.441  18.791  0.00  0.00    +0.000 A 
ATOM     22 CL   UNL     1       0.012  16.048  18.227  0.00  0.00    +0.000 Cl
ATOM     23  C   UNL     1       1.394  14.124  19.519  0.00  0.00    +0.000 A 
ATOM     24  C   UNL     1       1.591  12.815  19.970  0.00  0.00    +0.000 A 
ENDBRANCH  16  18
ENDBRANCH  11  12
BRANCH   1  26
ATOM     25  C   UNL     1       5.979   7.061  17.459  0.00  0.00    +0.000 C 
ATOM     26  C   UNL     1       4.472   6.883  17.340  0.00  0.00    +0.000 C 
ENDBRANCH   1  26
BRANCH   6  27
ATOM     27  C   UNL     1       5.602   4.090  16.164  0.00  0.00    +0.000 C 
ATOM     28  C   UNL     1       5.171   4.494  14.763  0.00  0.00    +0.000 C 
ENDBRANCH   6  27
TORSDOF 4
ENDMDL
MODEL 3
REMARK VINA RESULT:      -7.3      3.289      8.498
REMARK  Name = 
REMARK  8 active torsions:
REMARK  status: ('A' for Active; 'I' for Inactive)
REMARK    1  A    between atoms: C_1  and  C_2
REMARK    2  A    between atoms: C_2  and  C_3
REMARK    3  A    between atoms: N_6  and  C_7
REMARK    4  A    between atoms: C_8  and  C_9
REMARK    5  A    between atoms: C_9  and  C_10
REMARK    6  A    between atoms: N_15  and  N_16
REMARK    7  A    between atoms: N_16  and  C_17
REMARK    8  A    between atoms: N_20  and  C_21
REMARK                            x       y       z     vdW  Elec       q    Type
REMARK                         _______ _______ _______ _____ _____    ______ ____
ROOT
ATOM      1  C   UNL     1       0.157  11.730  19.668  0.00  0.00    +0.000 A 
ATOM      2  C   UNL     1       0.005  10.788  20.735  0.00  0.00    +0.000 A 
ATOM      3  C   UNL     1      -0.732  11.416  21.725  0.00  0.00    +0.000 A 
ATOM      4  N   UNL     1      -1.055  12.678  21.298  0.00  0.00    +0.000 N 
ATOM      5  C   UNL     1      -1.822  13.659  22.040  0.00  0.00    +0.000 C 
ATOM      6  C   UNL     1      -0.538  12.881  20.032  0.00  0.00    +0.000 A 
ATOM      7  C   UNL     1      -1.118  10.810  23.034  0.00  0.00    +0.000 C 
ATOM      8  C   UNL     1      -0.224   9.600  23.333  0.00  0.00    +0.000 C 
ATOM      9  C   UNL     1      -0.052   8.669  22.126  0.00  0.00    +0.000 C 
ATOM     10  C   UNL     1       0.485   9.412  20.910  0.00  0.00    +0.000 C 
ATOM     11  N   UNL     1       1.316   8.979  20.011  0.00  0.00    +0.000 NA
ENDROOT
BRANCH  11  12
ATOM     12  N   UNL     1       1.884   7.721  19.943  0.00  0.00    +0.000 N 
ATOM     13  C   UNL     1       1.475   6.663  20.857  0.00  0.00    +0.000 C 
ATOM     14  C   UNL     1       2.651   7.512  18.765  0.00  0.00    +0.000 C 
ATOM     15  O   UNL     1       2.897   8.429  17.977  0.00  0.00    +0.000 OA
ATOM     16  N   UNL     1       3.102   6.213  18.575  0.00  0.00    +0.000 N 
ATOM     17  H   UNL     1       2.683   5.494  19.135  0.00  0.00    +0.000 HD
BRANCH  16  18
ATOM     18  C   UNL     1       3.910   5.743  17.512  0.00  0.00    +0.000 A 
ATOM     19  C   UNL     1       4.677   6.568  16.686  0.00  0.00    +0.000 A 
ATOM     20  C   UNL     1       5.437   6.027  15.641  0.00  0.00    +0.000 A 
ATOM     21  C   UNL     1       5.433   4.653  15.419  0.00  0.00    +0.000 A 
ATOM     22 CL   UNL     1       6.349   3.989  14.126  0.00  0.00    +0.000 Cl
ATOM     23  C   UNL     1       4.687   3.815  16.243  0.00  0.00    +0.000 A 
ATOM     24  C   UNL     1       3.936   4.358  17.290  0.00  0.00    +0.000 A 
ENDBRANCH  16  18
ENDBRANCH  11  12
BRANCH   1  26
ATOM     25  C   UNL     1       2.274  12.158  18.389  0.00  0.00    +0.000 C 
ATOM     26  C   UNL     1       0.899  11.506  18.381  0.00  0.00    +0.000 C 
ENDBRANCH   1  26
BRANCH   6  27
ATOM     27  C   UNL     1      -0.755  14.145  19.248  0.00  0.00    +0.000 C 
ATOM     28  C   UNL     1       0.367  15.154  19.441  0.00  0.00    +0.000 C 
ENDBRANCH   6  27
TORSDOF 4
ENDMDL
MODEL 4
REMARK VINA RESULT:      -7.1      4.508      9.875
REMARK  Name = 
REMARK  8 active torsions:
REMARK  status: ('A' for Active; 'I' for Inactive)
REMARK    1  A    between atoms: C_1  and  C_2
REMARK    2  A    between atoms: C_2  and  C_3
REMARK    3  A    between atoms: N_6  and  C_7
REMARK    4  A    between atoms: C_8  and  C_9
REMARK    5  A    between atoms: C_9  and  C_10
REMARK    6  A    between atoms: N_15  and  N_16
REMARK    7  A    between atoms: N_16  and  C_17
REMARK    8  A    between atoms: N_20  and  C_21
REMARK                            x       y       z     vdW  Elec       q    Type
REMARK                         _______ _______ _______ _____ _____    ______ ____
ROOT
ATOM      1  C   UNL     1      -4.125  12.930  20.787  0.00  0.00    +0.000 A 
ATOM      2  C   UNL     1      -3.887  12.324  19.512  0.00  0.00    +0.000 A 
ATOM      3  C   UNL     1      -5.122  12.137  18.916  0.00  0.00    +0.000 A 
ATOM      4  N   UNL     1      -6.092  12.623  19.755  0.00  0.00    +0.000 N 
ATOM      5  C   UNL     1      -7.519  12.618  19.502  0.00  0.00    +0.000 C 
ATOM      6  C   UNL     1      -5.498  13.132  20.896  0.00  0.00    +0.000 A 
ATOM      7  C   UNL     1      -5.355  11.518  17.578  0.00  0.00    +0.000 C 
ATOM      8  C   UNL     1      -4.120  10.711  17.154  0.00  0.00    +0.000 C 
ATOM      9  C   UNL     1      -2.804  11.465  17.386  0.00  0.00    +0.000 C 
ATOM     10  C   UNL     1      -2.653  11.907  18.836  0.00  0.00    +0.000 C 
ATOM     11  N   UNL     1      -1.567  11.956  19.547  0.00  0.00    +0.000 NA
ENDROOT
BRANCH  11  12
ATOM     12  N   UNL     1      -0.287  11.641  19.132  0.00  0.00    +0.000 N 
ATOM     13  C   UNL     1       0.699  12.684  18.886  0.00  0.00    +0.000 C 
ATOM     14  C   UNL     1       0.019  10.259  19.250  0.00  0.00    +0.000 C 
ATOM     15  O   UNL     1      -0.839   9.425  19.547  0.00  0.00    +0.000 OA
ATOM     16  N   UNL     1       1.343   9.923  19.002  0.00  0.00    +0.000 N 
ATOM     17  H   UNL     1       2.012  10.670  18.983  0.00  0.00    +0.000 HD
BRANCH  16  18
ATOM     18  C   UNL     1       1.905   8.624  19.015  0.00  0.00    +0.000 A 
ATOM     19  C   UNL     1       1.854   7.759  20.112  0.00  0.00    +0.000 A 
ATOM     20  C   UNL     1       2.451   6.493  20.052  0.00  0.00    +0.000 A 
ATOM     21  C   UNL     1       3.104   6.087  18.892  0.00  0.00    +0.000 A 
ATOM     22 CL   UNL     1       3.854   4.542  18.824  0.00  0.00    +0.000 Cl
ATOM     23  C   UNL     1       3.150   6.930  17.786  0.00  0.00    +0.000 A 
ATOM     24  C   UNL     1       2.545   8.189  17.845  0.00  0.00    +0.000 A 
ENDBRANCH  16  18
ENDBRANCH  11  12
BRANCH   1  26
ATOM     25  C   UNL     1      -2.993  12.297  22.936  0.00  0.00    +0.000 C 
ATOM     26  C   UNL     1      -3.084  13.308  21.802  0.00  0.00    +0.000 C 
ENDBRANCH   1  26
BRANCH   6  27
ATOM     27  C   UNL     1      -6.275  13.792  22.001  0.00  0.00    +0.000 C 
ATOM     28  C   UNL     1      -6.708  12.812  23.080  0.00  0.00    +0.000 C 
ENDBRANCH   6  27
TORSDOF 4
ENDMDL
MODEL 5
REMARK VINA RESULT:      -7.0      4.159      9.632
REMARK  Name = 
REMARK  8 active torsions:
REMARK  status: ('A' for Active; 'I' for Inactive)
REMARK    1  A    between atoms: C_1  and  C_2
REMARK    2  A    between atoms: C_2  and  C_3
REMARK    3  A    between atoms: N_6  and  C_7
REMARK    4  A    between atoms: C_8  and  C_9
REMARK    5  A    between atoms: C_9  and  C_10
REMARK    6  A    between atoms: N_15  and  N_16
REMARK    7  A    between atoms: N_16  and  C_17
REMARK    8  A    between atoms: N_20  and  C_21
REMARK                            x       y       z     vdW  Elec       q    Type
REMARK                         _______ _______ _______ _____ _____    ______ ____
ROOT
ATOM      1  C   UNL     1      -2.484  12.500  22.014  0.00  0.00    +0.000 A 
ATOM      2  C   UNL     1      -2.621  12.232  20.614  0.00  0.00    +0.000 A 
ATOM      3  C   UNL     1      -3.937  12.502  20.278  0.00  0.00    +0.000 A 
ATOM      4  N   UNL     1      -4.594  12.944  21.398  0.00  0.00    +0.000 N 
ATOM      5  C   UNL     1      -5.988  13.333  21.471  0.00  0.00    +0.000 C 
ATOM      6  C   UNL     1      -3.715  12.970  22.466  0.00  0.00    +0.000 A 
ATOM      7  C   UNL     1      -4.534  12.346  18.919  0.00  0.00    +0.000 C 
ATOM      8  C   UNL     1      -3.650  11.430  18.063  0.00  0.00    +0.000 C 
ATOM      9  C   UNL     1      -2.158  11.771  18.165  0.00  0.00    +0.000 C 
ATOM     10  C   UNL     1      -1.670  11.749  19.607  0.00  0.00    +0.000 C 
ATOM     11  N   UNL     1      -0.516  11.352  20.054  0.00  0.00    +0.000 NA
ENDROOT
BRANCH  11  12
ATOM     12  N   UNL     1       0.547  10.882  19.308  0.00  0.00    +0.000 N 
ATOM     13  C   UNL     1       1.463  11.802  18.647  0.00  0.00    +0.000 C 
ATOM     14  C   UNL     1       0.795   9.496  19.491  0.00  0.00    +0.000 C 
ATOM     15  O   UNL     1       0.028   8.777  20.135  0.00  0.00    +0.000 OA
ATOM     16  N   UNL     1       1.952   9.017  18.891  0.00  0.00    +0.000 N 
ATOM     17  H   UNL     1       2.623   9.694  18.578  0.00  0.00    +0.000 HD
BRANCH  16  18
ATOM     18  C   UNL     1       2.414   7.679  18.887  0.00  0.00    +0.000 A 
ATOM     19  C   UNL     1       2.168   6.762  19.912  0.00  0.00    +0.000 A 
ATOM     20  C   UNL     1       2.676   5.459  19.843  0.00  0.00    +0.000 A 
ATOM     21  C   UNL     1       3.436   5.067  18.745  0.00  0.00    +0.000 A 
ATOM     22 CL   UNL     1       4.077   3.474  18.667  0.00  0.00    +0.000 Cl
ATOM     23  C   UNL     1       3.677   5.964  17.708  0.00  0.00    +0.000 A 
ATOM     24  C   UNL     1       3.161   7.261  17.776  0.00  0.00    +0.000 A 
ENDBRANCH  16  18
ENDBRANCH  11  12
BRANCH   1  26
ATOM     25  C   UNL     1      -1.033  10.899  23.291  0.00  0.00    +0.000 C 
ATOM     26  C   UNL     1      -1.236  12.336  22.835  0.00  0.00    +0.000 C 
ENDBRANCH   1  26
BRANCH   6  27
ATOM     27  C   UNL     1      -4.100  13.457  23.835  0.00  0.00    +0.000 C 
ATOM     28  C   UNL     1      -4.529  12.329  24.759  0.00  0.00    +0.000 C 
ENDBRANCH   6  27
TORSDOF 4
ENDMDL
MODEL 6
REMARK VINA RESULT:      -7.0      4.790     10.154
REMARK  Name = 
REMARK  8 active torsions:
REMARK  status: ('A' for Active; 'I' for Inactive)
REMARK    1  A    between atoms: C_1  and  C_2
REMARK    2  A    between atoms: C_2  and  C_3
REMARK    3  A    between atoms: N_6  and  C_7
REMARK    4  A    between atoms: C_8  and  C_9
REMARK    5  A    between atoms: C_9  and  C_10
REMARK    6  A    between atoms: N_15  and  N_16
REMARK    7  A    between atoms: N_16  and  C_17
REMARK    8  A    between atoms: N_20  and  C_21
REMARK                            x       y       z     vdW  Elec       q    Type
REMARK                         _______ _______ _______ _____ _____    ______ ____
ROOT
ATOM      1  C   UNL     1      -5.042  12.735  20.547  0.00  0.00    +0.000 A 
ATOM      2  C   UNL     1      -3.978  12.709  21.505  0.00  0.00    +0.000 A 
ATOM      3  C   UNL     1      -4.545  12.949  22.746  0.00  0.00    +0.000 A 
ATOM      4  N   UNL     1      -5.900  13.092  22.589  0.00  0.00    +0.000 N 
ATOM      5  C   UNL     1      -6.857  13.354  23.645  0.00  0.00    +0.000 C 
ATOM      6  C   UNL     1      -6.225  12.944  21.253  0.00  0.00    +0.000 A 
ATOM      7  C   UNL     1      -3.801  13.026  24.038  0.00  0.00    +0.000 C 
ATOM      8  C   UNL     1      -2.310  13.262  23.768  0.00  0.00    +0.000 C 
ATOM      9  C   UNL     1      -1.750  12.358  22.663  0.00  0.00    +0.000 C 
ATOM     10  C   UNL     1      -2.532  12.502  21.364  0.00  0.00    +0.000 C 
ATOM     11  N   UNL     1      -2.076  12.466  20.148  0.00  0.00    +0.000 NA
ENDROOT
BRANCH  11  12
ATOM     12  N   UNL     1      -0.767  12.261  19.758  0.00  0.00    +0.000 N 
ATOM     13  C   UNL     1       0.208  13.342  19.803  0.00  0.00    +0.000 C 
ATOM     14  C   UNL     1      -0.436  10.889  19.596  0.00  0.00    +0.000 C 
ATOM     15  O   UNL     1      -1.291  10.002  19.653  0.00  0.00    +0.000 OA
ATOM     16  N   UNL     1       0.908  10.627  19.367  0.00  0.00    +0.000 N 
ATOM     17  H   UNL     1       1.560  11.368  19.551  0.00  0.00    +0.000 HD
BRANCH  16  18
ATOM     18  C   UNL     1       1.499   9.361  19.138  0.00  0.00    +0.000 A 
ATOM     19  C   UNL     1       1.578   8.348  20.097  0.00  0.00    +0.000 A 
ATOM     20  C   UNL     1       2.195   7.127  19.798  0.00  0.00    +0.000 A 
ATOM     21  C   UNL     1       2.737   6.914  18.534  0.00  0.00    +0.000 A 
ATOM     22 CL   UNL     1       3.513   5.423  18.172  0.00  0.00    +0.000 Cl
ATOM     23  C   UNL     1       2.653   7.907  17.563  0.00  0.00    +0.000 A 
ATOM     24  C   UNL     1       2.028   9.121  17.862  0.00  0.00    +0.000 A 
ENDBRANCH  16  18
ENDBRANCH  11  12
BRANCH   1  26
ATOM     25  C   UNL     1      -5.320  11.142  18.628  0.00  0.00    +0.000 C 
ATOM     26  C   UNL     1      -4.911  12.541  19.063  0.00  0.00    +0.000 C 
ENDBRANCH   1  26
BRANCH   6  27
ATOM     27  C   UNL     1      -7.638  12.991  20.741  0.00  0.00    +0.000 C 
ATOM     28  C   UNL     1      -7.916  14.228  19.901  0.00  0.00    +0.000 C 
ENDBRANCH   6  27
TORSDOF 4
ENDMDL
MODEL 7
REMARK VINA RESULT:      -6.9      3.408      9.157
REMARK  Name = 
REMARK  8 active torsions:
REMARK  status: ('A' for Active; 'I' for Inactive)
REMARK    1  A    between atoms: C_1  and  C_2
REMARK    2  A    between atoms: C_2  and  C_3
REMARK    3  A    between atoms: N_6  and  C_7
REMARK    4  A    between atoms: C_8  and  C_9
REMARK    5  A    between atoms: C_9  and  C_10
REMARK    6  A    between atoms: N_15  and  N_16
REMARK    7  A    between atoms: N_16  and  C_17
REMARK    8  A    between atoms: N_20  and  C_21
REMARK                            x       y       z     vdW  Elec       q    Type
REMARK                         _______ _______ _______ _____ _____    ______ ____
ROOT
ATOM      1  C   UNL     1       0.227  13.511  19.871  0.00  0.00    +0.000 A 
ATOM      2  C   UNL     1      -0.441  12.808  20.925  0.00  0.00    +0.000 A 
ATOM      3  C   UNL     1      -1.467  13.625  21.369  0.00  0.00    +0.000 A 
ATOM      4  N   UNL     1      -1.470  14.773  20.619  0.00  0.00    +0.000 N 
ATOM      5  C   UNL     1      -2.388  15.885  20.765  0.00  0.00    +0.000 C 
ATOM      6  C   UNL     1      -0.453  14.712  19.683  0.00  0.00    +0.000 A 
ATOM      7  C   UNL     1      -2.417  13.301  22.473  0.00  0.00    +0.000 C 
ATOM      8  C   UNL     1      -1.840  12.177  23.345  0.00  0.00    +0.000 C 
ATOM      9  C   UNL     1      -1.261  11.019  22.523  0.00  0.00    +0.000 C 
ATOM     10  C   UNL     1      -0.201  11.497  21.540  0.00  0.00    +0.000 C 
ATOM     11  N   UNL     1       0.889  10.889  21.182  0.00  0.00    +0.000 NA
ENDROOT
BRANCH  11  12
ATOM     12  N   UNL     1       1.321   9.645  21.598  0.00  0.00    +0.000 N 
ATOM     13  C   UNL     1       1.348   9.294  23.011  0.00  0.00    +0.000 C 
ATOM     14  C   UNL     1       1.449   8.709  20.537  0.00  0.00    +0.000 C 
ATOM     15  O   UNL     1       1.332   9.043  19.355  0.00  0.00    +0.000 OA
ATOM     16  N   UNL     1       1.720   7.404  20.927  0.00  0.00    +0.000 N 
ATOM     17  H   UNL     1       1.585   7.176  21.895  0.00  0.00    +0.000 HD
BRANCH  16  18
ATOM     18  C   UNL     1       1.928   6.291  20.078  0.00  0.00    +0.000 A 
ATOM     19  C   UNL     1       2.610   6.351  18.860  0.00  0.00    +0.000 A 
ATOM     20  C   UNL     1       2.759   5.206  18.067  0.00  0.00    +0.000 A 
ATOM     21  C   UNL     1       2.226   3.992  18.492  0.00  0.00    +0.000 A 
ATOM     22 CL   UNL     1       2.390   2.590  17.511  0.00  0.00    +0.000 Cl
ATOM     23  C   UNL     1       1.558   3.912  19.710  0.00  0.00    +0.000 A 
ATOM     24  C   UNL     1       1.418   5.055  20.503  0.00  0.00    +0.000 A 
ENDBRANCH  16  18
ENDBRANCH  11  12
BRANCH   1  26
ATOM     25  C   UNL     1       2.722  13.609  19.617  0.00  0.00    +0.000 C 
ATOM     26  C   UNL     1       1.417  13.028  19.093  0.00  0.00    +0.000 C 
ENDBRANCH   1  26
BRANCH   6  27
ATOM     27  C   UNL     1      -0.210  15.789  18.662  0.00  0.00    +0.000 C 
ATOM     28  C   UNL     1       0.847  16.788  19.105  0.00  0.00    +0.000 C 
ENDBRANCH   6  27
TORSDOF 4
ENDMDL
MODEL 8
REMARK VINA RESULT:      -6.8      4.247      9.729
REMARK  Name = 
REMARK  8 active torsions:
REMARK  status: ('A' for Active; 'I' for Inactive)
REMARK    1  A    between atoms: C_1  and  C_2
REMARK    2  A    between atoms: C_2  and  C_3
REMARK    3  A    between atoms: N_6  and  C_7
REMARK    4  A    between atoms: C_8  and  C_9
REMARK    5  A    between atoms: C_9  and  C_10
REMARK    6  A    between atoms: N_15  and  N_16
REMARK    7  A    between atoms: N_16  and  C_17
REMARK    8  A    between atoms: N_20  and  C_21
REMARK                            x       y       z     vdW  Elec       q    Type
REMARK                         _______ _______ _______ _____ _____    ______ ____
ROOT
ATOM      1  C   UNL     1      -2.837  12.662  22.040  0.00  0.00    +0.000 A 
ATOM      2  C   UNL     1      -2.916  12.350  20.645  0.00  0.00    +0.000 A 
ATOM      3  C   UNL     1      -4.237  12.520  20.267  0.00  0.00    +0.000 A 
ATOM      4  N   UNL     1      -4.954  12.944  21.356  0.00  0.00    +0.000 N 
ATOM      5  C   UNL     1      -6.373  13.238  21.382  0.00  0.00    +0.000 C 
ATOM      6  C   UNL     1      -4.109  13.058  22.445  0.00  0.00    +0.000 A 
ATOM      7  C   UNL     1      -4.784  12.288  18.897  0.00  0.00    +0.000 C 
ATOM      8  C   UNL     1      -3.816  11.413  18.090  0.00  0.00    +0.000 C 
ATOM      9  C   UNL     1      -2.354  11.859  18.222  0.00  0.00    +0.000 C 
ATOM     10  C   UNL     1      -1.906  11.908  19.676  0.00  0.00    +0.000 C 
ATOM     11  N   UNL     1      -0.741  11.604  20.165  0.00  0.00    +0.000 NA
ENDROOT
BRANCH  11  12
ATOM     12  N   UNL     1       0.372  11.189  19.460  0.00  0.00    +0.000 N 
ATOM     13  C   UNL     1       1.336  12.153  18.946  0.00  0.00    +0.000 C 
ATOM     14  C   UNL     1       0.604   9.790  19.543  0.00  0.00    +0.000 C 
ATOM     15  O   UNL     1      -0.210   9.026  20.067  0.00  0.00    +0.000 OA
ATOM     16  N   UNL     1       1.800   9.354  18.989  0.00  0.00    +0.000 N 
ATOM     17  H   UNL     1       2.493  10.050  18.783  0.00  0.00    +0.000 HD
BRANCH  16  18
ATOM     18  C   UNL     1       2.258   8.017  18.906  0.00  0.00    +0.000 A 
ATOM     19  C   UNL     1       2.869   7.466  17.777  0.00  0.00    +0.000 A 
ATOM     20  C   UNL     1       3.280   6.128  17.767  0.00  0.00    +0.000 A 
ATOM     21  C   UNL     1       3.080   5.331  18.891  0.00  0.00    +0.000 A 
ATOM     22 CL   UNL     1       3.565   3.682  18.874  0.00  0.00    +0.000 Cl
ATOM     23  C   UNL     1       2.487   5.869  20.030  0.00  0.00    +0.000 A 
ATOM     24  C   UNL     1       2.087   7.208  20.040  0.00  0.00    +0.000 A 
ENDBRANCH  16  18
ENDBRANCH  11  12
BRANCH   1  26
ATOM     25  C   UNL     1      -0.914  13.958  23.000  0.00  0.00    +0.000 C 
ATOM     26  C   UNL     1      -1.604  12.606  22.897  0.00  0.00    +0.000 C 
ENDBRANCH   1  26
BRANCH   6  27
ATOM     27  C   UNL     1      -4.565  13.552  23.790  0.00  0.00    +0.000 C 
ATOM     28  C   UNL     1      -4.559  12.461  24.849  0.00  0.00    +0.000 C 
ENDBRANCH   6  27
TORSDOF 4
ENDMDL
MODEL 9
REMARK VINA RESULT:      -6.8      3.681      8.874
REMARK  Name = 
REMARK  8 active torsions:
REMARK  status: ('A' for Active; 'I' for Inactive)
REMARK    1  A    between atoms: C_1  and  C_2
REMARK    2  A    between atoms: C_2  and  C_3
REMARK    3  A    between atoms: N_6  and  C_7
REMARK    4  A    between atoms: C_8  and  C_9
REMARK    5  A    between atoms: C_9  and  C_10
REMARK    6  A    between atoms: N_15  and  N_16
REMARK    7  A    between atoms: N_16  and  C_17
REMARK    8  A    between atoms: N_20  and  C_21
REMARK                            x       y       z     vdW  Elec       q    Type
REMARK                         _______ _______ _______ _____ _____    ______ ____
ROOT
ATOM      1  C   UNL     1      -2.515  10.879  18.736  0.00  0.00    +0.000 A 
ATOM      2  C   UNL     1      -1.694  11.152  19.876  0.00  0.00    +0.000 A 
ATOM      3  C   UNL     1      -2.239  12.255  20.512  0.00  0.00    +0.000 A 
ATOM      4  N   UNL     1      -3.363  12.644  19.829  0.00  0.00    +0.000 N 
ATOM      5  C   UNL     1      -4.224  13.759  20.170  0.00  0.00    +0.000 C 
ATOM      6  C   UNL     1      -3.560  11.800  18.751  0.00  0.00    +0.000 A 
ATOM      7  C   UNL     1      -1.696  12.902  21.743  0.00  0.00    +0.000 C 
ATOM      8  C   UNL     1      -0.232  12.489  21.947  0.00  0.00    +0.000 C 
ATOM      9  C   UNL     1      -0.002  10.985  21.757  0.00  0.00    +0.000 C 
ATOM     10  C   UNL     1      -0.481  10.507  20.393  0.00  0.00    +0.000 C 
ATOM     11  N   UNL     1       0.053   9.601  19.630  0.00  0.00    +0.000 NA
ENDROOT
BRANCH  11  12
ATOM     12  N   UNL     1       1.173   8.840  19.904  0.00  0.00    +0.000 N 
ATOM     13  C   UNL     1       1.515   8.474  21.272  0.00  0.00    +0.000 C 
ATOM     14  C   UNL     1       1.751   8.251  18.747  0.00  0.00    +0.000 C 
ATOM     15  O   UNL     1       1.364   8.533  17.611  0.00  0.00    +0.000 OA
ATOM     16  N   UNL     1       2.777   7.348  18.992  0.00  0.00    +0.000 N 
ATOM     17  H   UNL     1       2.882   7.014  19.933  0.00  0.00    +0.000 HD
BRANCH  16  18
ATOM     18  C   UNL     1       3.541   6.651  18.027  0.00  0.00    +0.000 A 
ATOM     19  C   UNL     1       4.417   7.265  17.127  0.00  0.00    +0.000 A 
ATOM     20  C   UNL     1       5.125   6.505  16.187  0.00  0.00    +0.000 A 
ATOM     21  C   UNL     1       4.960   5.124  16.144  0.00  0.00    +0.000 A 
ATOM     22 CL   UNL     1       5.814   4.193  14.978  0.00  0.00    +0.000 Cl
ATOM     23  C   UNL     1       4.104   4.495  17.043  0.00  0.00    +0.000 A 
ATOM     24  C   UNL     1       3.405   5.255  17.986  0.00  0.00    +0.000 A 
ENDBRANCH  16  18
ENDBRANCH  11  12
BRANCH   1  26
ATOM     25  C   UNL     1      -2.264  10.310  16.305  0.00  0.00    +0.000 C 
ATOM     26  C   UNL     1      -2.308   9.782  17.731  0.00  0.00    +0.000 C 
ENDBRANCH   1  26
BRANCH   6  27
ATOM     27  C   UNL     1      -4.736  11.916  17.822  0.00  0.00    +0.000 C 
ATOM     28  C   UNL     1      -5.882  10.995  18.210  0.00  0.00    +0.000 C 
ENDBRANCH   6  27
TORSDOF 4
ENDMDL
