MODEL 1
REMARK VINA RESULT:      -8.1      0.000      0.000
REMARK  Name = 
REMARK  7 active torsions:
REMARK  status: ('A' for Active; 'I' for Inactive)
REMARK    1  A    between atoms: C_1  and  C_2
REMARK    2  A    between atoms: C_2  and  C_3
REMARK    3  A    between atoms: C_3  and  C_4
REMARK    4  A    between atoms: C_6  and  N_7
REMARK    5  A    between atoms: C_11  and  C_12
REMARK    6  A    between atoms: N_14  and  C_15
REMARK    7  A    between atoms: C_24  and  C_25
REMARK                            x       y       z     vdW  Elec       q    Type
REMARK                         _______ _______ _______ _____ _____    ______ ____
ROOT
ATOM      1  N   UNL     1       3.914   4.997  17.718  0.00  0.00    +0.000 N 
ATOM      2  C   UNL     1       3.387   3.638  17.606  0.00  0.00    +0.000 C 
ATOM      3  C   UNL     1       2.993   3.156  19.028  0.00  0.00    +0.000 C 
ATOM      4  N   UNL     1       2.036   4.064  19.692  0.00  0.00    +0.000 NA
ATOM      5  C   UNL     1       2.617   5.442  19.775  0.00  0.00    +0.000 C 
ATOM      6  C   UNL     1       3.034   5.971  18.381  0.00  0.00    +0.000 C 
ATOM      7  H   UNL     1       1.844   3.741  20.644  0.00  0.00    +0.000 HD
ENDROOT
BRANCH   1  10
ATOM      8  C   UNL     1       6.626   5.151  15.305  0.00  0.00    +0.000 A 
ATOM      9  C   UNL     1       5.445   4.764  15.901  0.00  0.00    +0.000 A 
ATOM     10  C   UNL     1       5.080   5.370  17.089  0.00  0.00    +0.000 A 
ATOM     11  N   UNL     1       5.847   6.334  17.632  0.00  0.00    +0.000 NA
ATOM     12  C   UNL     1       7.012   6.620  17.014  0.00  0.00    +0.000 A 
ATOM     13  C   UNL     1       7.936   7.607  17.655  0.00  0.00    +0.000 C 
ATOM     14  N   UNL     1       7.428   6.072  15.860  0.00  0.00    +0.000 NA
BRANCH   8  15
ATOM     15  C   UNL     1       7.060   4.556  13.991  0.00  0.00    +0.000 C 
BRANCH  15  17
ATOM     16  C   UNL     1       6.382   3.098  12.054  0.00  0.00    +0.000 C 
ATOM     17  C   UNL     1       5.905   3.842  13.290  0.00  0.00    +0.000 C 
ENDBRANCH  15  17
ENDBRANCH   8  15
ENDBRANCH   1  10
BRANCH   5  18
ATOM     18  C   UNL     1       1.589   6.381  20.441  0.00  0.00    +0.000 C 
ATOM     19  O   UNL     1       0.562   5.917  20.890  0.00  0.00    +0.000 OA
ATOM     20  N   UNL     1       1.931   7.739  20.454  0.00  0.00    +0.000 N 
ATOM     21  H   UNL     1       2.675   8.042  19.831  0.00  0.00    +0.000 HD
BRANCH  20  22
ATOM     22  C   UNL     1       1.114   8.723  21.057  0.00  0.00    +0.000 A 
ATOM     23  C   UNL     1       1.002   8.833  22.446  0.00  0.00    +0.000 A 
ATOM     24  C   UNL     1       0.141   9.755  23.031  0.00  0.00    +0.000 A 
ATOM     25  C   UNL     1      -0.609  10.583  22.213  0.00  0.00    +0.000 A 
ATOM     26  F   UNL     1      -1.458  11.458  22.768  0.00  0.00    +0.000 F 
ATOM     27  C   UNL     1      -0.496  10.513  20.829  0.00  0.00    +0.000 A 
ATOM     28  C   UNL     1       0.381   9.594  20.245  0.00  0.00    +0.000 A 
ENDBRANCH  20  22
ENDBRANCH   5  18
TORSDOF 5
ENDMDL
MODEL 2
REMARK VINA RESULT:      -8.1      0.328      1.001
REMARK  Name = 
REMARK  7 active torsions:
REMARK  status: ('A' for Active; 'I' for Inactive)
REMARK    1  A    between atoms: C_1  and  C_2
REMARK    2  A    between atoms: C_2  and  C_3
REMARK    3  A    between atoms: C_3  and  C_4
REMARK    4  A    between atoms: C_6  and  N_7
REMARK    5  A    between atoms: C_11  and  C_12
REMARK    6  A    between atoms: N_14  and  C_15
REMARK    7  A    between atoms: C_24  and  C_25
REMARK                            x       y       z     vdW  Elec       q    Type
REMARK                         _______ _______ _______ _____ _____    ______ ____
ROOT
ATOM      1  N   UNL     1       4.170   4.851  18.030  0.00  0.00    +0.000 N 
ATOM      2  C   UNL     1       3.844   3.434  18.177  0.00  0.00    +0.000 C 
ATOM      3  C   UNL     1       3.540   3.163  19.675  0.00  0.00    +0.000 C 
ATOM      4  N   UNL     1       2.470   4.032  20.205  0.00  0.00    +0.000 NA
ATOM      5  C   UNL     1       2.848   5.470  20.024  0.00  0.00    +0.000 C 
ATOM      6  C   UNL     1       3.167   5.795  18.545  0.00  0.00    +0.000 C 
ATOM      7  H   UNL     1       2.338   3.861  21.205  0.00  0.00    +0.000 HD
ENDROOT
BRANCH   1  10
ATOM      8  C   UNL     1       6.679   5.073  15.411  0.00  0.00    +0.000 A 
ATOM      9  C   UNL     1       5.570   4.643  16.106  0.00  0.00    +0.000 A 
ATOM     10  C   UNL     1       5.263   5.266  17.303  0.00  0.00    +0.000 A 
ATOM     11  N   UNL     1       6.016   6.285  17.758  0.00  0.00    +0.000 NA
ATOM     12  C   UNL     1       7.113   6.612  17.045  0.00  0.00    +0.000 A 
ATOM     13  C   UNL     1       8.028   7.664  17.586  0.00  0.00    +0.000 C 
ATOM     14  N   UNL     1       7.469   6.051  15.877  0.00  0.00    +0.000 NA
BRANCH   8  15
ATOM     15  C   UNL     1       7.043   4.462  14.083  0.00  0.00    +0.000 C 
BRANCH  15  17
ATOM     16  C   UNL     1       6.195   3.154  12.106  0.00  0.00    +0.000 C 
ATOM     17  C   UNL     1       5.810   3.936  13.350  0.00  0.00    +0.000 C 
ENDBRANCH  15  17
ENDBRANCH   8  15
ENDBRANCH   1  10
BRANCH   5  18
ATOM     18  C   UNL     1       1.702   6.360  20.554  0.00  0.00    +0.000 C 
ATOM     19  O   UNL     1       0.610   5.871  20.751  0.00  0.00    +0.000 OA
ATOM     20  N   UNL     1       2.027   7.709  20.750  0.00  0.00    +0.000 N 
ATOM     21  H   UNL     1       2.878   8.055  20.313  0.00  0.00    +0.000 HD
BRANCH  20  22
ATOM     22  C   UNL     1       1.102   8.646  21.263  0.00  0.00    +0.000 A 
ATOM     23  C   UNL     1       0.358   9.479  20.421  0.00  0.00    +0.000 A 
ATOM     24  C   UNL     1      -0.497  10.448  20.935  0.00  0.00    +0.000 A 
ATOM     25  C   UNL     1      -0.616  10.576  22.308  0.00  0.00    +0.000 A 
ATOM     26  F   UNL     1      -1.420  11.522  22.811  0.00  0.00    +0.000 F 
ATOM     27  C   UNL     1       0.091   9.742  23.168  0.00  0.00    +0.000 A 
ATOM     28  C   UNL     1       0.939   8.760  22.647  0.00  0.00    +0.000 A 
ENDBRANCH  20  22
ENDBRANCH   5  18
TORSDOF 5
ENDMDL
MODEL 3
REMARK VINA RESULT:      -7.9      1.554      1.836
REMARK  Name = 
REMARK  7 active torsions:
REMARK  status: ('A' for Active; 'I' for Inactive)
REMARK    1  A    between atoms: C_1  and  C_2
REMARK    2  A    between atoms: C_2  and  C_3
REMARK    3  A    between atoms: C_3  and  C_4
REMARK    4  A    between atoms: C_6  and  N_7
REMARK    5  A    between atoms: C_11  and  C_12
REMARK    6  A    between atoms: N_14  and  C_15
REMARK    7  A    between atoms: C_24  and  C_25
REMARK                            x       y       z     vdW  Elec       q    Type
REMARK                         _______ _______ _______ _____ _____    ______ ____
ROOT
ATOM      1  N   UNL     1       3.691   5.891  18.149  0.00  0.00    +0.000 N 
ATOM      2  C   UNL     1       3.092   4.586  18.422  0.00  0.00    +0.000 C 
ATOM      3  C   UNL     1       2.646   4.562  19.909  0.00  0.00    +0.000 C 
ATOM      4  N   UNL     1       1.729   5.670  20.246  0.00  0.00    +0.000 NA
ATOM      5  C   UNL     1       2.384   6.982  19.941  0.00  0.00    +0.000 C 
ATOM      6  C   UNL     1       2.854   7.058  18.469  0.00  0.00    +0.000 C 
ATOM      7  H   UNL     1       1.502   5.651  21.243  0.00  0.00    +0.000 HD
ENDROOT
BRANCH   1  10
ATOM      8  C   UNL     1       6.406   5.258  15.820  0.00  0.00    +0.000 A 
ATOM      9  C   UNL     1       5.195   5.121  16.461  0.00  0.00    +0.000 A 
ATOM     10  C   UNL     1       4.887   6.008  17.478  0.00  0.00    +0.000 A 
ATOM     11  N   UNL     1       5.741   6.994  17.810  0.00  0.00    +0.000 NA
ATOM     12  C   UNL     1       6.927   7.029  17.169  0.00  0.00    +0.000 A 
ATOM     13  C   UNL     1       7.940   8.044  17.595  0.00  0.00    +0.000 C 
ATOM     14  N   UNL     1       7.291   6.202  16.173  0.00  0.00    +0.000 NA
BRANCH   8  15
ATOM     15  C   UNL     1       6.783   4.348  14.679  0.00  0.00    +0.000 C 
BRANCH  15  17
ATOM     16  C   UNL     1       6.021   3.396  12.477  0.00  0.00    +0.000 C 
ATOM     17  C   UNL     1       5.587   4.060  13.774  0.00  0.00    +0.000 C 
ENDBRANCH  15  17
ENDBRANCH   8  15
ENDBRANCH   1  10
BRANCH   5  18
ATOM     18  C   UNL     1       1.397   8.123  20.269  0.00  0.00    +0.000 C 
ATOM     19  O   UNL     1       0.768   8.087  21.305  0.00  0.00    +0.000 OA
ATOM     20  N   UNL     1       1.292   9.128  19.298  0.00  0.00    +0.000 N 
ATOM     21  H   UNL     1       1.660   8.927  18.372  0.00  0.00    +0.000 HD
BRANCH  20  22
ATOM     22  C   UNL     1       0.459  10.259  19.463  0.00  0.00    +0.000 A 
ATOM     23  C   UNL     1       0.847  11.348  20.249  0.00  0.00    +0.000 A 
ATOM     24  C   UNL     1      -0.007  12.424  20.465  0.00  0.00    +0.000 A 
ATOM     25  C   UNL     1      -1.260  12.413  19.877  0.00  0.00    +0.000 A 
ATOM     26  F   UNL     1      -2.097  13.434  20.098  0.00  0.00    +0.000 F 
ATOM     27  C   UNL     1      -1.661  11.355  19.068  0.00  0.00    +0.000 A 
ATOM     28  C   UNL     1      -0.794  10.281  18.843  0.00  0.00    +0.000 A 
ENDBRANCH  20  22
ENDBRANCH   5  18
TORSDOF 5
ENDMDL
MODEL 4
REMARK VINA RESULT:      -7.9      0.814      2.833
REMARK  Name = 
REMARK  7 active torsions:
REMARK  status: ('A' for Active; 'I' for Inactive)
REMARK    1  A    between atoms: C_1  and  C_2
REMARK    2  A    between atoms: C_2  and  C_3
REMARK    3  A    between atoms: C_3  and  C_4
REMARK    4  A    between atoms: C_6  and  N_7
REMARK    5  A    between atoms: C_11  and  C_12
REMARK    6  A    between atoms: N_14  and  C_15
REMARK    7  A    between atoms: C_24  and  C_25
REMARK                            x       y       z     vdW  Elec       q    Type
REMARK                         _______ _______ _______ _____ _____    ______ ____
ROOT
ATOM      1  N   UNL     1       3.872   4.985  17.705  0.00  0.00    +0.000 N 
ATOM      2  C   UNL     1       3.265   3.674  17.482  0.00  0.00    +0.000 C 
ATOM      3  C   UNL     1       2.776   3.131  18.851  0.00  0.00    +0.000 C 
ATOM      4  N   UNL     1       1.850   4.057  19.533  0.00  0.00    +0.000 NA
ATOM      5  C   UNL     1       2.514   5.385  19.731  0.00  0.00    +0.000 C 
ATOM      6  C   UNL     1       3.027   5.972  18.394  0.00  0.00    +0.000 C 
ATOM      7  H   UNL     1       1.595   3.689  20.453  0.00  0.00    +0.000 HD
ENDROOT
BRANCH   1  10
ATOM      8  C   UNL     1       7.143   6.498  17.240  0.00  0.00    +0.000 A 
ATOM      9  C   UNL     1       5.940   6.173  17.828  0.00  0.00    +0.000 A 
ATOM     10  C   UNL     1       5.088   5.319  17.151  0.00  0.00    +0.000 A 
ATOM     11  N   UNL     1       5.442   4.798  15.961  0.00  0.00    +0.000 NA
ATOM     12  C   UNL     1       6.613   5.205  15.430  0.00  0.00    +0.000 A 
ATOM     13  C   UNL     1       6.978   4.730  14.060  0.00  0.00    +0.000 C 
ATOM     14  N   UNL     1       7.487   6.030  16.031  0.00  0.00    +0.000 NA
BRANCH   8  15
ATOM     15  C   UNL     1       8.130   7.393  17.943  0.00  0.00    +0.000 C 
BRANCH  15  17
ATOM     16  C   UNL     1       8.783   9.769  18.457  0.00  0.00    +0.000 C 
ATOM     17  C   UNL     1       7.812   8.869  17.712  0.00  0.00    +0.000 C 
ENDBRANCH  15  17
ENDBRANCH   8  15
ENDBRANCH   1  10
BRANCH   5  18
ATOM     18  C   UNL     1       1.519   6.347  20.415  0.00  0.00    +0.000 C 
ATOM     19  O   UNL     1       0.492   5.905  20.886  0.00  0.00    +0.000 OA
ATOM     20  N   UNL     1       1.889   7.698  20.416  0.00  0.00    +0.000 N 
ATOM     21  H   UNL     1       2.626   7.984  19.776  0.00  0.00    +0.000 HD
BRANCH  20  22
ATOM     22  C   UNL     1       1.104   8.700  21.031  0.00  0.00    +0.000 A 
ATOM     23  C   UNL     1       1.005   8.803  22.422  0.00  0.00    +0.000 A 
ATOM     24  C   UNL     1       0.175   9.745  23.020  0.00  0.00    +0.000 A 
ATOM     25  C   UNL     1      -0.558  10.599  22.214  0.00  0.00    +0.000 A 
ATOM     26  F   UNL     1      -1.378  11.494  22.781  0.00  0.00    +0.000 F 
ATOM     27  C   UNL     1      -0.457  10.536  20.828  0.00  0.00    +0.000 A 
ATOM     28  C   UNL     1       0.390   9.597  20.231  0.00  0.00    +0.000 A 
ENDBRANCH  20  22
ENDBRANCH   5  18
TORSDOF 5
ENDMDL
MODEL 5
REMARK VINA RESULT:      -7.8      1.193      1.531
REMARK  Name = 
REMARK  7 active torsions:
REMARK  status: ('A' for Active; 'I' for Inactive)
REMARK    1  A    between atoms: C_1  and  C_2
REMARK    2  A    between atoms: C_2  and  C_3
REMARK    3  A    between atoms: C_3  and  C_4
REMARK    4  A    between atoms: C_6  and  N_7
REMARK    5  A    between atoms: C_11  and  C_12
REMARK    6  A    between atoms: N_14  and  C_15
REMARK    7  A    between atoms: C_24  and  C_25
REMARK                            x       y       z     vdW  Elec       q    Type
REMARK                         _______ _______ _______ _____ _____    ______ ____
ROOT
ATOM      1  N   UNL     1       3.809   5.848  17.954  0.00  0.00    +0.000 N 
ATOM      2  C   UNL     1       3.172   4.568  18.257  0.00  0.00    +0.000 C 
ATOM      3  C   UNL     1       2.707   4.600  19.737  0.00  0.00    +0.000 C 
ATOM      4  N   UNL     1       1.816   5.741  20.029  0.00  0.00    +0.000 NA
ATOM      5  C   UNL     1       2.510   7.026  19.696  0.00  0.00    +0.000 C 
ATOM      6  C   UNL     1       3.000   7.046  18.228  0.00  0.00    +0.000 C 
ATOM      7  H   UNL     1       1.577   5.758  21.024  0.00  0.00    +0.000 HD
ENDROOT
BRANCH   1  10
ATOM      8  C   UNL     1       6.498   5.133  15.617  0.00  0.00    +0.000 A 
ATOM      9  C   UNL     1       5.274   5.050  16.245  0.00  0.00    +0.000 A 
ATOM     10  C   UNL     1       5.017   5.913  17.296  0.00  0.00    +0.000 A 
ATOM     11  N   UNL     1       5.931   6.827  17.673  0.00  0.00    +0.000 NA
ATOM     12  C   UNL     1       7.122   6.809  17.042  0.00  0.00    +0.000 A 
ATOM     13  C   UNL     1       8.195   7.737  17.516  0.00  0.00    +0.000 C 
ATOM     14  N   UNL     1       7.439   6.001  16.015  0.00  0.00    +0.000 NA
BRANCH   8  15
ATOM     15  C   UNL     1       6.825   4.247  14.443  0.00  0.00    +0.000 C 
BRANCH  15  17
ATOM     16  C   UNL     1       5.953   3.264  12.296  0.00  0.00    +0.000 C 
ATOM     17  C   UNL     1       5.586   3.960  13.596  0.00  0.00    +0.000 C 
ENDBRANCH  15  17
ENDBRANCH   8  15
ENDBRANCH   1  10
BRANCH   5  18
ATOM     18  C   UNL     1       1.550   8.202  19.977  0.00  0.00    +0.000 C 
ATOM     19  O   UNL     1       0.979   8.739  19.052  0.00  0.00    +0.000 OA
ATOM     20  N   UNL     1       1.432   8.577  21.322  0.00  0.00    +0.000 N 
ATOM     21  H   UNL     1       2.141   8.238  21.968  0.00  0.00    +0.000 HD
BRANCH  20  22
ATOM     22  C   UNL     1       0.569   9.611  21.749  0.00  0.00    +0.000 A 
ATOM     23  C   UNL     1       0.638  10.897  21.203  0.00  0.00    +0.000 A 
ATOM     24  C   UNL     1      -0.166  11.928  21.679  0.00  0.00    +0.000 A 
ATOM     25  C   UNL     1      -1.055  11.664  22.707  0.00  0.00    +0.000 A 
ATOM     26  F   UNL     1      -1.816  12.656  23.186  0.00  0.00    +0.000 F 
ATOM     27  C   UNL     1      -1.163  10.388  23.248  0.00  0.00    +0.000 A 
ATOM     28  C   UNL     1      -0.363   9.351  22.758  0.00  0.00    +0.000 A 
ENDBRANCH  20  22
ENDBRANCH   5  18
TORSDOF 5
ENDMDL
MODEL 6
REMARK VINA RESULT:      -7.7      1.614      2.043
REMARK  Name = 
REMARK  7 active torsions:
REMARK  status: ('A' for Active; 'I' for Inactive)
REMARK    1  A    between atoms: C_1  and  C_2
REMARK    2  A    between atoms: C_2  and  C_3
REMARK    3  A    between atoms: C_3  and  C_4
REMARK    4  A    between atoms: C_6  and  N_7
REMARK    5  A    between atoms: C_11  and  C_12
REMARK    6  A    between atoms: N_14  and  C_15
REMARK    7  A    between atoms: C_24  and  C_25
REMARK                            x       y       z     vdW  Elec       q    Type
REMARK                         _______ _______ _______ _____ _____    ______ ____
ROOT
ATOM      1  N   UNL     1       3.478   5.767  18.281  0.00  0.00    +0.000 N 
ATOM      2  C   UNL     1       2.790   4.512  18.579  0.00  0.00    +0.000 C 
ATOM      3  C   UNL     1       2.382   4.530  20.076  0.00  0.00    +0.000 C 
ATOM      4  N   UNL     1       1.560   5.706  20.428  0.00  0.00    +0.000 NA
ATOM      5  C   UNL     1       2.304   6.963  20.098  0.00  0.00    +0.000 C 
ATOM      6  C   UNL     1       2.739   6.995  18.614  0.00  0.00    +0.000 C 
ATOM      7  H   UNL     1       1.359   5.708  21.431  0.00  0.00    +0.000 HD
ENDROOT
BRANCH   1  10
ATOM      8  C   UNL     1       6.143   4.830  15.996  0.00  0.00    +0.000 A 
ATOM      9  C   UNL     1       4.943   4.784  16.671  0.00  0.00    +0.000 A 
ATOM     10  C   UNL     1       4.662   5.790  17.579  0.00  0.00    +0.000 A 
ATOM     11  N   UNL     1       5.530   6.801  17.773  0.00  0.00    +0.000 NA
ATOM     12  C   UNL     1       6.704   6.746  17.111  0.00  0.00    +0.000 A 
ATOM     13  C   UNL     1       7.732   7.795  17.393  0.00  0.00    +0.000 C 
ATOM     14  N   UNL     1       7.041   5.801  16.217  0.00  0.00    +0.000 NA
BRANCH   8  15
ATOM     15  C   UNL     1       6.491   3.786  14.968  0.00  0.00    +0.000 C 
BRANCH  15  17
ATOM     16  C   UNL     1       5.892   3.478  12.542  0.00  0.00    +0.000 C 
ATOM     17  C   UNL     1       6.560   4.384  13.563  0.00  0.00    +0.000 C 
ENDBRANCH  15  17
ENDBRANCH   8  15
ENDBRANCH   1  10
BRANCH   5  18
ATOM     18  C   UNL     1       1.414   8.177  20.443  0.00  0.00    +0.000 C 
ATOM     19  O   UNL     1       0.936   8.269  21.554  0.00  0.00    +0.000 OA
ATOM     20  N   UNL     1       1.210   9.091  19.401  0.00  0.00    +0.000 N 
ATOM     21  H   UNL     1       1.437   8.787  18.458  0.00  0.00    +0.000 HD
BRANCH  20  22
ATOM     22  C   UNL     1       0.450  10.272  19.565  0.00  0.00    +0.000 A 
ATOM     23  C   UNL     1      -0.896  10.335  19.192  0.00  0.00    +0.000 A 
ATOM     24  C   UNL     1      -1.618  11.520  19.289  0.00  0.00    +0.000 A 
ATOM     25  C   UNL     1      -0.985  12.652  19.775  0.00  0.00    +0.000 A 
ATOM     26  F   UNL     1      -1.667  13.802  19.850  0.00  0.00    +0.000 F 
ATOM     27  C   UNL     1       0.345  12.609  20.179  0.00  0.00    +0.000 A 
ATOM     28  C   UNL     1       1.063  11.412  20.092  0.00  0.00    +0.000 A 
ENDBRANCH  20  22
ENDBRANCH   5  18
TORSDOF 5
ENDMDL
MODEL 7
REMARK VINA RESULT:      -7.7      3.994      7.968
REMARK  Name = 
REMARK  7 active torsions:
REMARK  status: ('A' for Active; 'I' for Inactive)
REMARK    1  A    between atoms: C_1  and  C_2
REMARK    2  A    between atoms: C_2  and  C_3
REMARK    3  A    between atoms: C_3  and  C_4
REMARK    4  A    between atoms: C_6  and  N_7
REMARK    5  A    between atoms: C_11  and  C_12
REMARK    6  A    between atoms: N_14  and  C_15
REMARK    7  A    between atoms: C_24  and  C_25
REMARK                            x       y       z     vdW  Elec       q    Type
REMARK                         _______ _______ _______ _____ _____    ______ ____
ROOT
ATOM      1  N   UNL     1       5.568   5.084  17.822  0.00  0.00    +0.000 N 
ATOM      2  C   UNL     1       6.103   4.478  16.604  0.00  0.00    +0.000 C 
ATOM      3  C   UNL     1       6.623   5.618  15.688  0.00  0.00    +0.000 C 
ATOM      4  N   UNL     1       7.619   6.478  16.359  0.00  0.00    +0.000 NA
ATOM      5  C   UNL     1       7.027   7.067  17.602  0.00  0.00    +0.000 C 
ATOM      6  C   UNL     1       6.487   5.971  18.552  0.00  0.00    +0.000 C 
ATOM      7  H   UNL     1       7.896   7.246  15.742  0.00  0.00    +0.000 HD
ENDROOT
BRANCH   1  10
ATOM      8  C   UNL     1       2.481   5.126  19.738  0.00  0.00    +0.000 A 
ATOM      9  C   UNL     1       3.694   5.538  19.232  0.00  0.00    +0.000 A 
ATOM     10  C   UNL     1       4.347   4.709  18.336  0.00  0.00    +0.000 A 
ATOM     11  N   UNL     1       3.793   3.544  17.950  0.00  0.00    +0.000 NA
ATOM     12  C   UNL     1       2.628   3.190  18.530  0.00  0.00    +0.000 A 
ATOM     13  C   UNL     1       2.046   1.851  18.205  0.00  0.00    +0.000 C 
ATOM     14  N   UNL     1       1.941   3.945  19.405  0.00  0.00    +0.000 NA
BRANCH   8  15
ATOM     15  C   UNL     1       1.703   6.000  20.688  0.00  0.00    +0.000 C 
BRANCH  15  17
ATOM     16  C   UNL     1       1.045   8.356  21.280  0.00  0.00    +0.000 C 
ATOM     17  C   UNL     1       1.839   7.478  20.327  0.00  0.00    +0.000 C 
ENDBRANCH  15  17
ENDBRANCH   8  15
ENDBRANCH   1  10
BRANCH   5  18
ATOM     18  C   UNL     1       8.095   7.934  18.303  0.00  0.00    +0.000 C 
ATOM     19  O   UNL     1       8.836   7.424  19.116  0.00  0.00    +0.000 OA
ATOM     20  N   UNL     1       8.104   9.288  17.944  0.00  0.00    +0.000 N 
ATOM     21  H   UNL     1       7.286   9.652  17.461  0.00  0.00    +0.000 HD
BRANCH  20  22
ATOM     22  C   UNL     1       9.041  10.207  18.470  0.00  0.00    +0.000 A 
ATOM     23  C   UNL     1       9.984  10.840  17.655  0.00  0.00    +0.000 A 
ATOM     24  C   UNL     1      10.949  11.687  18.190  0.00  0.00    +0.000 A 
ATOM     25  C   UNL     1      10.962  11.909  19.557  0.00  0.00    +0.000 A 
ATOM     26  F   UNL     1      11.901  12.705  20.083  0.00  0.00    +0.000 F 
ATOM     27  C   UNL     1      10.017  11.314  20.386  0.00  0.00    +0.000 A 
ATOM     28  C   UNL     1       9.040  10.474  19.842  0.00  0.00    +0.000 A 
ENDBRANCH  20  22
ENDBRANCH   5  18
TORSDOF 5
ENDMDL
MODEL 8
REMARK VINA RESULT:      -7.6      1.485      3.296
REMARK  Name = 
REMARK  7 active torsions:
REMARK  status: ('A' for Active; 'I' for Inactive)
REMARK    1  A    between atoms: C_1  and  C_2
REMARK    2  A    between atoms: C_2  and  C_3
REMARK    3  A    between atoms: C_3  and  C_4
REMARK    4  A    between atoms: C_6  and  N_7
REMARK    5  A    between atoms: C_11  and  C_12
REMARK    6  A    between atoms: N_14  and  C_15
REMARK    7  A    between atoms: C_24  and  C_25
REMARK                            x       y       z     vdW  Elec       q    Type
REMARK                         _______ _______ _______ _____ _____    ______ ____
ROOT
ATOM      1  N   UNL     1       3.525   5.862  18.184  0.00  0.00    +0.000 N 
ATOM      2  C   UNL     1       2.836   4.635  18.579  0.00  0.00    +0.000 C 
ATOM      3  C   UNL     1       2.409   4.780  20.065  0.00  0.00    +0.000 C 
ATOM      4  N   UNL     1       1.580   5.978  20.304  0.00  0.00    +0.000 NA
ATOM      5  C   UNL     1       2.325   7.205  19.877  0.00  0.00    +0.000 C 
ATOM      6  C   UNL     1       2.780   7.111  18.401  0.00  0.00    +0.000 C 
ATOM      7  H   UNL     1       1.366   6.067  21.301  0.00  0.00    +0.000 HD
ENDROOT
BRANCH   1  10
ATOM      8  C   UNL     1       6.936   6.600  17.172  0.00  0.00    +0.000 A 
ATOM      9  C   UNL     1       5.760   6.649  17.890  0.00  0.00    +0.000 A 
ATOM     10  C   UNL     1       4.718   5.828  17.497  0.00  0.00    +0.000 A 
ATOM     11  N   UNL     1       4.863   4.984  16.458  0.00  0.00    +0.000 NA
ATOM     12  C   UNL     1       6.026   5.034  15.777  0.00  0.00    +0.000 A 
ATOM     13  C   UNL     1       6.172   4.189  14.551  0.00  0.00    +0.000 C 
ATOM     14  N   UNL     1       7.078   5.804  16.102  0.00  0.00    +0.000 NA
BRANCH   8  15
ATOM     15  C   UNL     1       8.120   7.441  17.572  0.00  0.00    +0.000 C 
BRANCH  15  17
ATOM     16  C   UNL     1       8.772   9.682  18.517  0.00  0.00    +0.000 C 
ATOM     17  C   UNL     1       7.741   8.915  17.706  0.00  0.00    +0.000 C 
ENDBRANCH  15  17
ENDBRANCH   8  15
ENDBRANCH   1  10
BRANCH   5  18
ATOM     18  C   UNL     1       1.429   8.441  20.105  0.00  0.00    +0.000 C 
ATOM     19  O   UNL     1       0.933   9.001  19.151  0.00  0.00    +0.000 OA
ATOM     20  N   UNL     1       1.276   8.837  21.440  0.00  0.00    +0.000 N 
ATOM     21  H   UNL     1       1.933   8.463  22.120  0.00  0.00    +0.000 HD
BRANCH  20  22
ATOM     22  C   UNL     1       0.460   9.928  21.820  0.00  0.00    +0.000 A 
ATOM     23  C   UNL     1       0.647  11.205  21.283  0.00  0.00    +0.000 A 
ATOM     24  C   UNL     1      -0.112  12.288  21.714  0.00  0.00    +0.000 A 
ATOM     25  C   UNL     1      -1.075  12.086  22.688  0.00  0.00    +0.000 A 
ATOM     26  F   UNL     1      -1.795  13.127  23.125  0.00  0.00    +0.000 F 
ATOM     27  C   UNL     1      -1.301  10.820  23.218  0.00  0.00    +0.000 A 
ATOM     28  C   UNL     1      -0.545   9.731  22.771  0.00  0.00    +0.000 A 
ENDBRANCH  20  22
ENDBRANCH   5  18
TORSDOF 5
ENDMDL
MODEL 9
REMARK VINA RESULT:      -7.6      1.781      3.430
REMARK  Name = 
REMARK  7 active torsions:
REMARK  status: ('A' for Active; 'I' for Inactive)
REMARK    1  A    between atoms: C_1  and  C_2
REMARK    2  A    between atoms: C_2  and  C_3
REMARK    3  A    between atoms: C_3  and  C_4
REMARK    4  A    between atoms: C_6  and  N_7
REMARK    5  A    between atoms: C_11  and  C_12
REMARK    6  A    between atoms: N_14  and  C_15
REMARK    7  A    between atoms: C_24  and  C_25
REMARK                            x       y       z     vdW  Elec       q    Type
REMARK                         _______ _______ _______ _____ _____    ______ ____
ROOT
ATOM      1  N   UNL     1       3.559   5.810  18.098  0.00  0.00    +0.000 N 
ATOM      2  C   UNL     1       2.855   4.557  18.362  0.00  0.00    +0.000 C 
ATOM      3  C   UNL     1       2.402   4.562  19.847  0.00  0.00    +0.000 C 
ATOM      4  N   UNL     1       1.577   5.740  20.186  0.00  0.00    +0.000 NA
ATOM      5  C   UNL     1       2.339   6.995  19.891  0.00  0.00    +0.000 C 
ATOM      6  C   UNL     1       2.819   7.040  18.421  0.00  0.00    +0.000 C 
ATOM      7  H   UNL     1       1.346   5.734  21.182  0.00  0.00    +0.000 HD
ENDROOT
BRANCH   1  10
ATOM      8  C   UNL     1       6.969   6.666  17.181  0.00  0.00    +0.000 A 
ATOM      9  C   UNL     1       5.781   6.658  17.878  0.00  0.00    +0.000 A 
ATOM     10  C   UNL     1       4.764   5.832  17.432  0.00  0.00    +0.000 A 
ATOM     11  N   UNL     1       4.946   5.038  16.360  0.00  0.00    +0.000 NA
ATOM     12  C   UNL     1       6.119   5.143  15.703  0.00  0.00    +0.000 A 
ATOM     13  C   UNL     1       6.305   4.355  14.445  0.00  0.00    +0.000 C 
ATOM     14  N   UNL     1       7.148   5.921  16.081  0.00  0.00    +0.000 NA
BRANCH   8  15
ATOM     15  C   UNL     1       8.127   7.515  17.638  0.00  0.00    +0.000 C 
BRANCH  15  17
ATOM     16  C   UNL     1       8.784   9.792  18.485  0.00  0.00    +0.000 C 
ATOM     17  C   UNL     1       7.741   8.990  17.725  0.00  0.00    +0.000 C 
ENDBRANCH  15  17
ENDBRANCH   8  15
ENDBRANCH   1  10
BRANCH   5  18
ATOM     18  C   UNL     1       1.447   8.211  20.222  0.00  0.00    +0.000 C 
ATOM     19  O   UNL     1       0.907   8.277  21.306  0.00  0.00    +0.000 OA
ATOM     20  N   UNL     1       1.316   9.160  19.199  0.00  0.00    +0.000 N 
ATOM     21  H   UNL     1       1.593   8.880  18.261  0.00  0.00    +0.000 HD
BRANCH  20  22
ATOM     22  C   UNL     1       0.563  10.346  19.355  0.00  0.00    +0.000 A 
ATOM     23  C   UNL     1       1.160  11.548  19.749  0.00  0.00    +0.000 A 
ATOM     24  C   UNL     1       0.403  12.693  19.970  0.00  0.00    +0.000 A 
ATOM     25  C   UNL     1      -0.968  12.635  19.786  0.00  0.00    +0.000 A 
ATOM     26  F   UNL     1      -1.707  13.727  20.019  0.00  0.00    +0.000 F 
ATOM     27  C   UNL     1      -1.584  11.460  19.368  0.00  0.00    +0.000 A 
ATOM     28  C   UNL     1      -0.816  10.315  19.133  0.00  0.00    +0.000 A 
ENDBRANCH  20  22
ENDBRANCH   5  18
TORSDOF 5
ENDMDL
