MODEL 1
REMARK VINA RESULT:      -6.9      0.000      0.000
REMARK  Name = 
REMARK  7 active torsions:
REMARK  status: ('A' for Active; 'I' for Inactive)
REMARK    1  A    between atoms: N_1  and  C_2
REMARK    2  A    between atoms: N_10  and  C_11
REMARK    3  A    between atoms: C_13  and  C_14
REMARK    4  A    between atoms: C_14  and  C_15
REMARK    5  A    between atoms: C_15  and  O_16
REMARK    6  A    between atoms: C_17  and  O_18
REMARK    7  A    between atoms: C_19  and  O_20
REMARK                            x       y       z     vdW  Elec       q    Type
REMARK                         _______ _______ _______ _____ _____    ______ ____
ROOT
ATOM      1  C   UNL     1       6.285   4.822  18.636  0.00  0.00    +0.000 C 
ATOM      2  C   UNL     1       6.938   6.175  18.814  0.00  0.00    +0.000 C 
ATOM      3  C   UNL     1       7.155   6.792  17.639  0.00  0.00    +0.000 C 
ATOM      4  C   UNL     1       6.707   5.931  16.494  0.00  0.00    +0.000 C 
ATOM      5  C   UNL     1       6.588   4.533  17.147  0.00  0.00    +0.000 C 
ENDROOT
BRANCH   1  14
ATOM      6  C   UNL     1       1.810   3.140  19.552  0.00  0.00    +0.000 A 
ATOM      7  N   UNL     1       2.109   1.888  19.159  0.00  0.00    +0.000 NA
ATOM      8  C   UNL     1       3.350   1.644  18.695  0.00  0.00    +0.000 A 
ATOM      9  N   UNL     1       4.379   2.505  18.558  0.00  0.00    +0.000 NA
ATOM     10  C   UNL     1       4.035   3.744  18.949  0.00  0.00    +0.000 A 
ATOM     11  C   UNL     1       2.793   4.133  19.433  0.00  0.00    +0.000 A 
ATOM     12  C   UNL     1       2.865   5.522  19.709  0.00  0.00    +0.000 A 
ATOM     13  C   UNL     1       4.144   5.935  19.404  0.00  0.00    +0.000 A 
ATOM     14  N   UNL     1       4.862   4.844  18.964  0.00  0.00    +0.000 N 
BRANCH   6  15
ATOM     15  N   UNL     1       0.543   3.382  20.053  0.00  0.00    +0.000 N 
ATOM     16  H   UNL     1       0.577   3.888  20.929  0.00  0.00    +0.000 HD
ATOM     17  H   UNL     1      -0.114   2.617  19.986  0.00  0.00    +0.000 HD
ENDBRANCH   6  15
ENDBRANCH   1  14
BRANCH   4  18
ATOM     18  O   UNL     1       7.673   5.967  15.458  0.00  0.00    +0.000 OA
ATOM     19  H   UNL     1       7.171   6.009  14.620  0.00  0.00    +0.000 HD
ENDBRANCH   4  18
BRANCH   5  20
ATOM     20  O   UNL     1       7.851   3.841  16.991  0.00  0.00    +0.000 OA
ATOM     21  H   UNL     1       7.757   2.958  17.398  0.00  0.00    +0.000 HD
ENDBRANCH   5  20
BRANCH   3  22
ATOM     22  C   UNL     1       7.695   8.177  17.445  0.00  0.00    +0.000 C 
BRANCH  22  23
ATOM     23  C   UNL     1       8.572   8.681  18.595  0.00  0.00    +0.000 C 
BRANCH  23  24
ATOM     24  O   UNL     1       8.867  10.067  18.451  0.00  0.00    +0.000 OA
ATOM     25  H   UNL     1       9.645  10.248  19.003  0.00  0.00    +0.000 HD
ENDBRANCH  23  24
ENDBRANCH  22  23
ENDBRANCH   3  22
TORSDOF 7
ENDMDL
MODEL 2
REMARK VINA RESULT:      -6.8      2.105      3.558
REMARK  Name = 
REMARK  7 active torsions:
REMARK  status: ('A' for Active; 'I' for Inactive)
REMARK    1  A    between atoms: N_1  and  C_2
REMARK    2  A    between atoms: N_10  and  C_11
REMARK    3  A    between atoms: C_13  and  C_14
REMARK    4  A    between atoms: C_14  and  C_15
REMARK    5  A    between atoms: C_15  and  O_16
REMARK    6  A    between atoms: C_17  and  O_18
REMARK    7  A    between atoms: C_19  and  O_20
REMARK                            x       y       z     vdW  Elec       q    Type
REMARK                         _______ _______ _______ _____ _____    ______ ____
ROOT
ATOM      1  C   UNL     1       4.663   5.488  16.858  0.00  0.00    +0.000 C 
ATOM      2  C   UNL     1       4.915   5.151  15.405  0.00  0.00    +0.000 C 
ATOM      3  C   UNL     1       6.084   4.511  15.228  0.00  0.00    +0.000 C 
ATOM      4  C   UNL     1       6.807   4.350  16.533  0.00  0.00    +0.000 C 
ATOM      5  C   UNL     1       6.089   5.371  17.447  0.00  0.00    +0.000 C 
ENDROOT
BRANCH   1  14
ATOM      6  C   UNL     1       1.194   3.969  19.917  0.00  0.00    +0.000 A 
ATOM      7  N   UNL     1       1.315   5.041  20.720  0.00  0.00    +0.000 NA
ATOM      8  C   UNL     1       2.249   5.963  20.417  0.00  0.00    +0.000 A 
ATOM      9  N   UNL     1       3.119   5.969  19.386  0.00  0.00    +0.000 NA
ATOM     10  C   UNL     1       2.974   4.876  18.618  0.00  0.00    +0.000 A 
ATOM     11  C   UNL     1       2.063   3.848  18.823  0.00  0.00    +0.000 A 
ATOM     12  C   UNL     1       2.263   2.897  17.790  0.00  0.00    +0.000 A 
ATOM     13  C   UNL     1       3.271   3.376  16.981  0.00  0.00    +0.000 A 
ATOM     14  N   UNL     1       3.685   4.593  17.474  0.00  0.00    +0.000 N 
BRANCH   6  15
ATOM     15  N   UNL     1       0.215   3.037  20.215  0.00  0.00    +0.000 N 
ATOM     16  H   UNL     1      -0.476   3.410  20.854  0.00  0.00    +0.000 HD
ATOM     17  H   UNL     1       0.536   2.094  20.381  0.00  0.00    +0.000 HD
ENDBRANCH   6  15
ENDBRANCH   1  14
BRANCH   4  18
ATOM     18  O   UNL     1       8.181   4.646  16.362  0.00  0.00    +0.000 OA
ATOM     19  H   UNL     1       8.263   5.058  15.480  0.00  0.00    +0.000 HD
ENDBRANCH   4  18
BRANCH   5  20
ATOM     20  O   UNL     1       6.794   6.635  17.373  0.00  0.00    +0.000 OA
ATOM     21  H   UNL     1       7.750   6.443  17.416  0.00  0.00    +0.000 HD
ENDBRANCH   5  20
BRANCH   3  22
ATOM     22  C   UNL     1       6.608   3.949  13.940  0.00  0.00    +0.000 C 
BRANCH  22  23
ATOM     23  C   UNL     1       7.250   4.984  13.012  0.00  0.00    +0.000 C 
BRANCH  23  24
ATOM     24  O   UNL     1       8.260   5.728  13.687  0.00  0.00    +0.000 OA
ATOM     25  H   UNL     1       7.885   6.001  14.540  0.00  0.00    +0.000 HD
ENDBRANCH  23  24
ENDBRANCH  22  23
ENDBRANCH   3  22
TORSDOF 7
ENDMDL
MODEL 3
REMARK VINA RESULT:      -6.7      1.566      2.160
REMARK  Name = 
REMARK  7 active torsions:
REMARK  status: ('A' for Active; 'I' for Inactive)
REMARK    1  A    between atoms: N_1  and  C_2
REMARK    2  A    between atoms: N_10  and  C_11
REMARK    3  A    between atoms: C_13  and  C_14
REMARK    4  A    between atoms: C_14  and  C_15
REMARK    5  A    between atoms: C_15  and  O_16
REMARK    6  A    between atoms: C_17  and  O_18
REMARK    7  A    between atoms: C_19  and  O_20
REMARK                            x       y       z     vdW  Elec       q    Type
REMARK                         _______ _______ _______ _____ _____    ______ ____
ROOT
ATOM      1  C   UNL     1       5.271   4.874  17.012  0.00  0.00    +0.000 C 
ATOM      2  C   UNL     1       6.414   4.805  18.000  0.00  0.00    +0.000 C 
ATOM      3  C   UNL     1       6.995   6.003  18.188  0.00  0.00    +0.000 C 
ATOM      4  C   UNL     1       6.348   7.050  17.329  0.00  0.00    +0.000 C 
ATOM      5  C   UNL     1       5.578   6.205  16.286  0.00  0.00    +0.000 C 
ENDROOT
BRANCH   1  14
ATOM      6  C   UNL     1       1.442   3.054  19.404  0.00  0.00    +0.000 A 
ATOM      7  N   UNL     1       1.859   1.782  19.275  0.00  0.00    +0.000 NA
ATOM      8  C   UNL     1       2.998   1.550  18.594  0.00  0.00    +0.000 A 
ATOM      9  N   UNL     1       3.813   2.441  17.994  0.00  0.00    +0.000 NA
ATOM     10  C   UNL     1       3.354   3.696  18.134  0.00  0.00    +0.000 A 
ATOM     11  C   UNL     1       2.194   4.072  18.800  0.00  0.00    +0.000 A 
ATOM     12  C   UNL     1       2.085   5.481  18.692  0.00  0.00    +0.000 A 
ATOM     13  C   UNL     1       3.182   5.925  17.985  0.00  0.00    +0.000 A 
ATOM     14  N   UNL     1       3.966   4.837  17.668  0.00  0.00    +0.000 N 
BRANCH   6  15
ATOM     15  N   UNL     1       0.287   3.292  20.128  0.00  0.00    +0.000 N 
ATOM     16  H   UNL     1      -0.279   2.457  20.217  0.00  0.00    +0.000 HD
ATOM     17  H   UNL     1      -0.195   4.156  19.923  0.00  0.00    +0.000 HD
ENDBRANCH   6  15
ENDBRANCH   1  14
BRANCH   4  18
ATOM     18  O   UNL     1       7.341   7.869  16.738  0.00  0.00    +0.000 OA
ATOM     19  H   UNL     1       6.976   8.776  16.730  0.00  0.00    +0.000 HD
ENDBRANCH   4  18
BRANCH   5  20
ATOM     20  O   UNL     1       6.436   5.993  15.138  0.00  0.00    +0.000 OA
ATOM     21  H   UNL     1       6.119   6.574  14.420  0.00  0.00    +0.000 HD
ENDBRANCH   5  20
BRANCH   3  22
ATOM     22  C   UNL     1       8.090   6.321  19.161  0.00  0.00    +0.000 C 
BRANCH  22  23
ATOM     23  C   UNL     1       8.640   5.106  19.914  0.00  0.00    +0.000 C 
BRANCH  23  24
ATOM     24  O   UNL     1       8.272   5.139  21.289  0.00  0.00    +0.000 OA
ATOM     25  H   UNL     1       8.971   4.677  21.779  0.00  0.00    +0.000 HD
ENDBRANCH  23  24
ENDBRANCH  22  23
ENDBRANCH   3  22
TORSDOF 7
ENDMDL
MODEL 4
REMARK VINA RESULT:      -6.6      1.868      2.938
REMARK  Name = 
REMARK  7 active torsions:
REMARK  status: ('A' for Active; 'I' for Inactive)
REMARK    1  A    between atoms: N_1  and  C_2
REMARK    2  A    between atoms: N_10  and  C_11
REMARK    3  A    between atoms: C_13  and  C_14
REMARK    4  A    between atoms: C_14  and  C_15
REMARK    5  A    between atoms: C_15  and  O_16
REMARK    6  A    between atoms: C_17  and  O_18
REMARK    7  A    between atoms: C_19  and  O_20
REMARK                            x       y       z     vdW  Elec       q    Type
REMARK                         _______ _______ _______ _____ _____    ______ ____
ROOT
ATOM      1  C   UNL     1       5.057   6.114  18.083  0.00  0.00    +0.000 C 
ATOM      2  C   UNL     1       4.969   5.634  16.651  0.00  0.00    +0.000 C 
ATOM      3  C   UNL     1       5.849   4.652  16.390  0.00  0.00    +0.000 C 
ATOM      4  C   UNL     1       6.681   4.346  17.601  0.00  0.00    +0.000 C 
ATOM      5  C   UNL     1       6.455   5.590  18.491  0.00  0.00    +0.000 C 
ENDROOT
BRANCH   1  14
ATOM      6  C   UNL     1       2.622   3.128  21.059  0.00  0.00    +0.000 A 
ATOM      7  N   UNL     1       3.526   2.139  20.944  0.00  0.00    +0.000 NA
ATOM      8  C   UNL     1       4.582   2.331  20.130  0.00  0.00    +0.000 A 
ATOM      9  N   UNL     1       4.877   3.413  19.380  0.00  0.00    +0.000 NA
ATOM     10  C   UNL     1       3.944   4.370  19.513  0.00  0.00    +0.000 A 
ATOM     11  C   UNL     1       2.806   4.297  20.306  0.00  0.00    +0.000 A 
ATOM     12  C   UNL     1       2.098   5.514  20.138  0.00  0.00    +0.000 A 
ATOM     13  C   UNL     1       2.826   6.296  19.268  0.00  0.00    +0.000 A 
ATOM     14  N   UNL     1       3.963   5.606  18.908  0.00  0.00    +0.000 N 
BRANCH   6  15
ATOM     15  N   UNL     1       1.552   2.938  21.916  0.00  0.00    +0.000 N 
ATOM     16  H   UNL     1       1.147   2.016  21.812  0.00  0.00    +0.000 HD
ATOM     17  H   UNL     1       0.913   3.715  22.007  0.00  0.00    +0.000 HD
ENDBRANCH   6  15
ENDBRANCH   1  14
BRANCH   4  18
ATOM     18  O   UNL     1       8.038   4.187  17.224  0.00  0.00    +0.000 OA
ATOM     19  H   UNL     1       8.524   3.973  18.044  0.00  0.00    +0.000 HD
ENDBRANCH   4  18
BRANCH   5  20
ATOM     20  O   UNL     1       7.487   6.564  18.199  0.00  0.00    +0.000 OA
ATOM     21  H   UNL     1       8.036   6.205  17.475  0.00  0.00    +0.000 HD
ENDBRANCH   5  20
BRANCH   3  22
ATOM     22  C   UNL     1       5.973   3.883  15.109  0.00  0.00    +0.000 C 
BRANCH  22  23
ATOM     23  C   UNL     1       6.710   4.627  13.993  0.00  0.00    +0.000 C 
BRANCH  23  24
ATOM     24  O   UNL     1       7.762   5.433  14.515  0.00  0.00    +0.000 OA
ATOM     25  H   UNL     1       7.347   6.120  15.060  0.00  0.00    +0.000 HD
ENDBRANCH  23  24
ENDBRANCH  22  23
ENDBRANCH   3  22
TORSDOF 7
ENDMDL
MODEL 5
REMARK VINA RESULT:      -6.6      1.713      2.893
REMARK  Name = 
REMARK  7 active torsions:
REMARK  status: ('A' for Active; 'I' for Inactive)
REMARK    1  A    between atoms: N_1  and  C_2
REMARK    2  A    between atoms: N_10  and  C_11
REMARK    3  A    between atoms: C_13  and  C_14
REMARK    4  A    between atoms: C_14  and  C_15
REMARK    5  A    between atoms: C_15  and  O_16
REMARK    6  A    between atoms: C_17  and  O_18
REMARK    7  A    between atoms: C_19  and  O_20
REMARK                            x       y       z     vdW  Elec       q    Type
REMARK                         _______ _______ _______ _____ _____    ______ ____
ROOT
ATOM      1  C   UNL     1       4.989   6.263  17.683  0.00  0.00    +0.000 C 
ATOM      2  C   UNL     1       5.009   5.723  16.269  0.00  0.00    +0.000 C 
ATOM      3  C   UNL     1       5.870   4.700  16.129  0.00  0.00    +0.000 C 
ATOM      4  C   UNL     1       6.579   4.419  17.422  0.00  0.00    +0.000 C 
ATOM      5  C   UNL     1       6.323   5.709  18.237  0.00  0.00    +0.000 C 
ENDROOT
BRANCH   1  14
ATOM      6  C   UNL     1       1.472   3.313  19.303  0.00  0.00    +0.000 A 
ATOM      7  N   UNL     1       1.770   2.338  18.426  0.00  0.00    +0.000 NA
ATOM      8  C   UNL     1       2.764   2.555  17.544  0.00  0.00    +0.000 A 
ATOM      9  N   UNL     1       3.535   3.652  17.402  0.00  0.00    +0.000 NA
ATOM     10  C   UNL     1       3.197   4.605  18.286  0.00  0.00    +0.000 A 
ATOM     11  C   UNL     1       2.189   4.517  19.238  0.00  0.00    +0.000 A 
ATOM     12  C   UNL     1       2.168   5.746  19.943  0.00  0.00    +0.000 A 
ATOM     13  C   UNL     1       3.166   6.539  19.418  0.00  0.00    +0.000 A 
ATOM     14  N   UNL     1       3.807   5.831  18.425  0.00  0.00    +0.000 N 
BRANCH   6  15
ATOM     15  N   UNL     1       0.468   3.077  20.226  0.00  0.00    +0.000 N 
ATOM     16  H   UNL     1      -0.450   3.135  19.805  0.00  0.00    +0.000 HD
ATOM     17  H   UNL     1       0.588   3.508  21.132  0.00  0.00    +0.000 HD
ENDBRANCH   6  15
ENDBRANCH   1  14
BRANCH   4  18
ATOM     18  O   UNL     1       7.957   4.196  17.176  0.00  0.00    +0.000 OA
ATOM     19  H   UNL     1       8.176   4.706  16.372  0.00  0.00    +0.000 HD
ENDBRANCH   4  18
BRANCH   5  20
ATOM     20  O   UNL     1       7.415   6.632  18.000  0.00  0.00    +0.000 OA
ATOM     21  H   UNL     1       7.173   7.486  18.406  0.00  0.00    +0.000 HD
ENDBRANCH   5  20
BRANCH   3  22
ATOM     22  C   UNL     1       6.078   3.871  14.898  0.00  0.00    +0.000 C 
BRANCH  22  23
ATOM     23  C   UNL     1       6.892   4.561  13.800  0.00  0.00    +0.000 C 
BRANCH  23  24
ATOM     24  O   UNL     1       7.825   5.486  14.352  0.00  0.00    +0.000 OA
ATOM     25  H   UNL     1       7.310   6.142  14.848  0.00  0.00    +0.000 HD
ENDBRANCH  23  24
ENDBRANCH  22  23
ENDBRANCH   3  22
TORSDOF 7
ENDMDL
MODEL 6
REMARK VINA RESULT:      -6.5      1.967      3.563
REMARK  Name = 
REMARK  7 active torsions:
REMARK  status: ('A' for Active; 'I' for Inactive)
REMARK    1  A    between atoms: N_1  and  C_2
REMARK    2  A    between atoms: N_10  and  C_11
REMARK    3  A    between atoms: C_13  and  C_14
REMARK    4  A    between atoms: C_14  and  C_15
REMARK    5  A    between atoms: C_15  and  O_16
REMARK    6  A    between atoms: C_17  and  O_18
REMARK    7  A    between atoms: C_19  and  O_20
REMARK                            x       y       z     vdW  Elec       q    Type
REMARK                         _______ _______ _______ _____ _____    ______ ____
ROOT
ATOM      1  C   UNL     1       5.529   5.588  18.518  0.00  0.00    +0.000 C 
ATOM      2  C   UNL     1       5.049   5.940  17.128  0.00  0.00    +0.000 C 
ATOM      3  C   UNL     1       5.754   5.310  16.173  0.00  0.00    +0.000 C 
ATOM      4  C   UNL     1       6.834   4.462  16.779  0.00  0.00    +0.000 C 
ATOM      5  C   UNL     1       6.937   5.022  18.217  0.00  0.00    +0.000 C 
ENDROOT
BRANCH   1  14
ATOM      6  C   UNL     1       1.521   3.909  20.713  0.00  0.00    +0.000 A 
ATOM      7  N   UNL     1       0.961   5.128  20.810  0.00  0.00    +0.000 NA
ATOM      8  C   UNL     1       1.658   6.188  20.355  0.00  0.00    +0.000 A 
ATOM      9  N   UNL     1       2.886   6.208  19.798  0.00  0.00    +0.000 NA
ATOM     10  C   UNL     1       3.414   4.975  19.733  0.00  0.00    +0.000 A 
ATOM     11  C   UNL     1       2.811   3.803  20.173  0.00  0.00    +0.000 A 
ATOM     12  C   UNL     1       3.720   2.744  19.926  0.00  0.00    +0.000 A 
ATOM     13  C   UNL     1       4.837   3.291  19.331  0.00  0.00    +0.000 A 
ATOM     14  N   UNL     1       4.637   4.647  19.193  0.00  0.00    +0.000 N 
BRANCH   6  15
ATOM     15  N   UNL     1       0.793   2.819  21.156  0.00  0.00    +0.000 N 
ATOM     16  H   UNL     1      -0.024   3.102  21.682  0.00  0.00    +0.000 HD
ATOM     17  H   UNL     1       1.330   2.044  21.519  0.00  0.00    +0.000 HD
ENDBRANCH   6  15
ENDBRANCH   1  14
BRANCH   4  18
ATOM     18  O   UNL     1       8.037   4.619  16.047  0.00  0.00    +0.000 OA
ATOM     19  H   UNL     1       8.746   4.246  16.606  0.00  0.00    +0.000 HD
ENDBRANCH   4  18
BRANCH   5  20
ATOM     20  O   UNL     1       7.940   6.067  18.237  0.00  0.00    +0.000 OA
ATOM     21  H   UNL     1       8.537   5.918  17.479  0.00  0.00    +0.000 HD
ENDBRANCH   5  20
BRANCH   3  22
ATOM     22  C   UNL     1       5.493   5.352  14.697  0.00  0.00    +0.000 C 
BRANCH  22  23
ATOM     23  C   UNL     1       5.357   3.977  14.038  0.00  0.00    +0.000 C 
BRANCH  23  24
ATOM     24  O   UNL     1       6.587   3.558  13.454  0.00  0.00    +0.000 OA
ATOM     25  H   UNL     1       7.291   3.799  14.077  0.00  0.00    +0.000 HD
ENDBRANCH  23  24
ENDBRANCH  22  23
ENDBRANCH   3  22
TORSDOF 7
ENDMDL
MODEL 7
REMARK VINA RESULT:      -6.5      3.556      5.738
REMARK  Name = 
REMARK  7 active torsions:
REMARK  status: ('A' for Active; 'I' for Inactive)
REMARK    1  A    between atoms: N_1  and  C_2
REMARK    2  A    between atoms: N_10  and  C_11
REMARK    3  A    between atoms: C_13  and  C_14
REMARK    4  A    between atoms: C_14  and  C_15
REMARK    5  A    between atoms: C_15  and  O_16
REMARK    6  A    between atoms: C_17  and  O_18
REMARK    7  A    between atoms: C_19  and  O_20
REMARK                            x       y       z     vdW  Elec       q    Type
REMARK                         _______ _______ _______ _____ _____    ______ ____
ROOT
ATOM      1  C   UNL     1       3.258   6.115  17.822  0.00  0.00    +0.000 C 
ATOM      2  C   UNL     1       2.858   4.656  17.825  0.00  0.00    +0.000 C 
ATOM      3  C   UNL     1       3.810   3.871  18.359  0.00  0.00    +0.000 C 
ATOM      4  C   UNL     1       5.004   4.682  18.768  0.00  0.00    +0.000 C 
ATOM      5  C   UNL     1       4.791   6.009  18.002  0.00  0.00    +0.000 C 
ENDROOT
BRANCH   1  14
ATOM      6  C   UNL     1       0.900   9.804  19.952  0.00  0.00    +0.000 A 
ATOM      7  N   UNL     1       1.101  10.640  18.917  0.00  0.00    +0.000 NA
ATOM      8  C   UNL     1       1.811  10.193  17.864  0.00  0.00    +0.000 A 
ATOM      9  N   UNL     1       2.378   8.982  17.688  0.00  0.00    +0.000 NA
ATOM     10  C   UNL     1       2.166   8.183  18.747  0.00  0.00    +0.000 A 
ATOM     11  C   UNL     1       1.464   8.521  19.897  0.00  0.00    +0.000 A 
ATOM     12  C   UNL     1       1.497   7.393  20.756  0.00  0.00    +0.000 A 
ATOM     13  C   UNL     1       2.199   6.401  20.105  0.00  0.00    +0.000 A 
ATOM     14  N   UNL     1       2.584   6.878  18.871  0.00  0.00    +0.000 N 
BRANCH   6  15
ATOM     15  N   UNL     1       0.147  10.256  21.020  0.00  0.00    +0.000 N 
ATOM     16  H   UNL     1      -0.431   9.522  21.410  0.00  0.00    +0.000 HD
ATOM     17  H   UNL     1      -0.276  11.167  20.912  0.00  0.00    +0.000 HD
ENDBRANCH   6  15
ENDBRANCH   1  14
BRANCH   4  18
ATOM     18  O   UNL     1       6.193   4.017  18.382  0.00  0.00    +0.000 OA
ATOM     19  H   UNL     1       6.902   4.689  18.408  0.00  0.00    +0.000 HD
ENDBRANCH   4  18
BRANCH   5  20
ATOM     20  O   UNL     1       5.465   5.919  16.722  0.00  0.00    +0.000 OA
ATOM     21  H   UNL     1       5.691   6.827  16.442  0.00  0.00    +0.000 HD
ENDBRANCH   5  20
BRANCH   3  22
ATOM     22  C   UNL     1       3.713   2.395  18.605  0.00  0.00    +0.000 C 
BRANCH  22  23
ATOM     23  C   UNL     1       3.995   1.974  20.050  0.00  0.00    +0.000 C 
BRANCH  23  24
ATOM     24  O   UNL     1       5.334   1.516  20.204  0.00  0.00    +0.000 OA
ATOM     25  H   UNL     1       5.912   2.209  19.846  0.00  0.00    +0.000 HD
ENDBRANCH  23  24
ENDBRANCH  22  23
ENDBRANCH   3  22
TORSDOF 7
ENDMDL
MODEL 8
REMARK VINA RESULT:      -6.5      4.661      6.847
REMARK  Name = 
REMARK  7 active torsions:
REMARK  status: ('A' for Active; 'I' for Inactive)
REMARK    1  A    between atoms: N_1  and  C_2
REMARK    2  A    between atoms: N_10  and  C_11
REMARK    3  A    between atoms: C_13  and  C_14
REMARK    4  A    between atoms: C_14  and  C_15
REMARK    5  A    between atoms: C_15  and  O_16
REMARK    6  A    between atoms: C_17  and  O_18
REMARK    7  A    between atoms: C_19  and  O_20
REMARK                            x       y       z     vdW  Elec       q    Type
REMARK                         _______ _______ _______ _____ _____    ______ ____
ROOT
ATOM      1  C   UNL     1       2.790   6.347  19.753  0.00  0.00    +0.000 C 
ATOM      2  C   UNL     1       3.278   5.446  18.640  0.00  0.00    +0.000 C 
ATOM      3  C   UNL     1       2.459   4.399  18.440  0.00  0.00    +0.000 C 
ATOM      4  C   UNL     1       1.313   4.424  19.409  0.00  0.00    +0.000 C 
ATOM      5  C   UNL     1       1.810   5.408  20.495  0.00  0.00    +0.000 C 
ENDROOT
BRANCH   1  14
ATOM      6  C   UNL     1       0.602  10.695  19.827  0.00  0.00    +0.000 A 
ATOM      7  N   UNL     1       0.355  10.642  21.149  0.00  0.00    +0.000 NA
ATOM      8  C   UNL     1       0.728   9.538  21.824  0.00  0.00    +0.000 A 
ATOM      9  N   UNL     1       1.335   8.430  21.351  0.00  0.00    +0.000 NA
ATOM     10  C   UNL     1       1.551   8.518  20.028  0.00  0.00    +0.000 A 
ATOM     11  C   UNL     1       1.208   9.590  19.213  0.00  0.00    +0.000 A 
ATOM     12  C   UNL     1       1.603   9.258  17.893  0.00  0.00    +0.000 A 
ATOM     13  C   UNL     1       2.188   8.010  17.940  0.00  0.00    +0.000 A 
ATOM     14  N   UNL     1       2.177   7.573  19.247  0.00  0.00    +0.000 N 
BRANCH   6  15
ATOM     15  N   UNL     1       0.242  11.841  19.142  0.00  0.00    +0.000 N 
ATOM     16  H   UNL     1       1.051  12.379  18.857  0.00  0.00    +0.000 HD
ATOM     17  H   UNL     1      -0.544  12.354  19.516  0.00  0.00    +0.000 HD
ENDBRANCH   6  15
ENDBRANCH   1  14
BRANCH   4  18
ATOM     18  O   UNL     1       1.085   3.123  19.919  0.00  0.00    +0.000 OA
ATOM     19  H   UNL     1       1.114   3.203  20.892  0.00  0.00    +0.000 HD
ENDBRANCH   4  18
BRANCH   5  20
ATOM     20  O   UNL     1       2.487   4.653  21.530  0.00  0.00    +0.000 OA
ATOM     21  H   UNL     1       1.842   4.023  21.906  0.00  0.00    +0.000 HD
ENDBRANCH   5  20
BRANCH   3  22
ATOM     22  C   UNL     1       2.583   3.362  17.364  0.00  0.00    +0.000 C 
BRANCH  22  23
ATOM     23  C   UNL     1       3.535   2.211  17.700  0.00  0.00    +0.000 C 
BRANCH  23  24
ATOM     24  O   UNL     1       2.896   1.233  18.515  0.00  0.00    +0.000 OA
ATOM     25  H   UNL     1       2.254   1.705  19.071  0.00  0.00    +0.000 HD
ENDBRANCH  23  24
ENDBRANCH  22  23
ENDBRANCH   3  22
TORSDOF 7
ENDMDL
MODEL 9
REMARK VINA RESULT:      -6.5      1.858      3.238
REMARK  Name = 
REMARK  7 active torsions:
REMARK  status: ('A' for Active; 'I' for Inactive)
REMARK    1  A    between atoms: N_1  and  C_2
REMARK    2  A    between atoms: N_10  and  C_11
REMARK    3  A    between atoms: C_13  and  C_14
REMARK    4  A    between atoms: C_14  and  C_15
REMARK    5  A    between atoms: C_15  and  O_16
REMARK    6  A    between atoms: C_17  and  O_18
REMARK    7  A    between atoms: C_19  and  O_20
REMARK                            x       y       z     vdW  Elec       q    Type
REMARK                         _______ _______ _______ _____ _____    ______ ____
ROOT
ATOM      1  C   UNL     1       5.356   6.203  17.903  0.00  0.00    +0.000 C 
ATOM      2  C   UNL     1       5.636   6.200  16.416  0.00  0.00    +0.000 C 
ATOM      3  C   UNL     1       6.447   5.191  16.054  0.00  0.00    +0.000 C 
ATOM      4  C   UNL     1       6.857   4.382  17.250  0.00  0.00    +0.000 C 
ATOM      5  C   UNL     1       6.513   5.322  18.430  0.00  0.00    +0.000 C 
ENDROOT
BRANCH   1  14
ATOM      6  C   UNL     1       1.931   3.364  19.881  0.00  0.00    +0.000 A 
ATOM      7  N   UNL     1       2.820   2.458  20.326  0.00  0.00    +0.000 NA
ATOM      8  C   UNL     1       4.124   2.654  20.050  0.00  0.00    +0.000 A 
ATOM      9  N   UNL     1       4.693   3.665  19.362  0.00  0.00    +0.000 NA
ATOM     10  C   UNL     1       3.771   4.538  18.924  0.00  0.00    +0.000 A 
ATOM     11  C   UNL     1       2.400   4.450  19.127  0.00  0.00    +0.000 A 
ATOM     12  C   UNL     1       1.807   5.567  18.486  0.00  0.00    +0.000 A 
ATOM     13  C   UNL     1       2.825   6.309  17.928  0.00  0.00    +0.000 A 
ATOM     14  N   UNL     1       4.023   5.693  18.218  0.00  0.00    +0.000 N 
BRANCH   6  15
ATOM     15  N   UNL     1       0.596   3.174  20.189  0.00  0.00    +0.000 N 
ATOM     16  H   UNL     1       0.014   3.182  19.360  0.00  0.00    +0.000 HD
ATOM     17  H   UNL     1       0.252   3.672  20.998  0.00  0.00    +0.000 HD
ENDBRANCH   6  15
ENDBRANCH   1  14
BRANCH   4  18
ATOM     18  O   UNL     1       8.240   4.085  17.178  0.00  0.00    +0.000 OA
ATOM     19  H   UNL     1       8.353   3.212  17.603  0.00  0.00    +0.000 HD
ENDBRANCH   4  18
BRANCH   5  20
ATOM     20  O   UNL     1       7.681   6.119  18.743  0.00  0.00    +0.000 OA
ATOM     21  H   UNL     1       8.311   6.025  18.003  0.00  0.00    +0.000 HD
ENDBRANCH   5  20
BRANCH   3  22
ATOM     22  C   UNL     1       6.856   4.832  14.657  0.00  0.00    +0.000 C 
BRANCH  22  23
ATOM     23  C   UNL     1       5.820   4.010  13.886  0.00  0.00    +0.000 C 
BRANCH  23  24
ATOM     24  O   UNL     1       6.444   3.158  12.930  0.00  0.00    +0.000 OA
ATOM     25  H   UNL     1       6.285   3.550  12.057  0.00  0.00    +0.000 HD
ENDBRANCH  23  24
ENDBRANCH  22  23
ENDBRANCH   3  22
TORSDOF 7
ENDMDL
