MODEL 1
REMARK VINA RESULT:      -8.0      0.000      0.000
REMARK  Name = 
REMARK  8 active torsions:
REMARK  status: ('A' for Active; 'I' for Inactive)
REMARK    1  A    between atoms: C_1  and  C_2
REMARK    2  A    between atoms: C_2  and  O_3
REMARK    3  A    between atoms: O_3  and  C_4
REMARK    4  A    between atoms: C_4  and  C_6
REMARK    5  A    between atoms: C_9  and  N_10
REMARK    6  A    between atoms: C_11  and  C_13
REMARK    7  A    between atoms: N_15  and  C_16
REMARK    8  A    between atoms: C_23  and  C_24
REMARK                            x       y       z     vdW  Elec       q    Type
REMARK                         _______ _______ _______ _____ _____    ______ ____
ROOT
ATOM      1  C   UNL     1       1.941   7.764  19.243  0.00  0.00    +0.000 A 
ATOM      2  C   UNL     1       1.474   9.015  19.590  0.00  0.00    +0.000 A 
ATOM      3  N   UNL     1       0.844   8.890  20.807  0.00  0.00    +0.000 N 
ATOM      4  N   UNL     1       0.899   7.615  21.263  0.00  0.00    +0.000 NA
ATOM      5  C   UNL     1       1.521   6.908  20.305  0.00  0.00    +0.000 A 
ENDROOT
BRANCH   3   6
ATOM      6  C   UNL     1       0.179   9.912  21.542  0.00  0.00    +0.000 A 
ATOM      7  C   UNL     1      -0.583   9.605  22.679  0.00  0.00    +0.000 A 
ATOM      8  C   UNL     1      -1.209  10.625  23.403  0.00  0.00    +0.000 A 
ATOM      9  C   UNL     1      -1.082  11.951  22.994  0.00  0.00    +0.000 A 
ATOM     10  C   UNL     1      -0.333  12.263  21.861  0.00  0.00    +0.000 A 
ATOM     11  C   UNL     1       0.300  11.250  21.136  0.00  0.00    +0.000 A 
ENDBRANCH   3   6
BRANCH   5  12
ATOM     12  C   UNL     1       1.656   5.449  20.413  0.00  0.00    +0.000 A 
ATOM     13  C   UNL     1       2.455   4.868  21.403  0.00  0.00    +0.000 A 
ATOM     14  C   UNL     1       2.546   3.489  21.474  0.00  0.00    +0.000 A 
ATOM     15  N   UNL     1       1.925   2.653  20.619  0.00  0.00    +0.000 NA
ATOM     16  C   UNL     1       1.179   3.231  19.652  0.00  0.00    +0.000 A 
ATOM     17  C   UNL     1       1.012   4.602  19.509  0.00  0.00    +0.000 A 
ENDBRANCH   5  12
BRANCH   1  19
ATOM     18  N   UNL     1       3.567   6.330  18.251  0.00  0.00    +0.000 N 
ATOM     19  C   UNL     1       2.720   7.410  18.069  0.00  0.00    +0.000 C 
ATOM     20  O   UNL     1       2.606   8.054  17.034  0.00  0.00    +0.000 OA
ATOM     21  H   UNL     1       3.450   5.775  19.087  0.00  0.00    +0.000 HD
BRANCH  18  25
ATOM     22  C   UNL     1       6.359   5.032  15.365  0.00  0.00    +0.000 A 
ATOM     23  C   UNL     1       6.611   6.194  16.094  0.00  0.00    +0.000 A 
ATOM     24  C   UNL     1       5.705   6.624  17.064  0.00  0.00    +0.000 A 
ATOM     25  C   UNL     1       4.539   5.900  17.324  0.00  0.00    +0.000 A 
ATOM     26  C   UNL     1       4.321   4.697  16.645  0.00  0.00    +0.000 A 
ATOM     27  C   UNL     1       5.219   4.271  15.657  0.00  0.00    +0.000 A 
BRANCH  22  28
ATOM     28  C   UNL     1       7.280   4.717  14.243  0.00  0.00    +0.000 C 
ATOM     29  O   UNL     1       8.185   5.453  13.888  0.00  0.00    +0.000 OA
BRANCH  28  30
ATOM     30  O   UNL     1       6.863   3.595  13.607  0.00  0.00    +0.000 OA
BRANCH  30  32
ATOM     31  C   UNL     1       5.211   3.206  11.931  0.00  0.00    +0.000 C 
ATOM     32  C   UNL     1       6.599   3.758  12.208  0.00  0.00    +0.000 C 
ENDBRANCH  30  32
ENDBRANCH  28  30
ENDBRANCH  22  28
ENDBRANCH  18  25
ENDBRANCH   1  19
TORSDOF 7
ENDMDL
MODEL 2
REMARK VINA RESULT:      -7.9      2.261      9.258
REMARK  Name = 
REMARK  8 active torsions:
REMARK  status: ('A' for Active; 'I' for Inactive)
REMARK    1  A    between atoms: C_1  and  C_2
REMARK    2  A    between atoms: C_2  and  O_3
REMARK    3  A    between atoms: O_3  and  C_4
REMARK    4  A    between atoms: C_4  and  C_6
REMARK    5  A    between atoms: C_9  and  N_10
REMARK    6  A    between atoms: C_11  and  C_13
REMARK    7  A    between atoms: N_15  and  C_16
REMARK    8  A    between atoms: C_23  and  C_24
REMARK                            x       y       z     vdW  Elec       q    Type
REMARK                         _______ _______ _______ _____ _____    ______ ____
ROOT
ATOM      1  C   UNL     1       4.476   5.794  16.835  0.00  0.00    +0.000 A 
ATOM      2  C   UNL     1       5.173   5.938  15.653  0.00  0.00    +0.000 A 
ATOM      3  N   UNL     1       5.273   4.689  15.086  0.00  0.00    +0.000 N 
ATOM      4  N   UNL     1       4.658   3.750  15.847  0.00  0.00    +0.000 NA
ATOM      5  C   UNL     1       4.208   4.396  16.935  0.00  0.00    +0.000 A 
ENDROOT
BRANCH   3   6
ATOM      6  C   UNL     1       5.939   4.342  13.877  0.00  0.00    +0.000 A 
ATOM      7  C   UNL     1       7.138   4.969  13.506  0.00  0.00    +0.000 A 
ATOM      8  C   UNL     1       7.791   4.597  12.326  0.00  0.00    +0.000 A 
ATOM      9  C   UNL     1       7.250   3.606  11.511  0.00  0.00    +0.000 A 
ATOM     10  C   UNL     1       6.056   2.983  11.869  0.00  0.00    +0.000 A 
ATOM     11  C   UNL     1       5.401   3.345  13.049  0.00  0.00    +0.000 A 
ENDBRANCH   3   6
BRANCH   5  12
ATOM     12  C   UNL     1       3.581   3.660  18.042  0.00  0.00    +0.000 A 
ATOM     13  C   UNL     1       2.249   3.240  17.969  0.00  0.00    +0.000 A 
ATOM     14  C   UNL     1       1.702   2.541  19.031  0.00  0.00    +0.000 A 
ATOM     15  N   UNL     1       2.373   2.256  20.164  0.00  0.00    +0.000 NA
ATOM     16  C   UNL     1       3.651   2.693  20.230  0.00  0.00    +0.000 A 
ATOM     17  C   UNL     1       4.293   3.385  19.211  0.00  0.00    +0.000 A 
ENDBRANCH   5  12
BRANCH   1  19
ATOM     18  N   UNL     1       2.724   6.849  18.061  0.00  0.00    +0.000 N 
ATOM     19  C   UNL     1       4.074   6.845  17.753  0.00  0.00    +0.000 C 
ATOM     20  O   UNL     1       4.900   7.641  18.182  0.00  0.00    +0.000 OA
ATOM     21  H   UNL     1       2.176   6.046  17.786  0.00  0.00    +0.000 HD
BRANCH  18  25
ATOM     22  C   UNL     1       0.873   9.872  20.351  0.00  0.00    +0.000 A 
ATOM     23  C   UNL     1       1.038  10.051  18.978  0.00  0.00    +0.000 A 
ATOM     24  C   UNL     1       1.631   9.052  18.206  0.00  0.00    +0.000 A 
ATOM     25  C   UNL     1       2.064   7.859  18.791  0.00  0.00    +0.000 A 
ATOM     26  C   UNL     1       1.833   7.649  20.154  0.00  0.00    +0.000 A 
ATOM     27  C   UNL     1       1.254   8.657  20.936  0.00  0.00    +0.000 A 
BRANCH  22  28
ATOM     28  C   UNL     1       0.381  11.033  21.136  0.00  0.00    +0.000 C 
ATOM     29  O   UNL     1       1.081  11.983  21.444  0.00  0.00    +0.000 OA
BRANCH  28  30
ATOM     30  O   UNL     1      -0.882  10.794  21.567  0.00  0.00    +0.000 OA
BRANCH  30  32
ATOM     31  C   UNL     1      -2.121  12.131  23.106  0.00  0.00    +0.000 C 
ATOM     32  C   UNL     1      -1.094  11.021  22.966  0.00  0.00    +0.000 C 
ENDBRANCH  30  32
ENDBRANCH  28  30
ENDBRANCH  22  28
ENDBRANCH  18  25
ENDBRANCH   1  19
TORSDOF 7
ENDMDL
MODEL 3
REMARK VINA RESULT:      -7.9      3.933      6.339
REMARK  Name = 
REMARK  8 active torsions:
REMARK  status: ('A' for Active; 'I' for Inactive)
REMARK    1  A    between atoms: C_1  and  C_2
REMARK    2  A    between atoms: C_2  and  O_3
REMARK    3  A    between atoms: O_3  and  C_4
REMARK    4  A    between atoms: C_4  and  C_6
REMARK    5  A    between atoms: C_9  and  N_10
REMARK    6  A    between atoms: C_11  and  C_13
REMARK    7  A    between atoms: N_15  and  C_16
REMARK    8  A    between atoms: C_23  and  C_24
REMARK                            x       y       z     vdW  Elec       q    Type
REMARK                         _______ _______ _______ _____ _____    ______ ____
ROOT
ATOM      1  C   UNL     1       0.008  10.476  19.240  0.00  0.00    +0.000 A 
ATOM      2  C   UNL     1      -1.327  10.225  19.000  0.00  0.00    +0.000 A 
ATOM      3  N   UNL     1      -1.906  11.421  18.642  0.00  0.00    +0.000 N 
ATOM      4  N   UNL     1      -0.997  12.426  18.628  0.00  0.00    +0.000 NA
ATOM      5  C   UNL     1       0.161  11.880  19.033  0.00  0.00    +0.000 A 
ENDROOT
BRANCH   3   6
ATOM      6  C   UNL     1      -3.276  11.657  18.335  0.00  0.00    +0.000 A 
ATOM      7  C   UNL     1      -3.789  11.383  17.058  0.00  0.00    +0.000 A 
ATOM      8  C   UNL     1      -5.144  11.598  16.783  0.00  0.00    +0.000 A 
ATOM      9  C   UNL     1      -5.989  12.091  17.776  0.00  0.00    +0.000 A 
ATOM     10  C   UNL     1      -5.485  12.372  19.045  0.00  0.00    +0.000 A 
ATOM     11  C   UNL     1      -4.134  12.154  19.328  0.00  0.00    +0.000 A 
ENDBRANCH   3   6
BRANCH   5  12
ATOM     12  C   UNL     1       1.353  12.713  19.248  0.00  0.00    +0.000 A 
ATOM     13  C   UNL     1       1.703  13.158  20.527  0.00  0.00    +0.000 A 
ATOM     14  C   UNL     1       2.839  13.933  20.684  0.00  0.00    +0.000 A 
ATOM     15  N   UNL     1       3.631  14.316  19.663  0.00  0.00    +0.000 NA
ATOM     16  C   UNL     1       3.263  13.899  18.431  0.00  0.00    +0.000 A 
ATOM     17  C   UNL     1       2.153  13.106  18.174  0.00  0.00    +0.000 A 
ENDBRANCH   5  12
BRANCH   1  19
ATOM     18  N   UNL     1       1.549   8.807  18.515  0.00  0.00    +0.000 N 
ATOM     19  C   UNL     1       1.036   9.511  19.591  0.00  0.00    +0.000 C 
ATOM     20  O   UNL     1       1.374   9.366  20.759  0.00  0.00    +0.000 OA
ATOM     21  H   UNL     1       1.319   9.131  17.587  0.00  0.00    +0.000 HD
BRANCH  18  25
ATOM     22  C   UNL     1       4.307   5.625  18.797  0.00  0.00    +0.000 A 
ATOM     23  C   UNL     1       3.298   5.750  19.752  0.00  0.00    +0.000 A 
ATOM     24  C   UNL     1       2.368   6.786  19.660  0.00  0.00    +0.000 A 
ATOM     25  C   UNL     1       2.429   7.710  18.613  0.00  0.00    +0.000 A 
ATOM     26  C   UNL     1       3.396   7.543  17.616  0.00  0.00    +0.000 A 
ATOM     27  C   UNL     1       4.342   6.515  17.715  0.00  0.00    +0.000 A 
BRANCH  22  28
ATOM     28  C   UNL     1       5.353   4.599  19.041  0.00  0.00    +0.000 C 
ATOM     29  O   UNL     1       5.168   3.402  18.902  0.00  0.00    +0.000 OA
BRANCH  28  30
ATOM     30  O   UNL     1       6.455   5.184  19.571  0.00  0.00    +0.000 OA
BRANCH  30  32
ATOM     31  C   UNL     1       7.865   6.729  18.423  0.00  0.00    +0.000 C 
ATOM     32  C   UNL     1       7.581   5.260  18.686  0.00  0.00    +0.000 C 
ENDBRANCH  30  32
ENDBRANCH  28  30
ENDBRANCH  22  28
ENDBRANCH  18  25
ENDBRANCH   1  19
TORSDOF 7
ENDMDL
MODEL 4
REMARK VINA RESULT:      -7.9      3.863      6.231
REMARK  Name = 
REMARK  8 active torsions:
REMARK  status: ('A' for Active; 'I' for Inactive)
REMARK    1  A    between atoms: C_1  and  C_2
REMARK    2  A    between atoms: C_2  and  O_3
REMARK    3  A    between atoms: O_3  and  C_4
REMARK    4  A    between atoms: C_4  and  C_6
REMARK    5  A    between atoms: C_9  and  N_10
REMARK    6  A    between atoms: C_11  and  C_13
REMARK    7  A    between atoms: N_15  and  C_16
REMARK    8  A    between atoms: C_23  and  C_24
REMARK                            x       y       z     vdW  Elec       q    Type
REMARK                         _______ _______ _______ _____ _____    ______ ____
ROOT
ATOM      1  C   UNL     1       0.031  10.474  19.159  0.00  0.00    +0.000 A 
ATOM      2  C   UNL     1      -1.312  10.234  18.950  0.00  0.00    +0.000 A 
ATOM      3  N   UNL     1      -1.901  11.446  18.670  0.00  0.00    +0.000 N 
ATOM      4  N   UNL     1      -0.993  12.451  18.677  0.00  0.00    +0.000 NA
ATOM      5  C   UNL     1       0.178  11.887  19.017  0.00  0.00    +0.000 A 
ENDROOT
BRANCH   3   6
ATOM      6  C   UNL     1      -3.281  11.695  18.420  0.00  0.00    +0.000 A 
ATOM      7  C   UNL     1      -4.104  12.259  19.406  0.00  0.00    +0.000 A 
ATOM      8  C   UNL     1      -5.451  12.521  19.133  0.00  0.00    +0.000 A 
ATOM      9  C   UNL     1      -5.982  12.216  17.882  0.00  0.00    +0.000 A 
ATOM     10  C   UNL     1      -5.172  11.649  16.899  0.00  0.00    +0.000 A 
ATOM     11  C   UNL     1      -3.824  11.391  17.162  0.00  0.00    +0.000 A 
ENDBRANCH   3   6
BRANCH   5  12
ATOM     12  C   UNL     1       1.376  12.709  19.234  0.00  0.00    +0.000 A 
ATOM     13  C   UNL     1       2.173  13.123  18.162  0.00  0.00    +0.000 A 
ATOM     14  C   UNL     1       3.288  13.905  18.412  0.00  0.00    +0.000 A 
ATOM     15  N   UNL     1       3.678  14.279  19.646  0.00  0.00    +0.000 NA
ATOM     16  C   UNL     1       2.912  13.849  20.673  0.00  0.00    +0.000 A 
ATOM     17  C   UNL     1       1.767  13.077  20.523  0.00  0.00    +0.000 A 
ENDBRANCH   5  12
BRANCH   1  19
ATOM     18  N   UNL     1       1.553   8.852  18.302  0.00  0.00    +0.000 N 
ATOM     19  C   UNL     1       1.068   9.494  19.428  0.00  0.00    +0.000 C 
ATOM     20  O   UNL     1       1.438   9.285  20.577  0.00  0.00    +0.000 OA
ATOM     21  H   UNL     1       1.298   9.226  17.399  0.00  0.00    +0.000 HD
BRANCH  18  25
ATOM     22  C   UNL     1       4.321   5.666  18.352  0.00  0.00    +0.000 A 
ATOM     23  C   UNL     1       3.252   5.665  19.249  0.00  0.00    +0.000 A 
ATOM     24  C   UNL     1       2.319   6.702  19.230  0.00  0.00    +0.000 A 
ATOM     25  C   UNL     1       2.437   7.753  18.315  0.00  0.00    +0.000 A 
ATOM     26  C   UNL     1       3.466   7.717  17.369  0.00  0.00    +0.000 A 
ATOM     27  C   UNL     1       4.415   6.687  17.397  0.00  0.00    +0.000 A 
BRANCH  22  28
ATOM     28  C   UNL     1       5.360   4.620  18.530  0.00  0.00    +0.000 C 
ATOM     29  O   UNL     1       5.378   3.839  19.467  0.00  0.00    +0.000 OA
BRANCH  28  30
ATOM     30  O   UNL     1       6.331   4.775  17.597  0.00  0.00    +0.000 OA
BRANCH  30  32
ATOM     31  C   UNL     1       7.859   6.225  18.717  0.00  0.00    +0.000 C 
ATOM     32  C   UNL     1       7.664   4.841  18.120  0.00  0.00    +0.000 C 
ENDBRANCH  30  32
ENDBRANCH  28  30
ENDBRANCH  22  28
ENDBRANCH  18  25
ENDBRANCH   1  19
TORSDOF 7
ENDMDL
MODEL 5
REMARK VINA RESULT:      -7.9      2.265      9.135
REMARK  Name = 
REMARK  8 active torsions:
REMARK  status: ('A' for Active; 'I' for Inactive)
REMARK    1  A    between atoms: C_1  and  C_2
REMARK    2  A    between atoms: C_2  and  O_3
REMARK    3  A    between atoms: O_3  and  C_4
REMARK    4  A    between atoms: C_4  and  C_6
REMARK    5  A    between atoms: C_9  and  N_10
REMARK    6  A    between atoms: C_11  and  C_13
REMARK    7  A    between atoms: N_15  and  C_16
REMARK    8  A    between atoms: C_23  and  C_24
REMARK                            x       y       z     vdW  Elec       q    Type
REMARK                         _______ _______ _______ _____ _____    ______ ____
ROOT
ATOM      1  C   UNL     1       4.472   5.812  16.838  0.00  0.00    +0.000 A 
ATOM      2  C   UNL     1       5.175   5.925  15.656  0.00  0.00    +0.000 A 
ATOM      3  N   UNL     1       5.252   4.665  15.108  0.00  0.00    +0.000 N 
ATOM      4  N   UNL     1       4.616   3.751  15.880  0.00  0.00    +0.000 NA
ATOM      5  C   UNL     1       4.176   4.421  16.957  0.00  0.00    +0.000 A 
ENDROOT
BRANCH   3   6
ATOM      6  C   UNL     1       5.915   4.287  13.906  0.00  0.00    +0.000 A 
ATOM      7  C   UNL     1       5.401   3.273  13.084  0.00  0.00    +0.000 A 
ATOM      8  C   UNL     1       6.052   2.933  11.894  0.00  0.00    +0.000 A 
ATOM      9  C   UNL     1       7.219   3.598  11.522  0.00  0.00    +0.000 A 
ATOM     10  C   UNL     1       7.740   4.602  12.336  0.00  0.00    +0.000 A 
ATOM     11  C   UNL     1       7.091   4.951  13.524  0.00  0.00    +0.000 A 
ENDBRANCH   3   6
BRANCH   5  12
ATOM     12  C   UNL     1       3.531   3.714  18.073  0.00  0.00    +0.000 A 
ATOM     13  C   UNL     1       2.180   3.356  18.018  0.00  0.00    +0.000 A 
ATOM     14  C   UNL     1       1.616   2.683  19.088  0.00  0.00    +0.000 A 
ATOM     15  N   UNL     1       2.289   2.366  20.211  0.00  0.00    +0.000 NA
ATOM     16  C   UNL     1       3.586   2.743  20.259  0.00  0.00    +0.000 A 
ATOM     17  C   UNL     1       4.245   3.405  19.232  0.00  0.00    +0.000 A 
ENDBRANCH   5  12
BRANCH   1  19
ATOM     18  N   UNL     1       2.722   7.037  17.897  0.00  0.00    +0.000 N 
ATOM     19  C   UNL     1       4.089   6.884  17.740  0.00  0.00    +0.000 C 
ATOM     20  O   UNL     1       4.945   7.572  18.281  0.00  0.00    +0.000 OA
ATOM     21  H   UNL     1       2.122   6.307  17.538  0.00  0.00    +0.000 HD
BRANCH  18  25
ATOM     22  C   UNL     1       0.980  10.215  20.059  0.00  0.00    +0.000 A 
ATOM     23  C   UNL     1       1.229  10.364  18.694  0.00  0.00    +0.000 A 
ATOM     24  C   UNL     1       1.786   9.314  17.964  0.00  0.00    +0.000 A 
ATOM     25  C   UNL     1       2.101   8.101  18.582  0.00  0.00    +0.000 A 
ATOM     26  C   UNL     1       1.786   7.926  19.934  0.00  0.00    +0.000 A 
ATOM     27  C   UNL     1       1.242   8.984  20.675  0.00  0.00    +0.000 A 
BRANCH  22  28
ATOM     28  C   UNL     1       0.535  11.419  20.806  0.00  0.00    +0.000 C 
ATOM     29  O   UNL     1       1.290  12.305  21.169  0.00  0.00    +0.000 OA
BRANCH  28  30
ATOM     30  O   UNL     1      -0.774  11.296  21.137  0.00  0.00    +0.000 OA
BRANCH  30  32
ATOM     31  C   UNL     1      -0.929  10.215  23.259  0.00  0.00    +0.000 C 
ATOM     32  C   UNL     1      -1.070  11.535  22.519  0.00  0.00    +0.000 C 
ENDBRANCH  30  32
ENDBRANCH  28  30
ENDBRANCH  22  28
ENDBRANCH  18  25
ENDBRANCH   1  19
TORSDOF 7
ENDMDL
MODEL 6
REMARK VINA RESULT:      -7.8      3.881      6.180
REMARK  Name = 
REMARK  8 active torsions:
REMARK  status: ('A' for Active; 'I' for Inactive)
REMARK    1  A    between atoms: C_1  and  C_2
REMARK    2  A    between atoms: C_2  and  O_3
REMARK    3  A    between atoms: O_3  and  C_4
REMARK    4  A    between atoms: C_4  and  C_6
REMARK    5  A    between atoms: C_9  and  N_10
REMARK    6  A    between atoms: C_11  and  C_13
REMARK    7  A    between atoms: N_15  and  C_16
REMARK    8  A    between atoms: C_23  and  C_24
REMARK                            x       y       z     vdW  Elec       q    Type
REMARK                         _______ _______ _______ _____ _____    ______ ____
ROOT
ATOM      1  C   UNL     1       0.034  10.489  19.236  0.00  0.00    +0.000 A 
ATOM      2  C   UNL     1      -1.304  10.244  19.007  0.00  0.00    +0.000 A 
ATOM      3  N   UNL     1      -1.887  11.447  18.682  0.00  0.00    +0.000 N 
ATOM      4  N   UNL     1      -0.977  12.452  18.679  0.00  0.00    +0.000 NA
ATOM      5  C   UNL     1       0.185  11.897  19.058  0.00  0.00    +0.000 A 
ENDROOT
BRANCH   3   6
ATOM      6  C   UNL     1      -3.260  11.691  18.398  0.00  0.00    +0.000 A 
ATOM      7  C   UNL     1      -4.115  12.237  19.368  0.00  0.00    +0.000 A 
ATOM      8  C   UNL     1      -5.455  12.492  19.062  0.00  0.00    +0.000 A 
ATOM      9  C   UNL     1      -5.950  12.199  17.793  0.00  0.00    +0.000 A 
ATOM     10  C   UNL     1      -5.110  11.650  16.826  0.00  0.00    +0.000 A 
ATOM     11  C   UNL     1      -3.768  11.398  17.122  0.00  0.00    +0.000 A 
ENDBRANCH   3   6
BRANCH   5  12
ATOM     12  C   UNL     1       1.381  12.724  19.275  0.00  0.00    +0.000 A 
ATOM     13  C   UNL     1       1.774  13.102  20.563  0.00  0.00    +0.000 A 
ATOM     14  C   UNL     1       2.912  13.874  20.722  0.00  0.00    +0.000 A 
ATOM     15  N   UNL     1       3.665  14.317  19.696  0.00  0.00    +0.000 NA
ATOM     16  C   UNL     1       3.256  13.965  18.457  0.00  0.00    +0.000 A 
ATOM     17  C   UNL     1       2.141  13.180  18.197  0.00  0.00    +0.000 A 
ENDBRANCH   5  12
BRANCH   1  19
ATOM     18  N   UNL     1       1.581   8.852  18.454  0.00  0.00    +0.000 N 
ATOM     19  C   UNL     1       1.065   9.516  19.553  0.00  0.00    +0.000 C 
ATOM     20  O   UNL     1       1.404   9.331  20.716  0.00  0.00    +0.000 OA
ATOM     21  H   UNL     1       1.350   9.207  17.537  0.00  0.00    +0.000 HD
BRANCH  18  25
ATOM     22  C   UNL     1       4.098   5.470  18.640  0.00  0.00    +0.000 A 
ATOM     23  C   UNL     1       4.281   6.411  17.626  0.00  0.00    +0.000 A 
ATOM     24  C   UNL     1       3.469   7.543  17.565  0.00  0.00    +0.000 A 
ATOM     25  C   UNL     1       2.465   7.755  18.514  0.00  0.00    +0.000 A 
ATOM     26  C   UNL     1       2.328   6.849  19.571  0.00  0.00    +0.000 A 
ATOM     27  C   UNL     1       3.130   5.702  19.627  0.00  0.00    +0.000 A 
BRANCH  22  28
ATOM     28  C   UNL     1       4.889   4.215  18.556  0.00  0.00    +0.000 C 
ATOM     29  O   UNL     1       5.822   3.955  19.298  0.00  0.00    +0.000 OA
BRANCH  28  30
ATOM     30  O   UNL     1       4.512   3.507  17.463  0.00  0.00    +0.000 OA
BRANCH  30  32
ATOM     31  C   UNL     1       3.473   1.602  18.456  0.00  0.00    +0.000 C 
ATOM     32  C   UNL     1       3.254   2.830  17.588  0.00  0.00    +0.000 C 
ENDBRANCH  30  32
ENDBRANCH  28  30
ENDBRANCH  22  28
ENDBRANCH  18  25
ENDBRANCH   1  19
TORSDOF 7
ENDMDL
MODEL 7
REMARK VINA RESULT:      -7.8      3.769      5.927
REMARK  Name = 
REMARK  8 active torsions:
REMARK  status: ('A' for Active; 'I' for Inactive)
REMARK    1  A    between atoms: C_1  and  C_2
REMARK    2  A    between atoms: C_2  and  O_3
REMARK    3  A    between atoms: O_3  and  C_4
REMARK    4  A    between atoms: C_4  and  C_6
REMARK    5  A    between atoms: C_9  and  N_10
REMARK    6  A    between atoms: C_11  and  C_13
REMARK    7  A    between atoms: N_15  and  C_16
REMARK    8  A    between atoms: C_23  and  C_24
REMARK                            x       y       z     vdW  Elec       q    Type
REMARK                         _______ _______ _______ _____ _____    ______ ____
ROOT
ATOM      1  C   UNL     1       0.060  10.422  18.954  0.00  0.00    +0.000 A 
ATOM      2  C   UNL     1      -1.282  10.188  18.742  0.00  0.00    +0.000 A 
ATOM      3  N   UNL     1      -1.886  11.413  18.574  0.00  0.00    +0.000 N 
ATOM      4  N   UNL     1      -0.986  12.423  18.656  0.00  0.00    +0.000 NA
ATOM      5  C   UNL     1       0.194  11.843  18.932  0.00  0.00    +0.000 A 
ENDROOT
BRANCH   3   6
ATOM      6  C   UNL     1      -3.270  11.671  18.364  0.00  0.00    +0.000 A 
ATOM      7  C   UNL     1      -4.071  12.205  19.385  0.00  0.00    +0.000 A 
ATOM      8  C   UNL     1      -5.423  12.475  19.150  0.00  0.00    +0.000 A 
ATOM      9  C   UNL     1      -5.983  12.207  17.903  0.00  0.00    +0.000 A 
ATOM     10  C   UNL     1      -5.197  11.669  16.886  0.00  0.00    +0.000 A 
ATOM     11  C   UNL     1      -3.843  11.403  17.110  0.00  0.00    +0.000 A 
ENDBRANCH   3   6
BRANCH   5  12
ATOM     12  C   UNL     1       1.388  12.655  19.203  0.00  0.00    +0.000 A 
ATOM     13  C   UNL     1       2.199  13.120  18.163  0.00  0.00    +0.000 A 
ATOM     14  C   UNL     1       3.309  13.890  18.464  0.00  0.00    +0.000 A 
ATOM     15  N   UNL     1       3.682  14.206  19.719  0.00  0.00    +0.000 NA
ATOM     16  C   UNL     1       2.902  13.727  20.714  0.00  0.00    +0.000 A 
ATOM     17  C   UNL     1       1.761  12.962  20.513  0.00  0.00    +0.000 A 
ENDBRANCH   5  12
BRANCH   1  19
ATOM     18  N   UNL     1       1.529   8.835  17.950  0.00  0.00    +0.000 N 
ATOM     19  C   UNL     1       1.110   9.433  19.126  0.00  0.00    +0.000 C 
ATOM     20  O   UNL     1       1.544   9.180  20.242  0.00  0.00    +0.000 OA
ATOM     21  H   UNL     1       1.223   9.243  17.078  0.00  0.00    +0.000 HD
BRANCH  18  25
ATOM     22  C   UNL     1       4.271   5.631  17.799  0.00  0.00    +0.000 A 
ATOM     23  C   UNL     1       2.963   5.399  18.227  0.00  0.00    +0.000 A 
ATOM     24  C   UNL     1       2.042   6.446  18.263  0.00  0.00    +0.000 A 
ATOM     25  C   UNL     1       2.409   7.736  17.871  0.00  0.00    +0.000 A 
ATOM     26  C   UNL     1       3.698   7.953  17.374  0.00  0.00    +0.000 A 
ATOM     27  C   UNL     1       4.632   6.909  17.353  0.00  0.00    +0.000 A 
BRANCH  22  28
ATOM     28  C   UNL     1       5.240   4.513  17.934  0.00  0.00    +0.000 C 
ATOM     29  O   UNL     1       5.931   4.335  18.924  0.00  0.00    +0.000 OA
BRANCH  28  30
ATOM     30  O   UNL     1       5.336   3.844  16.759  0.00  0.00    +0.000 OA
BRANCH  30  32
ATOM     31  C   UNL     1       6.115   3.969  14.507  0.00  0.00    +0.000 C 
ATOM     32  C   UNL     1       6.482   4.180  15.966  0.00  0.00    +0.000 C 
ENDBRANCH  30  32
ENDBRANCH  28  30
ENDBRANCH  22  28
ENDBRANCH  18  25
ENDBRANCH   1  19
TORSDOF 7
ENDMDL
MODEL 8
REMARK VINA RESULT:      -7.8      3.772      5.931
REMARK  Name = 
REMARK  8 active torsions:
REMARK  status: ('A' for Active; 'I' for Inactive)
REMARK    1  A    between atoms: C_1  and  C_2
REMARK    2  A    between atoms: C_2  and  O_3
REMARK    3  A    between atoms: O_3  and  C_4
REMARK    4  A    between atoms: C_4  and  C_6
REMARK    5  A    between atoms: C_9  and  N_10
REMARK    6  A    between atoms: C_11  and  C_13
REMARK    7  A    between atoms: N_15  and  C_16
REMARK    8  A    between atoms: C_23  and  C_24
REMARK                            x       y       z     vdW  Elec       q    Type
REMARK                         _______ _______ _______ _____ _____    ______ ____
ROOT
ATOM      1  C   UNL     1       0.072  10.411  18.983  0.00  0.00    +0.000 A 
ATOM      2  C   UNL     1      -1.269  10.177  18.763  0.00  0.00    +0.000 A 
ATOM      3  N   UNL     1      -1.867  11.400  18.562  0.00  0.00    +0.000 N 
ATOM      4  N   UNL     1      -0.964  12.408  18.629  0.00  0.00    +0.000 NA
ATOM      5  C   UNL     1       0.210  11.831  18.929  0.00  0.00    +0.000 A 
ENDROOT
BRANCH   3   6
ATOM      6  C   UNL     1      -3.249  11.656  18.332  0.00  0.00    +0.000 A 
ATOM      7  C   UNL     1      -3.841  11.372  17.092  0.00  0.00    +0.000 A 
ATOM      8  C   UNL     1      -5.205  11.608  16.894  0.00  0.00    +0.000 A 
ATOM      9  C   UNL     1      -5.982  12.131  17.926  0.00  0.00    +0.000 A 
ATOM     10  C   UNL     1      -5.399  12.422  19.158  0.00  0.00    +0.000 A 
ATOM     11  C   UNL     1      -4.038  12.184  19.366  0.00  0.00    +0.000 A 
ENDBRANCH   3   6
BRANCH   5  12
ATOM     12  C   UNL     1       1.405  12.646  19.193  0.00  0.00    +0.000 A 
ATOM     13  C   UNL     1       1.781  12.975  20.499  0.00  0.00    +0.000 A 
ATOM     14  C   UNL     1       2.919  13.737  20.702  0.00  0.00    +0.000 A 
ATOM     15  N   UNL     1       3.688  14.213  19.704  0.00  0.00    +0.000 NA
ATOM     16  C   UNL     1       3.295  13.908  18.447  0.00  0.00    +0.000 A 
ATOM     17  C   UNL     1       2.182  13.137  18.143  0.00  0.00    +0.000 A 
ENDBRANCH   5  12
BRANCH   1  19
ATOM     18  N   UNL     1       1.604   8.858  18.021  0.00  0.00    +0.000 N 
ATOM     19  C   UNL     1       1.117   9.423  19.186  0.00  0.00    +0.000 C 
ATOM     20  O   UNL     1       1.490   9.143  20.319  0.00  0.00    +0.000 OA
ATOM     21  H   UNL     1       1.344   9.287  17.144  0.00  0.00    +0.000 HD
BRANCH  18  25
ATOM     22  C   UNL     1       4.382   5.683  17.913  0.00  0.00    +0.000 A 
ATOM     23  C   UNL     1       3.124   5.479  18.482  0.00  0.00    +0.000 A 
ATOM     24  C   UNL     1       2.190   6.515  18.506  0.00  0.00    +0.000 A 
ATOM     25  C   UNL     1       2.494   7.766  17.962  0.00  0.00    +0.000 A 
ATOM     26  C   UNL     1       3.727   7.948  17.328  0.00  0.00    +0.000 A 
ATOM     27  C   UNL     1       4.675   6.917  17.317  0.00  0.00    +0.000 A 
BRANCH  22  28
ATOM     28  C   UNL     1       5.381   4.593  18.060  0.00  0.00    +0.000 C 
ATOM     29  O   UNL     1       5.494   3.914  19.067  0.00  0.00    +0.000 OA
BRANCH  28  30
ATOM     30  O   UNL     1       6.212   4.585  16.990  0.00  0.00    +0.000 OA
BRANCH  30  32
ATOM     31  C   UNL     1       5.844   4.557  14.633  0.00  0.00    +0.000 C 
ATOM     32  C   UNL     1       5.796   3.737  15.911  0.00  0.00    +0.000 C 
ENDBRANCH  30  32
ENDBRANCH  28  30
ENDBRANCH  22  28
ENDBRANCH  18  25
ENDBRANCH   1  19
TORSDOF 7
ENDMDL
MODEL 9
REMARK VINA RESULT:      -7.8      2.376      9.035
REMARK  Name = 
REMARK  8 active torsions:
REMARK  status: ('A' for Active; 'I' for Inactive)
REMARK    1  A    between atoms: C_1  and  C_2
REMARK    2  A    between atoms: C_2  and  O_3
REMARK    3  A    between atoms: O_3  and  C_4
REMARK    4  A    between atoms: C_4  and  C_6
REMARK    5  A    between atoms: C_9  and  N_10
REMARK    6  A    between atoms: C_11  and  C_13
REMARK    7  A    between atoms: N_15  and  C_16
REMARK    8  A    between atoms: C_23  and  C_24
REMARK                            x       y       z     vdW  Elec       q    Type
REMARK                         _______ _______ _______ _____ _____    ______ ____
ROOT
ATOM      1  C   UNL     1       4.422   5.874  16.898  0.00  0.00    +0.000 A 
ATOM      2  C   UNL     1       5.142   5.995  15.728  0.00  0.00    +0.000 A 
ATOM      3  N   UNL     1       5.238   4.736  15.179  0.00  0.00    +0.000 N 
ATOM      4  N   UNL     1       4.598   3.815  15.940  0.00  0.00    +0.000 NA
ATOM      5  C   UNL     1       4.136   4.480  17.012  0.00  0.00    +0.000 A 
ENDROOT
BRANCH   3   6
ATOM      6  C   UNL     1       5.921   4.366  13.986  0.00  0.00    +0.000 A 
ATOM      7  C   UNL     1       5.397   3.390  13.125  0.00  0.00    +0.000 A 
ATOM      8  C   UNL     1       6.070   3.058  11.945  0.00  0.00    +0.000 A 
ATOM      9  C   UNL     1       7.269   3.691  11.623  0.00  0.00    +0.000 A 
ATOM     10  C   UNL     1       7.800   4.656  12.477  0.00  0.00    +0.000 A 
ATOM     11  C   UNL     1       7.130   4.998  13.654  0.00  0.00    +0.000 A 
ENDBRANCH   3   6
BRANCH   5  12
ATOM     12  C   UNL     1       3.480   3.766  18.117  0.00  0.00    +0.000 A 
ATOM     13  C   UNL     1       4.187   3.415  19.271  0.00  0.00    +0.000 A 
ATOM     14  C   UNL     1       3.527   2.752  20.291  0.00  0.00    +0.000 A 
ATOM     15  N   UNL     1       2.230   2.392  20.234  0.00  0.00    +0.000 NA
ATOM     16  C   UNL     1       1.569   2.715  19.100  0.00  0.00    +0.000 A 
ATOM     17  C   UNL     1       2.138   3.394  18.031  0.00  0.00    +0.000 A 
ENDBRANCH   5  12
BRANCH   1  19
ATOM     18  N   UNL     1       2.660   6.967  18.077  0.00  0.00    +0.000 N 
ATOM     19  C   UNL     1       4.015   6.941  17.796  0.00  0.00    +0.000 C 
ATOM     20  O   UNL     1       4.843   7.732  18.230  0.00  0.00    +0.000 OA
ATOM     21  H   UNL     1       2.107   6.167  17.802  0.00  0.00    +0.000 HD
BRANCH  18  25
ATOM     22  C   UNL     1       0.807  10.044  20.290  0.00  0.00    +0.000 A 
ATOM     23  C   UNL     1       0.969  10.188  18.912  0.00  0.00    +0.000 A 
ATOM     24  C   UNL     1       1.563   9.170  18.166  0.00  0.00    +0.000 A 
ATOM     25  C   UNL     1       2.000   7.994  18.781  0.00  0.00    +0.000 A 
ATOM     26  C   UNL     1       1.772   7.819  20.150  0.00  0.00    +0.000 A 
ATOM     27  C   UNL     1       1.192   8.846  20.906  0.00  0.00    +0.000 A 
BRANCH  22  28
ATOM     28  C   UNL     1       0.314  11.225  21.045  0.00  0.00    +0.000 C 
ATOM     29  O   UNL     1       1.049  12.061  21.544  0.00  0.00    +0.000 OA
BRANCH  28  30
ATOM     30  O   UNL     1      -1.029  11.136  21.211  0.00  0.00    +0.000 OA
BRANCH  30  32
ATOM     31  C   UNL     1      -2.284  12.041  19.395  0.00  0.00    +0.000 C 
ATOM     32  C   UNL     1      -1.764  12.296  20.800  0.00  0.00    +0.000 C 
ENDBRANCH  30  32
ENDBRANCH  28  30
ENDBRANCH  22  28
ENDBRANCH  18  25
ENDBRANCH   1  19
TORSDOF 7
ENDMDL
