MODEL 1
REMARK VINA RESULT:      -7.0      0.000      0.000
REMARK  Name = 
REMARK  4 active torsions:
REMARK  status: ('A' for Active; 'I' for Inactive)
REMARK    1  A    between atoms: C_1  and  C_2
REMARK    2  A    between atoms: C_2  and  C_3
REMARK    3  A    between atoms: N_10  and  S_11
REMARK    4  A    between atoms: S_11  and  C_14
REMARK                            x       y       z     vdW  Elec       q    Type
REMARK                         _______ _______ _______ _____ _____    ______ ____
ROOT
ATOM      1  C   UNL     1       7.120   5.647  19.254  0.00  0.00    +0.000 C 
ATOM      2  C   UNL     1       5.869   4.875  18.813  0.00  0.00    +0.000 C 
ATOM      3  C   UNL     1       4.651   5.442  19.599  0.00  0.00    +0.000 C 
ATOM      4  N   UNL     1       3.422   4.635  19.304  0.00  0.00    +0.000 NA
ATOM      5  C   UNL     1       3.665   3.222  19.743  0.00  0.00    +0.000 C 
ATOM      6  C   UNL     1       4.918   2.668  19.065  0.00  0.00    +0.000 C 
ATOM      7  O   UNL     1       6.077   3.501  19.242  0.00  0.00    +0.000 OA
ENDROOT
BRANCH   2   8
ATOM      8  C   UNL     1       5.744   4.977  17.284  0.00  0.00    +0.000 A 
ATOM      9  C   UNL     1       6.139   3.934  16.429  0.00  0.00    +0.000 A 
ATOM     10  C   UNL     1       6.107   4.087  15.039  0.00  0.00    +0.000 A 
ATOM     11  C   UNL     1       5.662   5.279  14.477  0.00  0.00    +0.000 A 
ATOM     12  C   UNL     1       5.212   6.301  15.301  0.00  0.00    +0.000 A 
ATOM     13  C   UNL     1       5.235   6.146  16.690  0.00  0.00    +0.000 A 
ENDBRANCH   2   8
BRANCH   4  14
ATOM     14  S   UNL     1       1.978   5.256  19.931  0.00  0.00    +0.000 S 
ATOM     15  O   UNL     1       0.881   4.673  19.188  0.00  0.00    +0.000 OA
ATOM     16  O   UNL     1       2.043   5.134  21.372  0.00  0.00    +0.000 OA
BRANCH  14  17
ATOM     17  C   UNL     1       2.025   6.989  19.528  0.00  0.00    +0.000 A 
ATOM     18  C   UNL     1       2.225   7.384  18.185  0.00  0.00    +0.000 A 
ATOM     19  C   UNL     1       1.934   8.693  17.787  0.00  0.00    +0.000 A 
ATOM     20  C   UNL     1       1.415   9.541  18.743  0.00  0.00    +0.000 A 
ATOM     21  C   UNL     1       1.279   9.164  20.062  0.00  0.00    +0.000 A 
ATOM     22  C   UNL     1       1.601   7.903  20.500  0.00  0.00    +0.000 A 
ATOM     23  O   UNL     1       0.672  10.125  20.811  0.00  0.00    +0.000 OA
ATOM     24  C   UNL     1       0.148  10.944  19.747  0.00  0.00    +0.000 C 
ATOM     25  O   UNL     1       0.877  10.772  18.514  0.00  0.00    +0.000 OA
ENDBRANCH  14  17
ENDBRANCH   4  14
TORSDOF 3
ENDMDL
MODEL 2
REMARK VINA RESULT:      -6.8      2.982      6.799
REMARK  Name = 
REMARK  4 active torsions:
REMARK  status: ('A' for Active; 'I' for Inactive)
REMARK    1  A    between atoms: C_1  and  C_2
REMARK    2  A    between atoms: C_2  and  C_3
REMARK    3  A    between atoms: N_10  and  S_11
REMARK    4  A    between atoms: S_11  and  C_14
REMARK                            x       y       z     vdW  Elec       q    Type
REMARK                         _______ _______ _______ _____ _____    ______ ____
ROOT
ATOM      1  C   UNL     1       2.421   5.639  21.127  0.00  0.00    +0.000 C 
ATOM      2  C   UNL     1       2.767   5.580  19.633  0.00  0.00    +0.000 C 
ATOM      3  C   UNL     1       4.283   5.892  19.477  0.00  0.00    +0.000 C 
ATOM      4  N   UNL     1       4.647   5.978  18.025  0.00  0.00    +0.000 NA
ATOM      5  C   UNL     1       3.859   7.091  17.402  0.00  0.00    +0.000 C 
ATOM      6  C   UNL     1       2.364   6.868  17.628  0.00  0.00    +0.000 C 
ATOM      7  O   UNL     1       2.021   6.663  19.010  0.00  0.00    +0.000 OA
ENDROOT
BRANCH   2   8
ATOM      8  C   UNL     1       2.337   4.209  19.085  0.00  0.00    +0.000 A 
ATOM      9  C   UNL     1       1.033   3.713  19.248  0.00  0.00    +0.000 A 
ATOM     10  C   UNL     1       0.692   2.423  18.827  0.00  0.00    +0.000 A 
ATOM     11  C   UNL     1       1.644   1.613  18.217  0.00  0.00    +0.000 A 
ATOM     12  C   UNL     1       2.922   2.104  17.992  0.00  0.00    +0.000 A 
ATOM     13  C   UNL     1       3.261   3.396  18.404  0.00  0.00    +0.000 A 
ENDBRANCH   2   8
BRANCH   4  14
ATOM     14  S   UNL     1       6.303   6.111  17.699  0.00  0.00    +0.000 S 
ATOM     15  O   UNL     1       6.575   7.480  17.315  0.00  0.00    +0.000 OA
ATOM     16  O   UNL     1       7.013   5.498  18.802  0.00  0.00    +0.000 OA
BRANCH  14  17
ATOM     17  C   UNL     1       6.558   5.100  16.257  0.00  0.00    +0.000 A 
ATOM     18  C   UNL     1       5.661   4.041  15.985  0.00  0.00    +0.000 A 
ATOM     19  C   UNL     1       5.628   3.456  14.715  0.00  0.00    +0.000 A 
ATOM     20  C   UNL     1       6.466   3.985  13.756  0.00  0.00    +0.000 A 
ATOM     21  C   UNL     1       7.378   4.978  14.046  0.00  0.00    +0.000 A 
ATOM     22  C   UNL     1       7.473   5.542  15.295  0.00  0.00    +0.000 A 
ATOM     23  O   UNL     1       8.042   5.406  12.938  0.00  0.00    +0.000 OA
ATOM     24  C   UNL     1       7.191   4.829  11.927  0.00  0.00    +0.000 C 
ATOM     25  O   UNL     1       6.438   3.703  12.423  0.00  0.00    +0.000 OA
ENDBRANCH  14  17
ENDBRANCH   4  14
TORSDOF 3
ENDMDL
MODEL 3
REMARK VINA RESULT:      -6.8      1.304      1.589
REMARK  Name = 
REMARK  4 active torsions:
REMARK  status: ('A' for Active; 'I' for Inactive)
REMARK    1  A    between atoms: C_1  and  C_2
REMARK    2  A    between atoms: C_2  and  C_3
REMARK    3  A    between atoms: N_10  and  S_11
REMARK    4  A    between atoms: S_11  and  C_14
REMARK                            x       y       z     vdW  Elec       q    Type
REMARK                         _______ _______ _______ _____ _____    ______ ____
ROOT
ATOM      1  C   UNL     1       6.924   7.583  17.190  0.00  0.00    +0.000 C 
ATOM      2  C   UNL     1       6.226   6.238  17.432  0.00  0.00    +0.000 C 
ATOM      3  C   UNL     1       4.800   6.529  17.985  0.00  0.00    +0.000 C 
ATOM      4  N   UNL     1       4.120   5.247  18.364  0.00  0.00    +0.000 NA
ATOM      5  C   UNL     1       4.928   4.580  19.437  0.00  0.00    +0.000 C 
ATOM      6  C   UNL     1       6.366   4.372  18.961  0.00  0.00    +0.000 C 
ATOM      7  O   UNL     1       6.987   5.578  18.482  0.00  0.00    +0.000 OA
ENDROOT
BRANCH   2   8
ATOM      8  C   UNL     1       6.250   5.431  16.123  0.00  0.00    +0.000 A 
ATOM      9  C   UNL     1       7.429   5.239  15.384  0.00  0.00    +0.000 A 
ATOM     10  C   UNL     1       7.409   4.585  14.148  0.00  0.00    +0.000 A 
ATOM     11  C   UNL     1       6.212   4.095  13.636  0.00  0.00    +0.000 A 
ATOM     12  C   UNL     1       5.045   4.221  14.376  0.00  0.00    +0.000 A 
ATOM     13  C   UNL     1       5.066   4.867  15.616  0.00  0.00    +0.000 A 
ENDBRANCH   2   8
BRANCH   4  14
ATOM     14  S   UNL     1       2.489   5.390  18.792  0.00  0.00    +0.000 S 
ATOM     15  O   UNL     1       1.691   4.957  17.664  0.00  0.00    +0.000 OA
ATOM     16  O   UNL     1       2.326   4.773  20.092  0.00  0.00    +0.000 OA
BRANCH  14  17
ATOM     17  C   UNL     1       2.228   7.140  18.983  0.00  0.00    +0.000 A 
ATOM     18  C   UNL     1       2.079   7.948  17.832  0.00  0.00    +0.000 A 
ATOM     19  C   UNL     1       1.545   9.236  17.942  0.00  0.00    +0.000 A 
ATOM     20  C   UNL     1       1.143   9.646  19.197  0.00  0.00    +0.000 A 
ATOM     21  C   UNL     1       1.346   8.874  20.320  0.00  0.00    +0.000 A 
ATOM     22  C   UNL     1       1.913   7.624  20.257  0.00  0.00    +0.000 A 
ATOM     23  O   UNL     1       0.800   9.433  21.434  0.00  0.00    +0.000 OA
ATOM     24  C   UNL     1      -0.042  10.418  20.803  0.00  0.00    +0.000 C 
ATOM     25  O   UNL     1       0.417  10.764  19.480  0.00  0.00    +0.000 OA
ENDBRANCH  14  17
ENDBRANCH   4  14
TORSDOF 3
ENDMDL
MODEL 4
REMARK VINA RESULT:      -6.7      6.977      9.576
REMARK  Name = 
REMARK  4 active torsions:
REMARK  status: ('A' for Active; 'I' for Inactive)
REMARK    1  A    between atoms: C_1  and  C_2
REMARK    2  A    between atoms: C_2  and  C_3
REMARK    3  A    between atoms: N_10  and  S_11
REMARK    4  A    between atoms: S_11  and  C_14
REMARK                            x       y       z     vdW  Elec       q    Type
REMARK                         _______ _______ _______ _____ _____    ______ ____
ROOT
ATOM      1  C   UNL     1       1.113  12.315  18.628  0.00  0.00    +0.000 C 
ATOM      2  C   UNL     1       0.038  11.777  19.582  0.00  0.00    +0.000 C 
ATOM      3  C   UNL     1      -0.331  12.913  20.580  0.00  0.00    +0.000 C 
ATOM      4  N   UNL     1      -1.283  12.400  21.620  0.00  0.00    +0.000 NA
ATOM      5  C   UNL     1      -0.610  11.293  22.375  0.00  0.00    +0.000 C 
ATOM      6  C   UNL     1      -0.142  10.205  21.409  0.00  0.00    +0.000 C 
ATOM      7  O   UNL     1       0.674  10.708  20.336  0.00  0.00    +0.000 OA
ENDROOT
BRANCH   2   8
ATOM      8  C   UNL     1      -1.142  11.254  18.746  0.00  0.00    +0.000 A 
ATOM      9  C   UNL     1      -1.007  10.180  17.851  0.00  0.00    +0.000 A 
ATOM     10  C   UNL     1      -2.069   9.785  17.030  0.00  0.00    +0.000 A 
ATOM     11  C   UNL     1      -3.291  10.445  17.102  0.00  0.00    +0.000 A 
ATOM     12  C   UNL     1      -3.465  11.470  18.021  0.00  0.00    +0.000 A 
ATOM     13  C   UNL     1      -2.407  11.859  18.848  0.00  0.00    +0.000 A 
ENDBRANCH   2   8
BRANCH   4  14
ATOM     14  S   UNL     1      -1.930  13.574  22.653  0.00  0.00    +0.000 S 
ATOM     15  O   UNL     1      -1.137  13.589  23.865  0.00  0.00    +0.000 OA
ATOM     16  O   UNL     1      -2.115  14.781  21.876  0.00  0.00    +0.000 OA
BRANCH  14  17
ATOM     17  C   UNL     1      -3.540  12.951  23.085  0.00  0.00    +0.000 A 
ATOM     18  C   UNL     1      -3.787  12.527  24.410  0.00  0.00    +0.000 A 
ATOM     19  C   UNL     1      -5.101  12.358  24.861  0.00  0.00    +0.000 A 
ATOM     20  C   UNL     1      -6.114  12.662  23.976  0.00  0.00    +0.000 A 
ATOM     21  C   UNL     1      -5.863  13.019  22.669  0.00  0.00    +0.000 A 
ATOM     22  C   UNL     1      -4.587  13.147  22.176  0.00  0.00    +0.000 A 
ATOM     23  O   UNL     1      -7.000  13.354  21.999  0.00  0.00    +0.000 OA
ATOM     24  C   UNL     1      -7.889  13.503  23.125  0.00  0.00    +0.000 C 
ATOM     25  O   UNL     1      -7.439  12.765  24.279  0.00  0.00    +0.000 OA
ENDBRANCH  14  17
ENDBRANCH   4  14
TORSDOF 3
ENDMDL
MODEL 5
REMARK VINA RESULT:      -6.7      6.872     10.412
REMARK  Name = 
REMARK  4 active torsions:
REMARK  status: ('A' for Active; 'I' for Inactive)
REMARK    1  A    between atoms: C_1  and  C_2
REMARK    2  A    between atoms: C_2  and  C_3
REMARK    3  A    between atoms: N_10  and  S_11
REMARK    4  A    between atoms: S_11  and  C_14
REMARK                            x       y       z     vdW  Elec       q    Type
REMARK                         _______ _______ _______ _____ _____    ______ ____
ROOT
ATOM      1  C   UNL     1      -6.995   9.854  18.805  0.00  0.00    +0.000 C 
ATOM      2  C   UNL     1      -6.120  11.115  18.771  0.00  0.00    +0.000 C 
ATOM      3  C   UNL     1      -5.787  11.509  20.240  0.00  0.00    +0.000 C 
ATOM      4  N   UNL     1      -5.043  12.811  20.271  0.00  0.00    +0.000 NA
ATOM      5  C   UNL     1      -5.917  13.871  19.672  0.00  0.00    +0.000 C 
ATOM      6  C   UNL     1      -6.348  13.466  18.263  0.00  0.00    +0.000 C 
ATOM      7  O   UNL     1      -6.954  12.163  18.205  0.00  0.00    +0.000 OA
ENDROOT
BRANCH   2   8
ATOM      8  C   UNL     1      -4.890  10.834  17.892  0.00  0.00    +0.000 A 
ATOM      9  C   UNL     1      -3.858   9.972  18.300  0.00  0.00    +0.000 A 
ATOM     10  C   UNL     1      -2.704   9.809  17.527  0.00  0.00    +0.000 A 
ATOM     11  C   UNL     1      -2.568  10.488  16.321  0.00  0.00    +0.000 A 
ATOM     12  C   UNL     1      -3.601  11.298  15.869  0.00  0.00    +0.000 A 
ATOM     13  C   UNL     1      -4.758  11.456  16.637  0.00  0.00    +0.000 A 
ENDBRANCH   2   8
BRANCH   4  14
ATOM     14  S   UNL     1      -4.438  13.264  21.785  0.00  0.00    +0.000 S 
ATOM     15  O   UNL     1      -4.333  14.708  21.811  0.00  0.00    +0.000 OA
ATOM     16  O   UNL     1      -5.209  12.561  22.789  0.00  0.00    +0.000 OA
BRANCH  14  17
ATOM     17  C   UNL     1      -2.781  12.614  21.817  0.00  0.00    +0.000 A 
ATOM     18  C   UNL     1      -2.304  11.990  22.992  0.00  0.00    +0.000 A 
ATOM     19  C   UNL     1      -1.161  11.185  22.946  0.00  0.00    +0.000 A 
ATOM     20  C   UNL     1      -0.568  11.004  21.714  0.00  0.00    +0.000 A 
ATOM     21  C   UNL     1      -1.006  11.662  20.585  0.00  0.00    +0.000 A 
ATOM     22  C   UNL     1      -2.095  12.500  20.603  0.00  0.00    +0.000 A 
ATOM     23  O   UNL     1      -0.332  11.274  19.469  0.00  0.00    +0.000 OA
ATOM     24  C   UNL     1       0.291  10.080  19.984  0.00  0.00    +0.000 C 
ATOM     25  O   UNL     1       0.413  10.104  21.422  0.00  0.00    +0.000 OA
ENDBRANCH  14  17
ENDBRANCH   4  14
TORSDOF 3
ENDMDL
MODEL 6
REMARK VINA RESULT:      -6.7      8.215     10.852
REMARK  Name = 
REMARK  4 active torsions:
REMARK  status: ('A' for Active; 'I' for Inactive)
REMARK    1  A    between atoms: C_1  and  C_2
REMARK    2  A    between atoms: C_2  and  C_3
REMARK    3  A    between atoms: N_10  and  S_11
REMARK    4  A    between atoms: S_11  and  C_14
REMARK                            x       y       z     vdW  Elec       q    Type
REMARK                         _______ _______ _______ _____ _____    ______ ____
ROOT
ATOM      1  C   UNL     1      -6.867  10.364  18.796  0.00  0.00    +0.000 C 
ATOM      2  C   UNL     1      -6.096  11.674  19.003  0.00  0.00    +0.000 C 
ATOM      3  C   UNL     1      -5.947  11.908  20.535  0.00  0.00    +0.000 C 
ATOM      4  N   UNL     1      -5.315  13.243  20.796  0.00  0.00    +0.000 NA
ATOM      5  C   UNL     1      -6.205  14.308  20.229  0.00  0.00    +0.000 C 
ATOM      6  C   UNL     1      -6.456  14.050  18.744  0.00  0.00    +0.000 C 
ATOM      7  O   UNL     1      -6.949  12.726  18.471  0.00  0.00    +0.000 OA
ENDROOT
BRANCH   2   8
ATOM      8  C   UNL     1      -4.765  11.584  18.238  0.00  0.00    +0.000 A 
ATOM      9  C   UNL     1      -4.710  11.321  16.859  0.00  0.00    +0.000 A 
ATOM     10  C   UNL     1      -3.486  11.148  16.205  0.00  0.00    +0.000 A 
ATOM     11  C   UNL     1      -2.293  11.254  16.913  0.00  0.00    +0.000 A 
ATOM     12  C   UNL     1      -2.322  11.573  18.263  0.00  0.00    +0.000 A 
ATOM     13  C   UNL     1      -3.545  11.755  18.916  0.00  0.00    +0.000 A 
ENDBRANCH   2   8
BRANCH   4  14
ATOM     14  S   UNL     1      -4.905  13.548  22.409  0.00  0.00    +0.000 S 
ATOM     15  O   UNL     1      -5.042  14.969  22.645  0.00  0.00    +0.000 OA
ATOM     16  O   UNL     1      -5.621  12.591  23.227  0.00  0.00    +0.000 OA
BRANCH  14  17
ATOM     17  C   UNL     1      -3.170  13.161  22.510  0.00  0.00    +0.000 A 
ATOM     18  C   UNL     1      -2.756  12.017  23.231  0.00  0.00    +0.000 A 
ATOM     19  C   UNL     1      -1.468  11.502  23.051  0.00  0.00    +0.000 A 
ATOM     20  C   UNL     1      -0.662  12.131  22.124  0.00  0.00    +0.000 A 
ATOM     21  C   UNL     1      -1.054  13.278  21.470  0.00  0.00    +0.000 A 
ATOM     22  C   UNL     1      -2.293  13.842  21.658  0.00  0.00    +0.000 A 
ATOM     23  O   UNL     1      -0.142  13.680  20.543  0.00  0.00    +0.000 OA
ATOM     24  C   UNL     1       0.646  12.475  20.465  0.00  0.00    +0.000 C 
ATOM     25  O   UNL     1       0.530  11.667  21.655  0.00  0.00    +0.000 OA
ENDBRANCH  14  17
ENDBRANCH   4  14
TORSDOF 3
ENDMDL
MODEL 7
REMARK VINA RESULT:      -6.6      7.513      9.967
REMARK  Name = 
REMARK  4 active torsions:
REMARK  status: ('A' for Active; 'I' for Inactive)
REMARK    1  A    between atoms: C_1  and  C_2
REMARK    2  A    between atoms: C_2  and  C_3
REMARK    3  A    between atoms: N_10  and  S_11
REMARK    4  A    between atoms: S_11  and  C_14
REMARK                            x       y       z     vdW  Elec       q    Type
REMARK                         _______ _______ _______ _____ _____    ______ ____
ROOT
ATOM      1  C   UNL     1      -0.191   9.964  23.044  0.00  0.00    +0.000 C 
ATOM      2  C   UNL     1      -0.488  11.156  22.125  0.00  0.00    +0.000 C 
ATOM      3  C   UNL     1      -1.079  10.604  20.795  0.00  0.00    +0.000 C 
ATOM      4  N   UNL     1      -1.264  11.718  19.809  0.00  0.00    +0.000 NA
ATOM      5  C   UNL     1       0.074  12.330  19.525  0.00  0.00    +0.000 C 
ATOM      6  C   UNL     1       0.729  12.791  20.827  0.00  0.00    +0.000 C 
ATOM      7  O   UNL     1       0.802  11.758  21.826  0.00  0.00    +0.000 OA
ENDROOT
BRANCH   2   8
ATOM      8  C   UNL     1      -1.409  12.134  22.874  0.00  0.00    +0.000 A 
ATOM      9  C   UNL     1      -2.704  11.778  23.285  0.00  0.00    +0.000 A 
ATOM     10  C   UNL     1      -3.558  12.714  23.877  0.00  0.00    +0.000 A 
ATOM     11  C   UNL     1      -3.126  14.019  24.088  0.00  0.00    +0.000 A 
ATOM     12  C   UNL     1      -1.830  14.378  23.745  0.00  0.00    +0.000 A 
ATOM     13  C   UNL     1      -0.973  13.440  23.161  0.00  0.00    +0.000 A 
ENDBRANCH   2   8
BRANCH   4  14
ATOM     14  S   UNL     1      -2.087  11.300  18.389  0.00  0.00    +0.000 S 
ATOM     15  O   UNL     1      -1.616  12.166  17.329  0.00  0.00    +0.000 OA
ATOM     16  O   UNL     1      -2.015   9.860  18.255  0.00  0.00    +0.000 OA
BRANCH  14  17
ATOM     17  C   UNL     1      -3.783  11.734  18.711  0.00  0.00    +0.000 A 
ATOM     18  C   UNL     1      -4.812  11.092  17.985  0.00  0.00    +0.000 A 
ATOM     19  C   UNL     1      -6.135  11.155  18.437  0.00  0.00    +0.000 A 
ATOM     20  C   UNL     1      -6.364  11.823  19.622  0.00  0.00    +0.000 A 
ATOM     21  C   UNL     1      -5.364  12.494  20.291  0.00  0.00    +0.000 A 
ATOM     22  C   UNL     1      -4.062  12.497  19.851  0.00  0.00    +0.000 A 
ATOM     23  O   UNL     1      -5.793  13.011  21.475  0.00  0.00    +0.000 OA
ATOM     24  C   UNL     1      -7.031  12.282  21.604  0.00  0.00    +0.000 C 
ATOM     25  O   UNL     1      -7.528  11.819  20.331  0.00  0.00    +0.000 OA
ENDBRANCH  14  17
ENDBRANCH   4  14
TORSDOF 3
ENDMDL
MODEL 8
REMARK VINA RESULT:      -6.6      6.860      9.558
REMARK  Name = 
REMARK  4 active torsions:
REMARK  status: ('A' for Active; 'I' for Inactive)
REMARK    1  A    between atoms: C_1  and  C_2
REMARK    2  A    between atoms: C_2  and  C_3
REMARK    3  A    between atoms: N_10  and  S_11
REMARK    4  A    between atoms: S_11  and  C_14
REMARK                            x       y       z     vdW  Elec       q    Type
REMARK                         _______ _______ _______ _____ _____    ______ ____
ROOT
ATOM      1  C   UNL     1       1.209  11.806  18.817  0.00  0.00    +0.000 C 
ATOM      2  C   UNL     1      -0.008  11.409  19.663  0.00  0.00    +0.000 C 
ATOM      3  C   UNL     1      -0.313  12.576  20.647  0.00  0.00    +0.000 C 
ATOM      4  N   UNL     1      -1.412  12.186  21.589  0.00  0.00    +0.000 NA
ATOM      5  C   UNL     1      -0.961  10.994  22.379  0.00  0.00    +0.000 C 
ATOM      6  C   UNL     1      -0.555   9.861  21.437  0.00  0.00    +0.000 C 
ATOM      7  O   UNL     1       0.413  10.259  20.450  0.00  0.00    +0.000 OA
ENDROOT
BRANCH   2   8
ATOM      8  C   UNL     1      -1.167  11.053  18.717  0.00  0.00    +0.000 A 
ATOM      9  C   UNL     1      -2.427  11.667  18.812  0.00  0.00    +0.000 A 
ATOM     10  C   UNL     1      -3.493  11.258  18.006  0.00  0.00    +0.000 A 
ATOM     11  C   UNL     1      -3.316  10.240  17.075  0.00  0.00    +0.000 A 
ATOM     12  C   UNL     1      -2.064   9.660  16.922  0.00  0.00    +0.000 A 
ATOM     13  C   UNL     1      -0.995  10.074  17.722  0.00  0.00    +0.000 A 
ENDBRANCH   2   8
BRANCH   4  14
ATOM     14  S   UNL     1      -1.990  13.428  22.584  0.00  0.00    +0.000 S 
ATOM     15  O   UNL     1      -1.184  13.448  23.787  0.00  0.00    +0.000 OA
ATOM     16  O   UNL     1      -2.123  14.613  21.763  0.00  0.00    +0.000 OA
BRANCH  14  17
ATOM     17  C   UNL     1      -3.624  12.902  23.052  0.00  0.00    +0.000 A 
ATOM     18  C   UNL     1      -3.853  12.436  24.367  0.00  0.00    +0.000 A 
ATOM     19  C   UNL     1      -5.157  12.341  24.862  0.00  0.00    +0.000 A 
ATOM     20  C   UNL     1      -6.178  12.757  24.032  0.00  0.00    +0.000 A 
ATOM     21  C   UNL     1      -5.950  13.155  22.733  0.00  0.00    +0.000 A 
ATOM     22  C   UNL     1      -4.686  13.214  22.196  0.00  0.00    +0.000 A 
ATOM     23  O   UNL     1      -7.083  13.601  22.125  0.00  0.00    +0.000 OA
ATOM     24  C   UNL     1      -7.916  13.761  23.290  0.00  0.00    +0.000 C 
ATOM     25  O   UNL     1      -7.479  12.940  24.393  0.00  0.00    +0.000 OA
ENDBRANCH  14  17
ENDBRANCH   4  14
TORSDOF 3
ENDMDL
MODEL 9
REMARK VINA RESULT:      -6.6      7.477      9.838
REMARK  Name = 
REMARK  4 active torsions:
REMARK  status: ('A' for Active; 'I' for Inactive)
REMARK    1  A    between atoms: C_1  and  C_2
REMARK    2  A    between atoms: C_2  and  C_3
REMARK    3  A    between atoms: N_10  and  S_11
REMARK    4  A    between atoms: S_11  and  C_14
REMARK                            x       y       z     vdW  Elec       q    Type
REMARK                         _______ _______ _______ _____ _____    ______ ____
ROOT
ATOM      1  C   UNL     1      -0.179  13.493  18.641  0.00  0.00    +0.000 C 
ATOM      2  C   UNL     1      -0.915  12.503  19.553  0.00  0.00    +0.000 C 
ATOM      3  C   UNL     1      -1.764  13.322  20.568  0.00  0.00    +0.000 C 
ATOM      4  N   UNL     1      -2.401  12.406  21.569  0.00  0.00    +0.000 NA
ATOM      5  C   UNL     1      -1.317  11.688  22.315  0.00  0.00    +0.000 C 
ATOM      6  C   UNL     1      -0.401  10.954  21.336  0.00  0.00    +0.000 C 
ATOM      7  O   UNL     1       0.120  11.803  20.298  0.00  0.00    +0.000 OA
ENDROOT
BRANCH   2   8
ATOM      8  C   UNL     1      -1.728  11.538  18.673  0.00  0.00    +0.000 A 
ATOM      9  C   UNL     1      -1.121  10.517  17.922  0.00  0.00    +0.000 A 
ATOM     10  C   UNL     1      -1.869   9.715  17.055  0.00  0.00    +0.000 A 
ATOM     11  C   UNL     1      -3.242   9.906  16.936  0.00  0.00    +0.000 A 
ATOM     12  C   UNL     1      -3.872  10.868  17.712  0.00  0.00    +0.000 A 
ATOM     13  C   UNL     1      -3.126  11.664  18.586  0.00  0.00    +0.000 A 
ENDBRANCH   2   8
BRANCH   4  14
ATOM     14  S   UNL     1      -3.517  13.135  22.613  0.00  0.00    +0.000 S 
ATOM     15  O   UNL     1      -3.950  12.140  23.571  0.00  0.00    +0.000 OA
ATOM     16  O   UNL     1      -2.941  14.387  23.056  0.00  0.00    +0.000 OA
BRANCH  14  17
ATOM     17  C   UNL     1      -4.915  13.514  21.579  0.00  0.00    +0.000 A 
ATOM     18  C   UNL     1      -5.071  14.826  21.077  0.00  0.00    +0.000 A 
ATOM     19  C   UNL     1      -5.944  15.073  20.012  0.00  0.00    +0.000 A 
ATOM     20  C   UNL     1      -6.593  13.986  19.466  0.00  0.00    +0.000 A 
ATOM     21  C   UNL     1      -6.479  12.720  19.999  0.00  0.00    +0.000 A 
ATOM     22  C   UNL     1      -5.670  12.448  21.075  0.00  0.00    +0.000 A 
ATOM     23  O   UNL     1      -7.136  11.788  19.256  0.00  0.00    +0.000 OA
ATOM     24  C   UNL     1      -7.344  12.561  18.056  0.00  0.00    +0.000 C 
ATOM     25  O   UNL     1      -7.312  13.981  18.308  0.00  0.00    +0.000 OA
ENDBRANCH  14  17
ENDBRANCH   4  14
TORSDOF 3
ENDMDL
