MODEL 1
REMARK VINA RESULT:      -9.1      0.000      0.000
REMARK  Name = 
REMARK  8 active torsions:
REMARK  status: ('A' for Active; 'I' for Inactive)
REMARK    1  A    between atoms: C_1  and  C_2
REMARK    2  A    between atoms: C_2  and  C_3
REMARK    3  A    between atoms: C_2  and  C_4
REMARK    4  A    between atoms: C_7  and  N_8
REMARK    5  A    between atoms: C_12  and  C_13
REMARK    6  A    between atoms: C_18  and  C_19
REMARK    7  A    between atoms: C_19  and  C_20
REMARK    8  A    between atoms: C_20  and  C_21
REMARK                            x       y       z     vdW  Elec       q    Type
REMARK                         _______ _______ _______ _____ _____    ______ ____
ROOT
ATOM      1  N   UNL     1       7.271   5.177  16.378  0.00  0.00    +0.000 N 
ATOM      2  C   UNL     1       6.620   5.184  17.554  0.00  0.00    +0.000 A 
ATOM      3  N   UNL     1       6.981   5.792  18.666  0.00  0.00    +0.000 NA
ATOM      4  N   UNL     1       5.994   5.548  19.596  0.00  0.00    +0.000 NA
ATOM      5  C   UNL     1       5.084   4.810  18.992  0.00  0.00    +0.000 A 
ATOM      6  O   UNL     1       5.423   4.542  17.691  0.00  0.00    +0.000 OA
ATOM      7  H   UNL     1       8.121   5.729  16.369  0.00  0.00    +0.000 HD
ENDROOT
BRANCH   1  11
ATOM      8  C   UNL     1       6.011   3.590  12.636  0.00  0.00    +0.000 A 
ATOM      9  C   UNL     1       5.299   3.358  13.819  0.00  0.00    +0.000 A 
ATOM     10  C   UNL     1       5.730   3.905  15.033  0.00  0.00    +0.000 A 
ATOM     11  C   UNL     1       6.887   4.696  15.115  0.00  0.00    +0.000 A 
ATOM     12  C   UNL     1       7.592   4.921  13.929  0.00  0.00    +0.000 A 
ATOM     13  C   UNL     1       7.162   4.381  12.709  0.00  0.00    +0.000 A 
BRANCH   8  15
ATOM     14  C   UNL     1       5.893   1.606  11.144  0.00  0.00    +0.000 C 
ATOM     15  C   UNL     1       5.464   3.064  11.322  0.00  0.00    +0.000 C 
ATOM     16  C   UNL     1       3.944   3.197  11.170  0.00  0.00    +0.000 C 
ENDBRANCH   8  15
ENDBRANCH   1  11
BRANCH   5  17
ATOM     17  C   UNL     1       3.826   4.253  19.476  0.00  0.00    +0.000 A 
ATOM     18  C   UNL     1       3.848   3.241  20.454  0.00  0.00    +0.000 A 
ATOM     19  C   UNL     1       2.667   2.729  20.985  0.00  0.00    +0.000 A 
ATOM     20  C   UNL     1       1.480   3.238  20.511  0.00  0.00    +0.000 A 
ATOM     21  N   UNL     1       1.403   4.180  19.547  0.00  0.00    +0.000 NA
ATOM     22  C   UNL     1       2.563   4.684  19.033  0.00  0.00    +0.000 A 
BRANCH  22  23
ATOM     23  C   UNL     1       2.347   5.727  17.952  0.00  0.00    +0.000 C 
BRANCH  23  24
ATOM     24  C   UNL     1       2.985   7.085  18.286  0.00  0.00    +0.000 C 
BRANCH  24  25
ATOM     25  C   UNL     1       2.065   8.128  18.890  0.00  0.00    +0.000 A 
ATOM     26  C   UNL     1       1.487   9.095  18.054  0.00  0.00    +0.000 A 
ATOM     27  C   UNL     1       0.577   9.998  18.592  0.00  0.00    +0.000 A 
ATOM     28  N   UNL     1       0.208  10.006  19.888  0.00  0.00    +0.000 NA
ATOM     29  C   UNL     1       0.772   9.070  20.678  0.00  0.00    +0.000 A 
ATOM     30  C   UNL     1       1.687   8.123  20.234  0.00  0.00    +0.000 A 
ENDBRANCH  24  25
ENDBRANCH  23  24
ENDBRANCH  22  23
ENDBRANCH   5  17
TORSDOF 6
ENDMDL
MODEL 2
REMARK VINA RESULT:      -8.9      0.836      1.038
REMARK  Name = 
REMARK  8 active torsions:
REMARK  status: ('A' for Active; 'I' for Inactive)
REMARK    1  A    between atoms: C_1  and  C_2
REMARK    2  A    between atoms: C_2  and  C_3
REMARK    3  A    between atoms: C_2  and  C_4
REMARK    4  A    between atoms: C_7  and  N_8
REMARK    5  A    between atoms: C_12  and  C_13
REMARK    6  A    between atoms: C_18  and  C_19
REMARK    7  A    between atoms: C_19  and  C_20
REMARK    8  A    between atoms: C_20  and  C_21
REMARK                            x       y       z     vdW  Elec       q    Type
REMARK                         _______ _______ _______ _____ _____    ______ ____
ROOT
ATOM      1  N   UNL     1       7.407   5.574  15.842  0.00  0.00    +0.000 N 
ATOM      2  C   UNL     1       6.904   5.560  17.089  0.00  0.00    +0.000 A 
ATOM      3  N   UNL     1       7.285   6.295  18.114  0.00  0.00    +0.000 NA
ATOM      4  N   UNL     1       6.466   5.963  19.171  0.00  0.00    +0.000 NA
ATOM      5  C   UNL     1       5.629   5.049  18.726  0.00  0.00    +0.000 A 
ATOM      6  O   UNL     1       5.855   4.746  17.407  0.00  0.00    +0.000 OA
ATOM      7  H   UNL     1       8.147   6.251  15.698  0.00  0.00    +0.000 HD
ENDROOT
BRANCH   1  11
ATOM      8  C   UNL     1       5.964   3.574  12.374  0.00  0.00    +0.000 A 
ATOM      9  C   UNL     1       5.252   3.578  13.579  0.00  0.00    +0.000 A 
ATOM     10  C   UNL     1       5.745   4.257  14.699  0.00  0.00    +0.000 A 
ATOM     11  C   UNL     1       6.966   4.949  14.663  0.00  0.00    +0.000 A 
ATOM     12  C   UNL     1       7.671   4.938  13.457  0.00  0.00    +0.000 A 
ATOM     13  C   UNL     1       7.179   4.265  12.329  0.00  0.00    +0.000 A 
BRANCH   8  15
ATOM     14  C   UNL     1       5.736   1.429  11.139  0.00  0.00    +0.000 C 
ATOM     15  C   UNL     1       5.356   2.912  11.151  0.00  0.00    +0.000 C 
ATOM     16  C   UNL     1       3.836   3.075  11.033  0.00  0.00    +0.000 C 
ENDBRANCH   8  15
ENDBRANCH   1  11
BRANCH   5  17
ATOM     17  C   UNL     1       4.546   4.334  19.391  0.00  0.00    +0.000 A 
ATOM     18  C   UNL     1       4.694   2.963  19.674  0.00  0.00    +0.000 A 
ATOM     19  C   UNL     1       3.708   2.261  20.363  0.00  0.00    +0.000 A 
ATOM     20  C   UNL     1       2.580   2.951  20.746  0.00  0.00    +0.000 A 
ATOM     21  N   UNL     1       2.372   4.256  20.465  0.00  0.00    +0.000 NA
ATOM     22  C   UNL     1       3.344   4.942  19.795  0.00  0.00    +0.000 A 
BRANCH  22  23
ATOM     23  C   UNL     1       2.990   6.394  19.530  0.00  0.00    +0.000 C 
BRANCH  23  24
ATOM     24  C   UNL     1       1.769   6.874  20.331  0.00  0.00    +0.000 C 
BRANCH  24  25
ATOM     25  C   UNL     1       1.469   8.358  20.271  0.00  0.00    +0.000 A 
ATOM     26  C   UNL     1       1.443   9.001  19.024  0.00  0.00    +0.000 A 
ATOM     27  C   UNL     1       1.083  10.342  18.961  0.00  0.00    +0.000 A 
ATOM     28  N   UNL     1       0.753  11.080  20.039  0.00  0.00    +0.000 NA
ATOM     29  C   UNL     1       0.782  10.448  21.230  0.00  0.00    +0.000 A 
ATOM     30  C   UNL     1       1.123   9.111  21.395  0.00  0.00    +0.000 A 
ENDBRANCH  24  25
ENDBRANCH  23  24
ENDBRANCH  22  23
ENDBRANCH   5  17
TORSDOF 6
ENDMDL
MODEL 3
REMARK VINA RESULT:      -8.8      2.862      7.663
REMARK  Name = 
REMARK  8 active torsions:
REMARK  status: ('A' for Active; 'I' for Inactive)
REMARK    1  A    between atoms: C_1  and  C_2
REMARK    2  A    between atoms: C_2  and  C_3
REMARK    3  A    between atoms: C_2  and  C_4
REMARK    4  A    between atoms: C_7  and  N_8
REMARK    5  A    between atoms: C_12  and  C_13
REMARK    6  A    between atoms: C_18  and  C_19
REMARK    7  A    between atoms: C_19  and  C_20
REMARK    8  A    between atoms: C_20  and  C_21
REMARK                            x       y       z     vdW  Elec       q    Type
REMARK                         _______ _______ _______ _____ _____    ______ ____
ROOT
ATOM      1  N   UNL     1       2.885   6.110  20.179  0.00  0.00    +0.000 N 
ATOM      2  C   UNL     1       3.780   5.327  19.552  0.00  0.00    +0.000 A 
ATOM      3  N   UNL     1       4.209   4.140  19.931  0.00  0.00    +0.000 NA
ATOM      4  N   UNL     1       5.091   3.705  18.964  0.00  0.00    +0.000 NA
ATOM      5  C   UNL     1       5.141   4.652  18.050  0.00  0.00    +0.000 A 
ATOM      6  O   UNL     1       4.331   5.713  18.364  0.00  0.00    +0.000 OA
ATOM      7  H   UNL     1       2.497   5.707  21.024  0.00  0.00    +0.000 HD
ENDROOT
BRANCH   1  11
ATOM      8  C   UNL     1       0.871   9.696  19.088  0.00  0.00    +0.000 A 
ATOM      9  C   UNL     1       0.774   9.153  20.374  0.00  0.00    +0.000 A 
ATOM     10  C   UNL     1       1.460   7.979  20.708  0.00  0.00    +0.000 A 
ATOM     11  C   UNL     1       2.259   7.301  19.774  0.00  0.00    +0.000 A 
ATOM     12  C   UNL     1       2.350   7.851  18.493  0.00  0.00    +0.000 A 
ATOM     13  C   UNL     1       1.670   9.030  18.153  0.00  0.00    +0.000 A 
BRANCH   8  15
ATOM     14  C   UNL     1      -0.807  11.340  19.899  0.00  0.00    +0.000 C 
ATOM     15  C   UNL     1       0.196  11.022  18.787  0.00  0.00    +0.000 C 
ATOM     16  C   UNL     1       1.162  12.195  18.587  0.00  0.00    +0.000 C 
ENDBRANCH   8  15
ENDBRANCH   1  11
BRANCH   5  17
ATOM     17  C   UNL     1       5.898   4.745  16.807  0.00  0.00    +0.000 A 
ATOM     18  C   UNL     1       5.593   3.873  15.744  0.00  0.00    +0.000 A 
ATOM     19  C   UNL     1       6.251   3.973  14.521  0.00  0.00    +0.000 A 
ATOM     20  C   UNL     1       7.217   4.944  14.392  0.00  0.00    +0.000 A 
ATOM     21  N   UNL     1       7.575   5.779  15.392  0.00  0.00    +0.000 NA
ATOM     22  C   UNL     1       6.923   5.682  16.587  0.00  0.00    +0.000 A 
BRANCH  22  23
ATOM     23  C   UNL     1       7.420   6.664  17.632  0.00  0.00    +0.000 C 
BRANCH  23  24
ATOM     24  C   UNL     1       7.154   8.132  17.256  0.00  0.00    +0.000 C 
BRANCH  24  25
ATOM     25  C   UNL     1       8.050   9.164  17.908  0.00  0.00    +0.000 A 
ATOM     26  C   UNL     1       8.067  10.473  17.402  0.00  0.00    +0.000 A 
ATOM     27  C   UNL     1       8.823  11.441  18.053  0.00  0.00    +0.000 A 
ATOM     28  N   UNL     1       9.557  11.201  19.158  0.00  0.00    +0.000 NA
ATOM     29  C   UNL     1       9.531   9.938  19.632  0.00  0.00    +0.000 A 
ATOM     30  C   UNL     1       8.803   8.904  19.055  0.00  0.00    +0.000 A 
ENDBRANCH  24  25
ENDBRANCH  23  24
ENDBRANCH  22  23
ENDBRANCH   5  17
TORSDOF 6
ENDMDL
MODEL 4
REMARK VINA RESULT:      -8.8      2.540      8.601
REMARK  Name = 
REMARK  8 active torsions:
REMARK  status: ('A' for Active; 'I' for Inactive)
REMARK    1  A    between atoms: C_1  and  C_2
REMARK    2  A    between atoms: C_2  and  C_3
REMARK    3  A    between atoms: C_2  and  C_4
REMARK    4  A    between atoms: C_7  and  N_8
REMARK    5  A    between atoms: C_12  and  C_13
REMARK    6  A    between atoms: C_18  and  C_19
REMARK    7  A    between atoms: C_19  and  C_20
REMARK    8  A    between atoms: C_20  and  C_21
REMARK                            x       y       z     vdW  Elec       q    Type
REMARK                         _______ _______ _______ _____ _____    ______ ____
ROOT
ATOM      1  N   UNL     1       1.736  10.006  17.869  0.00  0.00    +0.000 N 
ATOM      2  C   UNL     1       2.281   8.776  17.866  0.00  0.00    +0.000 A 
ATOM      3  N   UNL     1       3.278   8.344  17.122  0.00  0.00    +0.000 NA
ATOM      4  N   UNL     1       3.512   7.036  17.485  0.00  0.00    +0.000 NA
ATOM      5  C   UNL     1       2.647   6.750  18.436  0.00  0.00    +0.000 A 
ATOM      6  O   UNL     1       1.832   7.814  18.726  0.00  0.00    +0.000 OA
ATOM      7  H   UNL     1       2.177  10.659  17.233  0.00  0.00    +0.000 HD
ENDROOT
BRANCH   1  11
ATOM      8  C   UNL     1      -1.003  11.782  20.599  0.00  0.00    +0.000 A 
ATOM      9  C   UNL     1       0.382  11.855  20.785  0.00  0.00    +0.000 A 
ATOM     10  C   UNL     1       1.259  11.273  19.862  0.00  0.00    +0.000 A 
ATOM     11  C   UNL     1       0.790  10.593  18.727  0.00  0.00    +0.000 A 
ATOM     12  C   UNL     1      -0.594  10.524  18.550  0.00  0.00    +0.000 A 
ATOM     13  C   UNL     1      -1.478  11.110  19.468  0.00  0.00    +0.000 A 
BRANCH   8  15
ATOM     14  C   UNL     1      -3.283  12.724  20.896  0.00  0.00    +0.000 C 
ATOM     15  C   UNL     1      -1.923  12.507  21.564  0.00  0.00    +0.000 C 
ATOM     16  C   UNL     1      -2.099  11.809  22.918  0.00  0.00    +0.000 C 
ENDBRANCH   8  15
ENDBRANCH   1  11
BRANCH   5  17
ATOM     17  C   UNL     1       2.427   5.524  19.196  0.00  0.00    +0.000 A 
ATOM     18  C   UNL     1       2.138   5.606  20.571  0.00  0.00    +0.000 A 
ATOM     19  C   UNL     1       1.860   4.463  21.316  0.00  0.00    +0.000 A 
ATOM     20  C   UNL     1       1.889   3.252  20.664  0.00  0.00    +0.000 A 
ATOM     21  N   UNL     1       2.199   3.115  19.356  0.00  0.00    +0.000 NA
ATOM     22  C   UNL     1       2.464   4.239  18.627  0.00  0.00    +0.000 A 
BRANCH  22  23
ATOM     23  C   UNL     1       2.807   3.956  17.177  0.00  0.00    +0.000 C 
BRANCH  23  24
ATOM     24  C   UNL     1       4.126   3.183  17.007  0.00  0.00    +0.000 C 
BRANCH  24  25
ATOM     25  C   UNL     1       5.335   4.002  16.602  0.00  0.00    +0.000 A 
ATOM     26  C   UNL     1       5.649   4.129  15.240  0.00  0.00    +0.000 A 
ATOM     27  C   UNL     1       6.706   4.949  14.863  0.00  0.00    +0.000 A 
ATOM     28  N   UNL     1       7.464   5.642  15.736  0.00  0.00    +0.000 NA
ATOM     29  C   UNL     1       7.150   5.510  17.040  0.00  0.00    +0.000 A 
ATOM     30  C   UNL     1       6.110   4.719  17.516  0.00  0.00    +0.000 A 
ENDBRANCH  24  25
ENDBRANCH  23  24
ENDBRANCH  22  23
ENDBRANCH   5  17
TORSDOF 6
ENDMDL
MODEL 5
REMARK VINA RESULT:      -8.8      2.559      8.638
REMARK  Name = 
REMARK  8 active torsions:
REMARK  status: ('A' for Active; 'I' for Inactive)
REMARK    1  A    between atoms: C_1  and  C_2
REMARK    2  A    between atoms: C_2  and  C_3
REMARK    3  A    between atoms: C_2  and  C_4
REMARK    4  A    between atoms: C_7  and  N_8
REMARK    5  A    between atoms: C_12  and  C_13
REMARK    6  A    between atoms: C_18  and  C_19
REMARK    7  A    between atoms: C_19  and  C_20
REMARK    8  A    between atoms: C_20  and  C_21
REMARK                            x       y       z     vdW  Elec       q    Type
REMARK                         _______ _______ _______ _____ _____    ______ ____
ROOT
ATOM      1  N   UNL     1       1.714   9.968  17.913  0.00  0.00    +0.000 N 
ATOM      2  C   UNL     1       2.264   8.741  17.901  0.00  0.00    +0.000 A 
ATOM      3  N   UNL     1       3.254   8.315  17.144  0.00  0.00    +0.000 NA
ATOM      4  N   UNL     1       3.498   7.006  17.502  0.00  0.00    +0.000 NA
ATOM      5  C   UNL     1       2.645   6.715  18.462  0.00  0.00    +0.000 A 
ATOM      6  O   UNL     1       1.829   7.775  18.763  0.00  0.00    +0.000 OA
ATOM      7  H   UNL     1       2.145  10.625  17.273  0.00  0.00    +0.000 HD
ENDROOT
BRANCH   1  11
ATOM      8  C   UNL     1      -1.241  11.744  20.407  0.00  0.00    +0.000 A 
ATOM      9  C   UNL     1      -1.567  11.128  19.193  0.00  0.00    +0.000 A 
ATOM     10  C   UNL     1      -0.575  10.539  18.401  0.00  0.00    +0.000 A 
ATOM     11  C   UNL     1       0.776  10.549  18.783  0.00  0.00    +0.000 A 
ATOM     12  C   UNL     1       1.092  11.167  19.996  0.00  0.00    +0.000 A 
ATOM     13  C   UNL     1       0.101  11.753  20.798  0.00  0.00    +0.000 A 
BRANCH   8  15
ATOM     14  C   UNL     1      -2.018  11.993  22.754  0.00  0.00    +0.000 C 
ATOM     15  C   UNL     1      -2.352  12.285  21.289  0.00  0.00    +0.000 C 
ATOM     16  C   UNL     1      -2.645  13.777  21.095  0.00  0.00    +0.000 C 
ENDBRANCH   8  15
ENDBRANCH   1  11
BRANCH   5  17
ATOM     17  C   UNL     1       2.438   5.487  19.221  0.00  0.00    +0.000 A 
ATOM     18  C   UNL     1       2.187   5.563  20.604  0.00  0.00    +0.000 A 
ATOM     19  C   UNL     1       1.923   4.418  21.351  0.00  0.00    +0.000 A 
ATOM     20  C   UNL     1       1.928   3.209  20.692  0.00  0.00    +0.000 A 
ATOM     21  N   UNL     1       2.201   3.078  19.376  0.00  0.00    +0.000 NA
ATOM     22  C   UNL     1       2.453   4.204  18.646  0.00  0.00    +0.000 A 
BRANCH  22  23
ATOM     23  C   UNL     1       2.756   3.926  17.185  0.00  0.00    +0.000 C 
BRANCH  23  24
ATOM     24  C   UNL     1       4.093   3.198  16.973  0.00  0.00    +0.000 C 
BRANCH  24  25
ATOM     25  C   UNL     1       5.246   4.045  16.472  0.00  0.00    +0.000 A 
ATOM     26  C   UNL     1       6.111   4.642  17.403  0.00  0.00    +0.000 A 
ATOM     27  C   UNL     1       7.217   5.347  16.943  0.00  0.00    +0.000 A 
ATOM     28  N   UNL     1       7.519   5.500  15.639  0.00  0.00    +0.000 NA
ATOM     29  C   UNL     1       6.679   4.921  14.757  0.00  0.00    +0.000 A 
ATOM     30  C   UNL     1       5.550   4.193  15.118  0.00  0.00    +0.000 A 
ENDBRANCH  24  25
ENDBRANCH  23  24
ENDBRANCH  22  23
ENDBRANCH   5  17
TORSDOF 6
ENDMDL
MODEL 6
REMARK VINA RESULT:      -8.7      0.267      1.266
REMARK  Name = 
REMARK  8 active torsions:
REMARK  status: ('A' for Active; 'I' for Inactive)
REMARK    1  A    between atoms: C_1  and  C_2
REMARK    2  A    between atoms: C_2  and  C_3
REMARK    3  A    between atoms: C_2  and  C_4
REMARK    4  A    between atoms: C_7  and  N_8
REMARK    5  A    between atoms: C_12  and  C_13
REMARK    6  A    between atoms: C_18  and  C_19
REMARK    7  A    between atoms: C_19  and  C_20
REMARK    8  A    between atoms: C_20  and  C_21
REMARK                            x       y       z     vdW  Elec       q    Type
REMARK                         _______ _______ _______ _____ _____    ______ ____
ROOT
ATOM      1  N   UNL     1       7.069   4.950  16.446  0.00  0.00    +0.000 N 
ATOM      2  C   UNL     1       6.470   4.992  17.650  0.00  0.00    +0.000 A 
ATOM      3  N   UNL     1       6.906   5.588  18.740  0.00  0.00    +0.000 NA
ATOM      4  N   UNL     1       5.949   5.393  19.713  0.00  0.00    +0.000 NA
ATOM      5  C   UNL     1       4.983   4.694  19.155  0.00  0.00    +0.000 A 
ATOM      6  O   UNL     1       5.253   4.404  17.842  0.00  0.00    +0.000 OA
ATOM      7  H   UNL     1       7.942   5.463  16.397  0.00  0.00    +0.000 HD
ENDROOT
BRANCH   1  11
ATOM      8  C   UNL     1       5.803   3.633  12.603  0.00  0.00    +0.000 A 
ATOM      9  C   UNL     1       7.071   4.186  12.818  0.00  0.00    +0.000 A 
ATOM     10  C   UNL     1       7.465   4.597  14.097  0.00  0.00    +0.000 A 
ATOM     11  C   UNL     1       6.610   4.480  15.204  0.00  0.00    +0.000 A 
ATOM     12  C   UNL     1       5.347   3.928  14.980  0.00  0.00    +0.000 A 
ATOM     13  C   UNL     1       4.948   3.508  13.703  0.00  0.00    +0.000 A 
BRANCH   8  15
ATOM     14  C   UNL     1       5.964   1.674  11.083  0.00  0.00    +0.000 C 
ATOM     15  C   UNL     1       5.443   3.106  11.226  0.00  0.00    +0.000 C 
ATOM     16  C   UNL     1       3.948   3.167  10.895  0.00  0.00    +0.000 C 
ENDBRANCH   8  15
ENDBRANCH   1  11
BRANCH   5  17
ATOM     17  C   UNL     1       3.723   4.196  19.695  0.00  0.00    +0.000 A 
ATOM     18  C   UNL     1       3.744   3.224  20.714  0.00  0.00    +0.000 A 
ATOM     19  C   UNL     1       2.564   2.770  21.298  0.00  0.00    +0.000 A 
ATOM     20  C   UNL     1       1.379   3.296  20.837  0.00  0.00    +0.000 A 
ATOM     21  N   UNL     1       1.302   4.201  19.836  0.00  0.00    +0.000 NA
ATOM     22  C   UNL     1       2.461   4.648  19.271  0.00  0.00    +0.000 A 
BRANCH  22  23
ATOM     23  C   UNL     1       2.245   5.652  18.154  0.00  0.00    +0.000 C 
BRANCH  23  24
ATOM     24  C   UNL     1       2.907   7.012  18.428  0.00  0.00    +0.000 C 
BRANCH  24  25
ATOM     25  C   UNL     1       1.984   8.130  18.869  0.00  0.00    +0.000 A 
ATOM     26  C   UNL     1       1.628   8.228  20.223  0.00  0.00    +0.000 A 
ATOM     27  C   UNL     1       0.852   9.302  20.643  0.00  0.00    +0.000 A 
ATOM     28  N   UNL     1       0.410  10.273  19.820  0.00  0.00    +0.000 NA
ATOM     29  C   UNL     1       0.761  10.166  18.522  0.00  0.00    +0.000 A 
ATOM     30  C   UNL     1       1.536   9.133  18.007  0.00  0.00    +0.000 A 
ENDBRANCH  24  25
ENDBRANCH  23  24
ENDBRANCH  22  23
ENDBRANCH   5  17
TORSDOF 6
ENDMDL
MODEL 7
REMARK VINA RESULT:      -8.7      4.127      6.694
REMARK  Name = 
REMARK  8 active torsions:
REMARK  status: ('A' for Active; 'I' for Inactive)
REMARK    1  A    between atoms: C_1  and  C_2
REMARK    2  A    between atoms: C_2  and  C_3
REMARK    3  A    between atoms: C_2  and  C_4
REMARK    4  A    between atoms: C_7  and  N_8
REMARK    5  A    between atoms: C_12  and  C_13
REMARK    6  A    between atoms: C_18  and  C_19
REMARK    7  A    between atoms: C_19  and  C_20
REMARK    8  A    between atoms: C_20  and  C_21
REMARK                            x       y       z     vdW  Elec       q    Type
REMARK                         _______ _______ _______ _____ _____    ______ ____
ROOT
ATOM      1  N   UNL     1       3.076   7.809  17.582  0.00  0.00    +0.000 N 
ATOM      2  C   UNL     1       2.315   8.793  18.093  0.00  0.00    +0.000 A 
ATOM      3  N   UNL     1       1.970   9.922  17.509  0.00  0.00    +0.000 NA
ATOM      4  N   UNL     1       1.163  10.602  18.395  0.00  0.00    +0.000 NA
ATOM      5  C   UNL     1       1.058   9.842  19.465  0.00  0.00    +0.000 A 
ATOM      6  O   UNL     1       1.769   8.676  19.339  0.00  0.00    +0.000 OA
ATOM      7  H   UNL     1       3.386   7.971  16.632  0.00  0.00    +0.000 HD
ENDROOT
BRANCH   1  11
ATOM      8  C   UNL     1       3.765   3.892  19.098  0.00  0.00    +0.000 A 
ATOM      9  C   UNL     1       2.483   4.344  18.763  0.00  0.00    +0.000 A 
ATOM     10  C   UNL     1       2.289   5.633  18.252  0.00  0.00    +0.000 A 
ATOM     11  C   UNL     1       3.361   6.520  18.065  0.00  0.00    +0.000 A 
ATOM     12  C   UNL     1       4.636   6.061  18.403  0.00  0.00    +0.000 A 
ATOM     13  C   UNL     1       4.838   4.769  18.909  0.00  0.00    +0.000 A 
BRANCH   8  15
ATOM     14  C   UNL     1       3.252   2.261  20.902  0.00  0.00    +0.000 C 
ATOM     15  C   UNL     1       3.953   2.457  19.555  0.00  0.00    +0.000 C 
ATOM     16  C   UNL     1       3.479   1.404  18.547  0.00  0.00    +0.000 C 
ENDBRANCH   8  15
ENDBRANCH   1  11
BRANCH   5  17
ATOM     17  C   UNL     1       0.336  10.042  20.717  0.00  0.00    +0.000 A 
ATOM     18  C   UNL     1       0.612   9.205  21.816  0.00  0.00    +0.000 A 
ATOM     19  C   UNL     1      -0.011   9.405  23.045  0.00  0.00    +0.000 A 
ATOM     20  C   UNL     1      -0.914  10.439  23.144  0.00  0.00    +0.000 A 
ATOM     21  N   UNL     1      -1.243  11.245  22.111  0.00  0.00    +0.000 NA
ATOM     22  C   UNL     1      -0.625  11.050  20.909  0.00  0.00    +0.000 A 
BRANCH  22  23
ATOM     23  C   UNL     1      -1.084  12.009  19.827  0.00  0.00    +0.000 C 
BRANCH  23  24
ATOM     24  C   UNL     1      -2.581  11.878  19.499  0.00  0.00    +0.000 C 
BRANCH  24  25
ATOM     25  C   UNL     1      -2.922  11.257  18.159  0.00  0.00    +0.000 A 
ATOM     26  C   UNL     1      -4.077  11.681  17.484  0.00  0.00    +0.000 A 
ATOM     27  C   UNL     1      -4.343  11.176  16.217  0.00  0.00    +0.000 A 
ATOM     28  N   UNL     1      -3.553  10.287  15.583  0.00  0.00    +0.000 NA
ATOM     29  C   UNL     1      -2.447   9.890  16.245  0.00  0.00    +0.000 A 
ATOM     30  C   UNL     1      -2.092  10.340  17.511  0.00  0.00    +0.000 A 
ENDBRANCH  24  25
ENDBRANCH  23  24
ENDBRANCH  22  23
ENDBRANCH   5  17
TORSDOF 6
ENDMDL
MODEL 8
REMARK VINA RESULT:      -8.7      0.722      1.327
REMARK  Name = 
REMARK  8 active torsions:
REMARK  status: ('A' for Active; 'I' for Inactive)
REMARK    1  A    between atoms: C_1  and  C_2
REMARK    2  A    between atoms: C_2  and  C_3
REMARK    3  A    between atoms: C_2  and  C_4
REMARK    4  A    between atoms: C_7  and  N_8
REMARK    5  A    between atoms: C_12  and  C_13
REMARK    6  A    between atoms: C_18  and  C_19
REMARK    7  A    between atoms: C_19  and  C_20
REMARK    8  A    between atoms: C_20  and  C_21
REMARK                            x       y       z     vdW  Elec       q    Type
REMARK                         _______ _______ _______ _____ _____    ______ ____
ROOT
ATOM      1  N   UNL     1       7.093   5.037  16.473  0.00  0.00    +0.000 N 
ATOM      2  C   UNL     1       6.504   5.114  17.679  0.00  0.00    +0.000 A 
ATOM      3  N   UNL     1       6.956   5.729  18.753  0.00  0.00    +0.000 NA
ATOM      4  N   UNL     1       6.005   5.568  19.737  0.00  0.00    +0.000 NA
ATOM      5  C   UNL     1       5.025   4.870  19.202  0.00  0.00    +0.000 A 
ATOM      6  O   UNL     1       5.280   4.547  17.894  0.00  0.00    +0.000 OA
ATOM      7  H   UNL     1       7.972   5.536  16.405  0.00  0.00    +0.000 HD
ENDROOT
BRANCH   1  11
ATOM      8  C   UNL     1       5.774   3.656  12.670  0.00  0.00    +0.000 A 
ATOM      9  C   UNL     1       7.032   4.241  12.852  0.00  0.00    +0.000 A 
ATOM     10  C   UNL     1       7.445   4.673  14.118  0.00  0.00    +0.000 A 
ATOM     11  C   UNL     1       6.618   4.545  15.245  0.00  0.00    +0.000 A 
ATOM     12  C   UNL     1       5.363   3.961  15.054  0.00  0.00    +0.000 A 
ATOM     13  C   UNL     1       4.947   3.520  13.790  0.00  0.00    +0.000 A 
BRANCH   8  15
ATOM     14  C   UNL     1       5.860   1.654  11.201  0.00  0.00    +0.000 C 
ATOM     15  C   UNL     1       5.396   3.109  11.306  0.00  0.00    +0.000 C 
ATOM     16  C   UNL     1       3.905   3.221  10.968  0.00  0.00    +0.000 C 
ENDBRANCH   8  15
ENDBRANCH   1  11
BRANCH   5  17
ATOM     17  C   UNL     1       3.763   4.401  19.763  0.00  0.00    +0.000 A 
ATOM     18  C   UNL     1       3.637   3.054  20.152  0.00  0.00    +0.000 A 
ATOM     19  C   UNL     1       2.470   2.584  20.748  0.00  0.00    +0.000 A 
ATOM     20  C   UNL     1       1.441   3.480  20.934  0.00  0.00    +0.000 A 
ATOM     21  N   UNL     1       1.497   4.772  20.544  0.00  0.00    +0.000 NA
ATOM     22  C   UNL     1       2.645   5.230  19.965  0.00  0.00    +0.000 A 
BRANCH  22  23
ATOM     23  C   UNL     1       2.582   6.692  19.563  0.00  0.00    +0.000 C 
BRANCH  23  24
ATOM     24  C   UNL     1       1.859   7.572  20.596  0.00  0.00    +0.000 C 
BRANCH  24  25
ATOM     25  C   UNL     1       1.143   8.792  20.053  0.00  0.00    +0.000 A 
ATOM     26  C   UNL     1       1.406   9.212  18.740  0.00  0.00    +0.000 A 
ATOM     27  C   UNL     1       0.687  10.278  18.213  0.00  0.00    +0.000 A 
ATOM     28  N   UNL     1      -0.263  10.949  18.893  0.00  0.00    +0.000 NA
ATOM     29  C   UNL     1      -0.505  10.535  20.153  0.00  0.00    +0.000 A 
ATOM     30  C   UNL     1       0.157   9.477  20.767  0.00  0.00    +0.000 A 
ENDBRANCH  24  25
ENDBRANCH  23  24
ENDBRANCH  22  23
ENDBRANCH   5  17
TORSDOF 6
ENDMDL
MODEL 9
REMARK VINA RESULT:      -8.6      2.499      8.654
REMARK  Name = 
REMARK  8 active torsions:
REMARK  status: ('A' for Active; 'I' for Inactive)
REMARK    1  A    between atoms: C_1  and  C_2
REMARK    2  A    between atoms: C_2  and  C_3
REMARK    3  A    between atoms: C_2  and  C_4
REMARK    4  A    between atoms: C_7  and  N_8
REMARK    5  A    between atoms: C_12  and  C_13
REMARK    6  A    between atoms: C_18  and  C_19
REMARK    7  A    between atoms: C_19  and  C_20
REMARK    8  A    between atoms: C_20  and  C_21
REMARK                            x       y       z     vdW  Elec       q    Type
REMARK                         _______ _______ _______ _____ _____    ______ ____
ROOT
ATOM      1  N   UNL     1       1.746   9.764  18.267  0.00  0.00    +0.000 N 
ATOM      2  C   UNL     1       2.285   8.537  18.156  0.00  0.00    +0.000 A 
ATOM      3  N   UNL     1       3.231   8.150  17.326  0.00  0.00    +0.000 NA
ATOM      4  N   UNL     1       3.483   6.822  17.595  0.00  0.00    +0.000 NA
ATOM      5  C   UNL     1       2.678   6.480  18.579  0.00  0.00    +0.000 A 
ATOM      6  O   UNL     1       1.887   7.525  18.983  0.00  0.00    +0.000 OA
ATOM      7  H   UNL     1       2.150  10.454  17.644  0.00  0.00    +0.000 HD
ENDROOT
BRANCH   1  11
ATOM      8  C   UNL     1      -0.963  11.529  21.034  0.00  0.00    +0.000 A 
ATOM      9  C   UNL     1      -0.936  11.897  19.684  0.00  0.00    +0.000 A 
ATOM     10  C   UNL     1      -0.043  11.288  18.794  0.00  0.00    +0.000 A 
ATOM     11  C   UNL     1       0.859  10.299  19.216  0.00  0.00    +0.000 A 
ATOM     12  C   UNL     1       0.825   9.938  20.566  0.00  0.00    +0.000 A 
ATOM     13  C   UNL     1      -0.071  10.539  21.461  0.00  0.00    +0.000 A 
BRANCH   8  15
ATOM     14  C   UNL     1      -1.308  12.878  23.092  0.00  0.00    +0.000 C 
ATOM     15  C   UNL     1      -2.009  12.136  21.951  0.00  0.00    +0.000 C 
ATOM     16  C   UNL     1      -3.009  13.060  21.247  0.00  0.00    +0.000 C 
ENDBRANCH   8  15
ENDBRANCH   1  11
BRANCH   5  17
ATOM     17  C   UNL     1       2.500   5.211  19.276  0.00  0.00    +0.000 A 
ATOM     18  C   UNL     1       2.189   5.214  20.650  0.00  0.00    +0.000 A 
ATOM     19  C   UNL     1       1.951   4.026  21.335  0.00  0.00    +0.000 A 
ATOM     20  C   UNL     1       2.042   2.849  20.626  0.00  0.00    +0.000 A 
ATOM     21  N   UNL     1       2.375   2.789  19.318  0.00  0.00    +0.000 NA
ATOM     22  C   UNL     1       2.601   3.957  18.648  0.00  0.00    +0.000 A 
BRANCH  22  23
ATOM     23  C   UNL     1       2.977   3.759  17.192  0.00  0.00    +0.000 C 
BRANCH  23  24
ATOM     24  C   UNL     1       4.335   3.063  17.007  0.00  0.00    +0.000 C 
BRANCH  24  25
ATOM     25  C   UNL     1       5.480   3.940  16.542  0.00  0.00    +0.000 A 
ATOM     26  C   UNL     1       5.745   4.047  15.168  0.00  0.00    +0.000 A 
ATOM     27  C   UNL     1       6.739   4.918  14.736  0.00  0.00    +0.000 A 
ATOM     28  N   UNL     1       7.480   5.678  15.565  0.00  0.00    +0.000 NA
ATOM     29  C   UNL     1       7.214   5.565  16.882  0.00  0.00    +0.000 A 
ATOM     30  C   UNL     1       6.238   4.727  17.411  0.00  0.00    +0.000 A 
ENDBRANCH  24  25
ENDBRANCH  23  24
ENDBRANCH  22  23
ENDBRANCH   5  17
TORSDOF 6
ENDMDL
