MODEL 1
REMARK VINA RESULT:      -7.1      0.000      0.000
REMARK  Name = 
REMARK  5 active torsions:
REMARK  status: ('A' for Active; 'I' for Inactive)
REMARK    1  A    between atoms: C_2  and  O_3
REMARK    2  A    between atoms: C_2  and  C_4
REMARK    3  A    between atoms: C_10  and  N_11
REMARK    4  A    between atoms: N_11  and  C_12
REMARK    5  A    between atoms: C_12  and  C_13
REMARK                            x       y       z     vdW  Elec       q    Type
REMARK                         _______ _______ _______ _____ _____    ______ ____
ROOT
ATOM      1  C   UNL     1       3.445   3.795  18.441  0.00  0.00    +0.000 A 
ATOM      2  C   UNL     1       2.144   4.321  18.336  0.00  0.00    +0.000 A 
ATOM      3  C   UNL     1       1.941   5.689  18.173  0.00  0.00    +0.000 A 
ATOM      4  C   UNL     1       3.042   6.530  18.081  0.00  0.00    +0.000 A 
ATOM      5 CL   UNL     1       2.807   8.221  17.859  0.00  0.00    +0.000 Cl
ATOM      6  C   UNL     1       4.339   6.020  18.179  0.00  0.00    +0.000 A 
ATOM      7  C   UNL     1       4.575   4.649  18.386  0.00  0.00    +0.000 A 
ENDROOT
BRANCH   1   9
ATOM      8  O   UNL     1       4.306   1.801  19.427  0.00  0.00    +0.000 OA
ATOM      9  C   UNL     1       3.535   2.318  18.636  0.00  0.00    +0.000 C 
BRANCH   9  10
ATOM     10  O   UNL     1       2.733   1.605  17.817  0.00  0.00    +0.000 OA
ATOM     11  H   UNL     1       2.419   0.771  18.243  0.00  0.00    +0.000 HD
ENDBRANCH   9  10
ENDBRANCH   1   9
BRANCH   7  12
ATOM     12  N   UNL     1       5.880   4.116  18.537  0.00  0.00    +0.000 N 
ATOM     13  H   UNL     1       5.854   3.096  18.407  0.00  0.00    +0.000 HD
BRANCH  12  14
ATOM     14  C   UNL     1       6.957   4.662  17.691  0.00  0.00    +0.000 C 
BRANCH  14  15
ATOM     15  C   UNL     1       6.730   4.514  16.226  0.00  0.00    +0.000 A 
ATOM     16  C   UNL     1       5.915   3.683  15.485  0.00  0.00    +0.000 A 
ATOM     17  C   UNL     1       6.200   3.954  14.126  0.00  0.00    +0.000 A 
ATOM     18  C   UNL     1       7.156   4.943  14.125  0.00  0.00    +0.000 A 
ATOM     19  O   UNL     1       7.486   5.291  15.397  0.00  0.00    +0.000 OA
ENDBRANCH  14  15
ENDBRANCH  12  14
ENDBRANCH   7  12
TORSDOF 5
ENDMDL
MODEL 2
REMARK VINA RESULT:      -7.0      2.758      5.281
REMARK  Name = 
REMARK  5 active torsions:
REMARK  status: ('A' for Active; 'I' for Inactive)
REMARK    1  A    between atoms: C_2  and  O_3
REMARK    2  A    between atoms: C_2  and  C_4
REMARK    3  A    between atoms: C_10  and  N_11
REMARK    4  A    between atoms: N_11  and  C_12
REMARK    5  A    between atoms: C_12  and  C_13
REMARK                            x       y       z     vdW  Elec       q    Type
REMARK                         _______ _______ _______ _____ _____    ______ ____
ROOT
ATOM      1  C   UNL     1       4.517   5.314  17.573  0.00  0.00    +0.000 A 
ATOM      2  C   UNL     1       4.711   6.317  16.605  0.00  0.00    +0.000 A 
ATOM      3  C   UNL     1       5.343   6.029  15.399  0.00  0.00    +0.000 A 
ATOM      4  C   UNL     1       5.755   4.728  15.145  0.00  0.00    +0.000 A 
ATOM      5 CL   UNL     1       6.521   4.353  13.649  0.00  0.00    +0.000 Cl
ATOM      6  C   UNL     1       5.566   3.722  16.095  0.00  0.00    +0.000 A 
ATOM      7  C   UNL     1       4.968   3.990  17.339  0.00  0.00    +0.000 A 
ENDROOT
BRANCH   1   9
ATOM      8  O   UNL     1       2.792   6.356  18.848  0.00  0.00    +0.000 OA
ATOM      9  C   UNL     1       3.849   5.747  18.834  0.00  0.00    +0.000 C 
BRANCH   9  10
ATOM     10  O   UNL     1       4.547   5.458  19.954  0.00  0.00    +0.000 OA
ATOM     11  H   UNL     1       5.413   5.932  19.980  0.00  0.00    +0.000 HD
ENDBRANCH   9  10
ENDBRANCH   1   9
BRANCH   7  12
ATOM     12  N   UNL     1       4.809   2.996  18.337  0.00  0.00    +0.000 N 
ATOM     13  H   UNL     1       4.935   3.416  19.267  0.00  0.00    +0.000 HD
BRANCH  12  14
ATOM     14  C   UNL     1       3.558   2.216  18.349  0.00  0.00    +0.000 C 
BRANCH  14  15
ATOM     15  C   UNL     1       2.645   2.526  19.485  0.00  0.00    +0.000 A 
ATOM     16  C   UNL     1       1.276   2.684  19.569  0.00  0.00    +0.000 A 
ATOM     17  C   UNL     1       0.999   3.054  20.905  0.00  0.00    +0.000 A 
ATOM     18  C   UNL     1       2.211   3.081  21.554  0.00  0.00    +0.000 A 
ATOM     19  O   UNL     1       3.219   2.762  20.700  0.00  0.00    +0.000 OA
ENDBRANCH  14  15
ENDBRANCH  12  14
ENDBRANCH   7  12
TORSDOF 5
ENDMDL
MODEL 3
REMARK VINA RESULT:      -6.9      1.935      4.978
REMARK  Name = 
REMARK  5 active torsions:
REMARK  status: ('A' for Active; 'I' for Inactive)
REMARK    1  A    between atoms: C_2  and  O_3
REMARK    2  A    between atoms: C_2  and  C_4
REMARK    3  A    between atoms: C_10  and  N_11
REMARK    4  A    between atoms: N_11  and  C_12
REMARK    5  A    between atoms: C_12  and  C_13
REMARK                            x       y       z     vdW  Elec       q    Type
REMARK                         _______ _______ _______ _____ _____    ______ ____
ROOT
ATOM      1  C   UNL     1       6.047   5.440  17.653  0.00  0.00    +0.000 A 
ATOM      2  C   UNL     1       5.809   6.513  16.774  0.00  0.00    +0.000 A 
ATOM      3  C   UNL     1       4.616   7.228  16.833  0.00  0.00    +0.000 A 
ATOM      4  C   UNL     1       3.672   6.892  17.793  0.00  0.00    +0.000 A 
ATOM      5 CL   UNL     1       2.201   7.781  17.891  0.00  0.00    +0.000 Cl
ATOM      6  C   UNL     1       3.898   5.832  18.675  0.00  0.00    +0.000 A 
ATOM      7  C   UNL     1       5.074   5.064  18.613  0.00  0.00    +0.000 A 
ENDROOT
BRANCH   1   9
ATOM      8  O   UNL     1       7.752   4.342  16.397  0.00  0.00    +0.000 OA
ATOM      9  C   UNL     1       7.351   4.734  17.480  0.00  0.00    +0.000 C 
BRANCH   9  10
ATOM     10  O   UNL     1       8.015   4.517  18.635  0.00  0.00    +0.000 OA
ATOM     11  H   UNL     1       7.924   3.582  18.942  0.00  0.00    +0.000 HD
ENDBRANCH   9  10
ENDBRANCH   1   9
BRANCH   7  12
ATOM     12  N   UNL     1       5.304   3.954  19.464  0.00  0.00    +0.000 N 
ATOM     13  H   UNL     1       5.244   4.253  20.446  0.00  0.00    +0.000 HD
BRANCH  12  14
ATOM     14  C   UNL     1       4.457   2.759  19.294  0.00  0.00    +0.000 C 
BRANCH  14  15
ATOM     15  C   UNL     1       3.129   2.839  19.965  0.00  0.00    +0.000 A 
ATOM     16  C   UNL     1       2.746   2.780  21.289  0.00  0.00    +0.000 A 
ATOM     17  C   UNL     1       1.332   2.830  21.297  0.00  0.00    +0.000 A 
ATOM     18  C   UNL     1       0.945   2.932  19.981  0.00  0.00    +0.000 A 
ATOM     19  O   UNL     1       2.030   2.939  19.162  0.00  0.00    +0.000 OA
ENDBRANCH  14  15
ENDBRANCH  12  14
ENDBRANCH   7  12
TORSDOF 5
ENDMDL
MODEL 4
REMARK VINA RESULT:      -6.9      2.673      5.513
REMARK  Name = 
REMARK  5 active torsions:
REMARK  status: ('A' for Active; 'I' for Inactive)
REMARK    1  A    between atoms: C_2  and  O_3
REMARK    2  A    between atoms: C_2  and  C_4
REMARK    3  A    between atoms: C_10  and  N_11
REMARK    4  A    between atoms: N_11  and  C_12
REMARK    5  A    between atoms: C_12  and  C_13
REMARK                            x       y       z     vdW  Elec       q    Type
REMARK                         _______ _______ _______ _____ _____    ______ ____
ROOT
ATOM      1  C   UNL     1       6.956   5.323  17.952  0.00  0.00    +0.000 A 
ATOM      2  C   UNL     1       7.423   5.877  16.745  0.00  0.00    +0.000 A 
ATOM      3  C   UNL     1       6.887   5.476  15.525  0.00  0.00    +0.000 A 
ATOM      4  C   UNL     1       5.859   4.544  15.511  0.00  0.00    +0.000 A 
ATOM      5 CL   UNL     1       5.172   4.054  14.009  0.00  0.00    +0.000 Cl
ATOM      6  C   UNL     1       5.383   3.989  16.701  0.00  0.00    +0.000 A 
ATOM      7  C   UNL     1       5.932   4.342  17.947  0.00  0.00    +0.000 A 
ENDROOT
BRANCH   1   9
ATOM      8  O   UNL     1       7.468   5.283  20.281  0.00  0.00    +0.000 OA
ATOM      9  C   UNL     1       7.623   5.813  19.194  0.00  0.00    +0.000 C 
BRANCH   9  10
ATOM     10  O   UNL     1       8.362   6.929  19.017  0.00  0.00    +0.000 OA
ATOM     11  H   UNL     1       8.608   7.062  18.069  0.00  0.00    +0.000 HD
ENDBRANCH   9  10
ENDBRANCH   1   9
BRANCH   7  12
ATOM     12  N   UNL     1       5.498   3.757  19.163  0.00  0.00    +0.000 N 
ATOM     13  H   UNL     1       5.320   4.495  19.857  0.00  0.00    +0.000 HD
BRANCH  12  14
ATOM     14  C   UNL     1       4.326   2.864  19.127  0.00  0.00    +0.000 C 
BRANCH  14  15
ATOM     15  C   UNL     1       3.106   3.415  19.781  0.00  0.00    +0.000 A 
ATOM     16  C   UNL     1       1.872   2.868  20.069  0.00  0.00    +0.000 A 
ATOM     17  C   UNL     1       1.094   3.911  20.623  0.00  0.00    +0.000 A 
ATOM     18  C   UNL     1       1.907   5.020  20.654  0.00  0.00    +0.000 A 
ATOM     19  O   UNL     1       3.133   4.729  20.144  0.00  0.00    +0.000 OA
ENDBRANCH  14  15
ENDBRANCH  12  14
ENDBRANCH   7  12
TORSDOF 5
ENDMDL
MODEL 5
REMARK VINA RESULT:      -6.9      1.747      4.965
REMARK  Name = 
REMARK  5 active torsions:
REMARK  status: ('A' for Active; 'I' for Inactive)
REMARK    1  A    between atoms: C_2  and  O_3
REMARK    2  A    between atoms: C_2  and  C_4
REMARK    3  A    between atoms: C_10  and  N_11
REMARK    4  A    between atoms: N_11  and  C_12
REMARK    5  A    between atoms: C_12  and  C_13
REMARK                            x       y       z     vdW  Elec       q    Type
REMARK                         _______ _______ _______ _____ _____    ______ ____
ROOT
ATOM      1  C   UNL     1       5.863   5.274  17.216  0.00  0.00    +0.000 A 
ATOM      2  C   UNL     1       5.763   6.622  16.825  0.00  0.00    +0.000 A 
ATOM      3  C   UNL     1       4.610   7.355  17.089  0.00  0.00    +0.000 A 
ATOM      4  C   UNL     1       3.566   6.750  17.776  0.00  0.00    +0.000 A 
ATOM      5 CL   UNL     1       2.141   7.651  18.128  0.00  0.00    +0.000 Cl
ATOM      6  C   UNL     1       3.654   5.414  18.174  0.00  0.00    +0.000 A 
ATOM      7  C   UNL     1       4.789   4.635  17.885  0.00  0.00    +0.000 A 
ENDROOT
BRANCH   1   9
ATOM      8  O   UNL     1       7.543   4.498  15.711  0.00  0.00    +0.000 OA
ATOM      9  C   UNL     1       7.138   4.586  16.858  0.00  0.00    +0.000 C 
BRANCH   9  10
ATOM     10  O   UNL     1       7.769   4.017  17.907  0.00  0.00    +0.000 OA
ATOM     11  H   UNL     1       7.668   4.552  18.732  0.00  0.00    +0.000 HD
ENDBRANCH   9  10
ENDBRANCH   1   9
BRANCH   7  12
ATOM     12  N   UNL     1       4.881   3.265  18.235  0.00  0.00    +0.000 N 
ATOM     13  H   UNL     1       5.298   3.175  19.171  0.00  0.00    +0.000 HD
BRANCH  12  14
ATOM     14  C   UNL     1       3.651   2.453  18.199  0.00  0.00    +0.000 C 
BRANCH  14  15
ATOM     15  C   UNL     1       2.805   2.553  19.421  0.00  0.00    +0.000 A 
ATOM     16  C   UNL     1       1.441   2.651  19.609  0.00  0.00    +0.000 A 
ATOM     17  C   UNL     1       1.240   2.800  21.001  0.00  0.00    +0.000 A 
ATOM     18  C   UNL     1       2.490   2.766  21.574  0.00  0.00    +0.000 A 
ATOM     19  O   UNL     1       3.449   2.616  20.622  0.00  0.00    +0.000 OA
ENDBRANCH  14  15
ENDBRANCH  12  14
ENDBRANCH   7  12
TORSDOF 5
ENDMDL
MODEL 6
REMARK VINA RESULT:      -6.8      1.394      2.236
REMARK  Name = 
REMARK  5 active torsions:
REMARK  status: ('A' for Active; 'I' for Inactive)
REMARK    1  A    between atoms: C_2  and  O_3
REMARK    2  A    between atoms: C_2  and  C_4
REMARK    3  A    between atoms: C_10  and  N_11
REMARK    4  A    between atoms: N_11  and  C_12
REMARK    5  A    between atoms: C_12  and  C_13
REMARK                            x       y       z     vdW  Elec       q    Type
REMARK                         _______ _______ _______ _____ _____    ______ ____
ROOT
ATOM      1  C   UNL     1       3.958   3.744  18.906  0.00  0.00    +0.000 A 
ATOM      2  C   UNL     1       3.188   4.479  19.827  0.00  0.00    +0.000 A 
ATOM      3  C   UNL     1       2.778   5.777  19.535  0.00  0.00    +0.000 A 
ATOM      4  C   UNL     1       3.110   6.331  18.306  0.00  0.00    +0.000 A 
ATOM      5 CL   UNL     1       2.592   7.928  17.923  0.00  0.00    +0.000 Cl
ATOM      6  C   UNL     1       3.870   5.611  17.381  0.00  0.00    +0.000 A 
ATOM      7  C   UNL     1       4.334   4.314  17.663  0.00  0.00    +0.000 A 
ENDROOT
BRANCH   1   9
ATOM      8  O   UNL     1       4.967   2.158  20.373  0.00  0.00    +0.000 OA
ATOM      9  C   UNL     1       4.357   2.373  19.340  0.00  0.00    +0.000 C 
BRANCH   9  10
ATOM     10  O   UNL     1       4.036   1.403  18.458  0.00  0.00    +0.000 OA
ATOM     11  H   UNL     1       4.698   0.668  18.461  0.00  0.00    +0.000 HD
ENDBRANCH   9  10
ENDBRANCH   1   9
BRANCH   7  12
ATOM     12  N   UNL     1       5.147   3.583  16.761  0.00  0.00    +0.000 N 
ATOM     13  H   UNL     1       4.566   3.203  16.003  0.00  0.00    +0.000 HD
BRANCH  12  14
ATOM     14  C   UNL     1       6.304   4.267  16.157  0.00  0.00    +0.000 C 
BRANCH  14  15
ATOM     15  C   UNL     1       6.967   5.265  17.042  0.00  0.00    +0.000 A 
ATOM     16  C   UNL     1       7.544   5.169  18.292  0.00  0.00    +0.000 A 
ATOM     17  C   UNL     1       7.932   6.480  18.653  0.00  0.00    +0.000 A 
ATOM     18  C   UNL     1       7.583   7.288  17.596  0.00  0.00    +0.000 A 
ATOM     19  O   UNL     1       6.995   6.559  16.611  0.00  0.00    +0.000 OA
ENDBRANCH  14  15
ENDBRANCH  12  14
ENDBRANCH   7  12
TORSDOF 5
ENDMDL
MODEL 7
REMARK VINA RESULT:      -6.8      2.815      5.521
REMARK  Name = 
REMARK  5 active torsions:
REMARK  status: ('A' for Active; 'I' for Inactive)
REMARK    1  A    between atoms: C_2  and  O_3
REMARK    2  A    between atoms: C_2  and  C_4
REMARK    3  A    between atoms: C_10  and  N_11
REMARK    4  A    between atoms: N_11  and  C_12
REMARK    5  A    between atoms: C_12  and  C_13
REMARK                            x       y       z     vdW  Elec       q    Type
REMARK                         _______ _______ _______ _____ _____    ______ ____
ROOT
ATOM      1  C   UNL     1       5.925   4.857  17.715  0.00  0.00    +0.000 A 
ATOM      2  C   UNL     1       7.187   4.937  17.098  0.00  0.00    +0.000 A 
ATOM      3  C   UNL     1       7.342   4.617  15.752  0.00  0.00    +0.000 A 
ATOM      4  C   UNL     1       6.227   4.248  15.011  0.00  0.00    +0.000 A 
ATOM      5 CL   UNL     1       6.401   3.869  13.341  0.00  0.00    +0.000 Cl
ATOM      6  C   UNL     1       4.968   4.168  15.610  0.00  0.00    +0.000 A 
ATOM      7  C   UNL     1       4.786   4.445  16.977  0.00  0.00    +0.000 A 
ENDROOT
BRANCH   1   9
ATOM      8  O   UNL     1       6.792   4.927  19.936  0.00  0.00    +0.000 OA
ATOM      9  C   UNL     1       5.887   5.201  19.166  0.00  0.00    +0.000 C 
BRANCH   9  10
ATOM     10  O   UNL     1       4.737   5.789  19.562  0.00  0.00    +0.000 OA
ATOM     11  H   UNL     1       4.904   6.592  20.113  0.00  0.00    +0.000 HD
ENDBRANCH   9  10
ENDBRANCH   1   9
BRANCH   7  12
ATOM     12  N   UNL     1       3.527   4.324  17.617  0.00  0.00    +0.000 N 
ATOM     13  H   UNL     1       2.796   4.733  17.021  0.00  0.00    +0.000 HD
BRANCH  12  14
ATOM     14  C   UNL     1       3.084   2.981  18.035  0.00  0.00    +0.000 C 
BRANCH  14  15
ATOM     15  C   UNL     1       2.452   2.927  19.382  0.00  0.00    +0.000 A 
ATOM     16  C   UNL     1       1.163   2.662  19.801  0.00  0.00    +0.000 A 
ATOM     17  C   UNL     1       1.155   2.843  21.203  0.00  0.00    +0.000 A 
ATOM     18  C   UNL     1       2.439   3.189  21.552  0.00  0.00    +0.000 A 
ATOM     19  O   UNL     1       3.236   3.244  20.452  0.00  0.00    +0.000 OA
ENDBRANCH  14  15
ENDBRANCH  12  14
ENDBRANCH   7  12
TORSDOF 5
ENDMDL
MODEL 8
REMARK VINA RESULT:      -6.8      1.639      2.558
REMARK  Name = 
REMARK  5 active torsions:
REMARK  status: ('A' for Active; 'I' for Inactive)
REMARK    1  A    between atoms: C_2  and  O_3
REMARK    2  A    between atoms: C_2  and  C_4
REMARK    3  A    between atoms: C_10  and  N_11
REMARK    4  A    between atoms: N_11  and  C_12
REMARK    5  A    between atoms: C_12  and  C_13
REMARK                            x       y       z     vdW  Elec       q    Type
REMARK                         _______ _______ _______ _____ _____    ______ ____
ROOT
ATOM      1  C   UNL     1       3.755   3.412  18.780  0.00  0.00    +0.000 A 
ATOM      2  C   UNL     1       2.391   3.742  18.879  0.00  0.00    +0.000 A 
ATOM      3  C   UNL     1       1.956   5.044  18.651  0.00  0.00    +0.000 A 
ATOM      4  C   UNL     1       2.882   6.013  18.289  0.00  0.00    +0.000 A 
ATOM      5 CL   UNL     1       2.355   7.624  17.984  0.00  0.00    +0.000 Cl
ATOM      6  C   UNL     1       4.239   5.699  18.183  0.00  0.00    +0.000 A 
ATOM      7  C   UNL     1       4.715   4.402  18.448  0.00  0.00    +0.000 A 
ENDROOT
BRANCH   1   9
ATOM      8  O   UNL     1       3.578   1.050  18.497  0.00  0.00    +0.000 OA
ATOM      9  C   UNL     1       4.104   1.990  19.069  0.00  0.00    +0.000 C 
BRANCH   9  10
ATOM     10  O   UNL     1       5.007   1.837  20.061  0.00  0.00    +0.000 OA
ATOM     11  H   UNL     1       5.856   2.300  19.862  0.00  0.00    +0.000 HD
ENDBRANCH   9  10
ENDBRANCH   1   9
BRANCH   7  12
ATOM     12  N   UNL     1       6.092   4.071  18.394  0.00  0.00    +0.000 N 
ATOM     13  H   UNL     1       6.199   3.051  18.321  0.00  0.00    +0.000 HD
BRANCH  12  14
ATOM     14  C   UNL     1       6.917   4.698  17.346  0.00  0.00    +0.000 C 
BRANCH  14  15
ATOM     15  C   UNL     1       7.448   6.044  17.697  0.00  0.00    +0.000 A 
ATOM     16  C   UNL     1       8.103   6.531  18.811  0.00  0.00    +0.000 A 
ATOM     17  C   UNL     1       8.281   7.917  18.595  0.00  0.00    +0.000 A 
ATOM     18  C   UNL     1       7.741   8.184  17.359  0.00  0.00    +0.000 A 
ATOM     19  O   UNL     1       7.231   7.053  16.803  0.00  0.00    +0.000 OA
ENDBRANCH  14  15
ENDBRANCH  12  14
ENDBRANCH   7  12
TORSDOF 5
ENDMDL
MODEL 9
REMARK VINA RESULT:      -6.8      0.901      1.167
REMARK  Name = 
REMARK  5 active torsions:
REMARK  status: ('A' for Active; 'I' for Inactive)
REMARK    1  A    between atoms: C_2  and  O_3
REMARK    2  A    between atoms: C_2  and  C_4
REMARK    3  A    between atoms: C_10  and  N_11
REMARK    4  A    between atoms: N_11  and  C_12
REMARK    5  A    between atoms: C_12  and  C_13
REMARK                            x       y       z     vdW  Elec       q    Type
REMARK                         _______ _______ _______ _____ _____    ______ ____
ROOT
ATOM      1  C   UNL     1       3.766   3.803  19.542  0.00  0.00    +0.000 A 
ATOM      2  C   UNL     1       2.529   4.372  19.899  0.00  0.00    +0.000 A 
ATOM      3  C   UNL     1       2.205   5.669  19.509  0.00  0.00    +0.000 A 
ATOM      4  C   UNL     1       3.103   6.388  18.733  0.00  0.00    +0.000 A 
ATOM      5 CL   UNL     1       2.706   7.985  18.227  0.00  0.00    +0.000 Cl
ATOM      6  C   UNL     1       4.333   5.833  18.368  0.00  0.00    +0.000 A 
ATOM      7  C   UNL     1       4.707   4.542  18.780  0.00  0.00    +0.000 A 
ENDROOT
BRANCH   1   9
ATOM      8  O   UNL     1       4.322   1.497  19.298  0.00  0.00    +0.000 OA
ATOM      9  C   UNL     1       4.011   2.417  20.035  0.00  0.00    +0.000 C 
BRANCH   9  10
ATOM     10  O   UNL     1       3.798   2.259  21.360  0.00  0.00    +0.000 OA
ATOM     11  H   UNL     1       3.955   3.097  21.860  0.00  0.00    +0.000 HD
ENDBRANCH   9  10
ENDBRANCH   1   9
BRANCH   7  12
ATOM     12  N   UNL     1       5.968   3.977  18.463  0.00  0.00    +0.000 N 
ATOM     13  H   UNL     1       5.834   3.059  18.021  0.00  0.00    +0.000 HD
BRANCH  12  14
ATOM     14  C   UNL     1       6.891   4.763  17.623  0.00  0.00    +0.000 C 
BRANCH  14  15
ATOM     15  C   UNL     1       6.713   4.569  16.157  0.00  0.00    +0.000 A 
ATOM     16  C   UNL     1       5.938   3.701  15.415  0.00  0.00    +0.000 A 
ATOM     17  C   UNL     1       6.259   3.939  14.059  0.00  0.00    +0.000 A 
ATOM     18  C   UNL     1       7.194   4.947  14.058  0.00  0.00    +0.000 A 
ATOM     19  O   UNL     1       7.478   5.338  15.329  0.00  0.00    +0.000 OA
ENDBRANCH  14  15
ENDBRANCH  12  14
ENDBRANCH   7  12
TORSDOF 5
ENDMDL
