MODEL 1
REMARK VINA RESULT:      -8.1      0.000      0.000
REMARK  Name = 
REMARK  5 active torsions:
REMARK  status: ('A' for Active; 'I' for Inactive)
REMARK    1  A    between atoms: C_1  and  N_2
REMARK    2  A    between atoms: C_8  and  N_9
REMARK    3  A    between atoms: C_10  and  C_12
REMARK    4  A    between atoms: C_13  and  O_14
REMARK    5  A    between atoms: C_22  and  O_23
REMARK                            x       y       z     vdW  Elec       q    Type
REMARK                         _______ _______ _______ _____ _____    ______ ____
ROOT
ATOM      1  C   UNL     1       6.486   4.792  16.700  0.00  0.00    +0.000 A 
ATOM      2  C   UNL     1       7.304   5.801  16.245  0.00  0.00    +0.000 A 
ATOM      3  N   UNL     1       7.690   5.952  14.961  0.00  0.00    +0.000 NA
ATOM      4  C   UNL     1       7.248   5.087  14.052  0.00  0.00    +0.000 A 
ATOM      5  C   UNL     1       7.706   5.261  12.757  0.00  0.00    +0.000 A 
ATOM      6  C   UNL     1       7.354   4.394  11.724  0.00  0.00    +0.000 A 
ATOM      7  C   UNL     1       6.512   3.332  11.991  0.00  0.00    +0.000 A 
ATOM      8  C   UNL     1       6.034   3.132  13.289  0.00  0.00    +0.000 A 
ATOM      9  C   UNL     1       6.404   3.997  14.356  0.00  0.00    +0.000 A 
ATOM     10  C   UNL     1       6.017   3.880  15.735  0.00  0.00    +0.000 A 
ENDROOT
BRANCH   1  12
ATOM     11  N   UNL     1       4.865   4.834  18.480  0.00  0.00    +0.000 N 
ATOM     12  C   UNL     1       6.176   4.745  18.169  0.00  0.00    +0.000 C 
ATOM     13  O   UNL     1       7.064   4.613  19.009  0.00  0.00    +0.000 OA
ATOM     14  H   UNL     1       4.292   4.757  17.657  0.00  0.00    +0.000 HD
BRANCH  11  22
ATOM     15  C   UNL     1       0.744   1.987  19.410  0.00  0.00    +0.000 C 
ATOM     16  N   UNL     1       1.740   3.023  19.577  0.00  0.00    +0.000 NA
ATOM     17  C   UNL     1       2.793   2.775  18.597  0.00  0.00    +0.000 C 
ATOM     18  C   UNL     1       2.255   3.650  17.419  0.00  0.00    +0.000 C 
ATOM     19  C   UNL     1       1.545   4.852  18.021  0.00  0.00    +0.000 C 
ATOM     20  C   UNL     1       1.552   4.493  19.494  0.00  0.00    +0.000 C 
ATOM     21  C   UNL     1       2.832   5.232  20.062  0.00  0.00    +0.000 C 
ATOM     22  C   UNL     1       4.181   4.528  19.727  0.00  0.00    +0.000 C 
ATOM     23  C   UNL     1       3.941   3.043  19.590  0.00  0.00    +0.000 C 
ENDBRANCH  11  22
ENDBRANCH   1  12
BRANCH   2  24
ATOM     24  O   UNL     1       7.832   6.773  17.068  0.00  0.00    +0.000 OA
ATOM     25  H   UNL     1       7.091   7.363  17.344  0.00  0.00    +0.000 HD
ENDBRANCH   2  24
BRANCH  10  26
ATOM     26  O   UNL     1       5.217   2.825  16.122  0.00  0.00    +0.000 OA
ATOM     27  H   UNL     1       4.512   3.129  16.718  0.00  0.00    +0.000 HD
ENDBRANCH  10  26
TORSDOF 4
ENDMDL
MODEL 2
REMARK VINA RESULT:      -8.0      4.541      7.946
REMARK  Name = 
REMARK  5 active torsions:
REMARK  status: ('A' for Active; 'I' for Inactive)
REMARK    1  A    between atoms: C_1  and  N_2
REMARK    2  A    between atoms: C_8  and  N_9
REMARK    3  A    between atoms: C_10  and  C_12
REMARK    4  A    between atoms: C_13  and  O_14
REMARK    5  A    between atoms: C_22  and  O_23
REMARK                            x       y       z     vdW  Elec       q    Type
REMARK                         _______ _______ _______ _____ _____    ______ ____
ROOT
ATOM      1  C   UNL     1       1.756   8.618  19.328  0.00  0.00    +0.000 A 
ATOM      2  C   UNL     1       1.233   9.717  18.685  0.00  0.00    +0.000 A 
ATOM      3  N   UNL     1       0.399  10.611  19.255  0.00  0.00    +0.000 NA
ATOM      4  C   UNL     1       0.058  10.449  20.531  0.00  0.00    +0.000 A 
ATOM      5  C   UNL     1      -0.832  11.370  21.056  0.00  0.00    +0.000 A 
ATOM      6  C   UNL     1      -1.302  11.281  22.366  0.00  0.00    +0.000 A 
ATOM      7  C   UNL     1      -0.861  10.251  23.174  0.00  0.00    +0.000 A 
ATOM      8  C   UNL     1       0.038   9.308  22.670  0.00  0.00    +0.000 A 
ATOM      9  C   UNL     1       0.508   9.374  21.329  0.00  0.00    +0.000 A 
ATOM     10  C   UNL     1       1.396   8.451  20.679  0.00  0.00    +0.000 A 
ENDROOT
BRANCH   1  12
ATOM     11  N   UNL     1       2.819   6.473  19.078  0.00  0.00    +0.000 N 
ATOM     12  C   UNL     1       2.645   7.699  18.541  0.00  0.00    +0.000 C 
ATOM     13  O   UNL     1       3.150   8.049  17.476  0.00  0.00    +0.000 OA
ATOM     14  H   UNL     1       2.188   6.321  19.847  0.00  0.00    +0.000 HD
BRANCH  11  22
ATOM     15  C   UNL     1       0.966   1.727  19.002  0.00  0.00    +0.000 C 
ATOM     16  N   UNL     1       1.930   2.805  18.973  0.00  0.00    +0.000 NA
ATOM     17  C   UNL     1       1.183   4.056  18.899  0.00  0.00    +0.000 C 
ATOM     18  C   UNL     1       1.057   4.370  20.425  0.00  0.00    +0.000 C 
ATOM     19  C   UNL     1       2.313   3.854  21.108  0.00  0.00    +0.000 C 
ATOM     20  C   UNL     1       2.986   3.112  19.971  0.00  0.00    +0.000 C 
ATOM     21  C   UNL     1       4.002   4.168  19.371  0.00  0.00    +0.000 C 
ATOM     22  C   UNL     1       3.340   5.256  18.474  0.00  0.00    +0.000 C 
ATOM     23  C   UNL     1       2.103   4.677  17.829  0.00  0.00    +0.000 C 
ENDBRANCH  11  22
ENDBRANCH   1  12
BRANCH   2  24
ATOM     24  O   UNL     1       1.501  10.019  17.367  0.00  0.00    +0.000 OA
ATOM     25  H   UNL     1       2.400   9.668  17.158  0.00  0.00    +0.000 HD
ENDBRANCH   2  24
BRANCH  10  26
ATOM     26  O   UNL     1       1.858   7.356  21.380  0.00  0.00    +0.000 OA
ATOM     27  H   UNL     1       2.651   6.987  20.956  0.00  0.00    +0.000 HD
ENDBRANCH  10  26
TORSDOF 4
ENDMDL
MODEL 3
REMARK VINA RESULT:      -7.6      4.402      7.838
REMARK  Name = 
REMARK  5 active torsions:
REMARK  status: ('A' for Active; 'I' for Inactive)
REMARK    1  A    between atoms: C_1  and  N_2
REMARK    2  A    between atoms: C_8  and  N_9
REMARK    3  A    between atoms: C_10  and  C_12
REMARK    4  A    between atoms: C_13  and  O_14
REMARK    5  A    between atoms: C_22  and  O_23
REMARK                            x       y       z     vdW  Elec       q    Type
REMARK                         _______ _______ _______ _____ _____    ______ ____
ROOT
ATOM      1  C   UNL     1       1.865   8.428  19.177  0.00  0.00    +0.000 A 
ATOM      2  C   UNL     1       1.488   9.636  18.635  0.00  0.00    +0.000 A 
ATOM      3  N   UNL     1       0.766  10.573  19.285  0.00  0.00    +0.000 NA
ATOM      4  C   UNL     1       0.396  10.341  20.542  0.00  0.00    +0.000 A 
ATOM      5  C   UNL     1      -0.377  11.315  21.149  0.00  0.00    +0.000 A 
ATOM      6  C   UNL     1      -0.867  11.169  22.447  0.00  0.00    +0.000 A 
ATOM      7  C   UNL     1      -0.564  10.024  23.158  0.00  0.00    +0.000 A 
ATOM      8  C   UNL     1       0.216   9.026  22.570  0.00  0.00    +0.000 A 
ATOM      9  C   UNL     1       0.702   9.152  21.239  0.00  0.00    +0.000 A 
ATOM     10  C   UNL     1       1.475   8.188  20.507  0.00  0.00    +0.000 A 
ENDROOT
BRANCH   1  12
ATOM     11  N   UNL     1       2.180   6.210  18.295  0.00  0.00    +0.000 N 
ATOM     12  C   UNL     1       2.641   7.480  18.308  0.00  0.00    +0.000 C 
ATOM     13  O   UNL     1       3.607   7.856  17.648  0.00  0.00    +0.000 OA
ATOM     14  H   UNL     1       1.287   6.145  18.752  0.00  0.00    +0.000 HD
BRANCH  11  22
ATOM     15  C   UNL     1       3.757   1.442  19.149  0.00  0.00    +0.000 C 
ATOM     16  N   UNL     1       3.556   2.699  18.462  0.00  0.00    +0.000 NA
ATOM     17  C   UNL     1       2.625   3.488  19.263  0.00  0.00    +0.000 C 
ATOM     18  C   UNL     1       3.650   4.272  20.145  0.00  0.00    +0.000 C 
ATOM     19  C   UNL     1       4.891   4.519  19.304  0.00  0.00    +0.000 C 
ATOM     20  C   UNL     1       4.580   3.698  18.068  0.00  0.00    +0.000 C 
ATOM     21  C   UNL     1       3.949   4.746  17.062  0.00  0.00    +0.000 C 
ATOM     22  C   UNL     1       2.471   5.123  17.372  0.00  0.00    +0.000 C 
ATOM     23  C   UNL     1       1.796   3.954  18.051  0.00  0.00    +0.000 C 
ENDBRANCH  11  22
ENDBRANCH   1  12
BRANCH   2  24
ATOM     24  O   UNL     1       1.804  10.019  17.349  0.00  0.00    +0.000 OA
ATOM     25  H   UNL     1       0.975  10.345  16.924  0.00  0.00    +0.000 HD
ENDBRANCH   2  24
BRANCH  10  26
ATOM     26  O   UNL     1       1.792   6.986  21.107  0.00  0.00    +0.000 OA
ATOM     27  H   UNL     1       2.478   6.519  20.600  0.00  0.00    +0.000 HD
ENDBRANCH  10  26
TORSDOF 4
ENDMDL
MODEL 4
REMARK VINA RESULT:      -7.2      5.075      8.374
REMARK  Name = 
REMARK  5 active torsions:
REMARK  status: ('A' for Active; 'I' for Inactive)
REMARK    1  A    between atoms: C_1  and  N_2
REMARK    2  A    between atoms: C_8  and  N_9
REMARK    3  A    between atoms: C_10  and  C_12
REMARK    4  A    between atoms: C_13  and  O_14
REMARK    5  A    between atoms: C_22  and  O_23
REMARK                            x       y       z     vdW  Elec       q    Type
REMARK                         _______ _______ _______ _____ _____    ______ ____
ROOT
ATOM      1  C   UNL     1       1.251   8.984  19.452  0.00  0.00    +0.000 A 
ATOM      2  C   UNL     1       1.280   8.717  20.802  0.00  0.00    +0.000 A 
ATOM      3  N   UNL     1       0.535   9.360  21.724  0.00  0.00    +0.000 NA
ATOM      4  C   UNL     1      -0.305  10.311  21.322  0.00  0.00    +0.000 A 
ATOM      5  C   UNL     1      -1.015  10.969  22.311  0.00  0.00    +0.000 A 
ATOM      6  C   UNL     1      -1.891  12.015  22.023  0.00  0.00    +0.000 A 
ATOM      7  C   UNL     1      -2.068  12.405  20.709  0.00  0.00    +0.000 A 
ATOM      8  C   UNL     1      -1.364  11.758  19.691  0.00  0.00    +0.000 A 
ATOM      9  C   UNL     1      -0.451  10.704  19.974  0.00  0.00    +0.000 A 
ATOM     10  C   UNL     1       0.360   9.988  19.029  0.00  0.00    +0.000 A 
ENDROOT
BRANCH   1  12
ATOM     11  N   UNL     1       2.586   7.018  19.066  0.00  0.00    +0.000 N 
ATOM     12  C   UNL     1       2.169   8.198  18.560  0.00  0.00    +0.000 C 
ATOM     13  O   UNL     1       2.488   8.607  17.445  0.00  0.00    +0.000 OA
ATOM     14  H   UNL     1       2.079   6.783  19.902  0.00  0.00    +0.000 HD
BRANCH  11  22
ATOM     15  C   UNL     1       1.376   2.069  19.062  0.00  0.00    +0.000 C 
ATOM     16  N   UNL     1       2.184   3.265  18.971  0.00  0.00    +0.000 NA
ATOM     17  C   UNL     1       1.274   4.406  18.983  0.00  0.00    +0.000 C 
ATOM     18  C   UNL     1       1.241   4.691  20.520  0.00  0.00    +0.000 C 
ATOM     19  C   UNL     1       2.609   4.342  21.084  0.00  0.00    +0.000 C 
ATOM     20  C   UNL     1       3.272   3.703  19.880  0.00  0.00    +0.000 C 
ATOM     21  C   UNL     1       4.084   4.889  19.215  0.00  0.00    +0.000 C 
ATOM     22  C   UNL     1       3.209   5.885  18.398  0.00  0.00    +0.000 C 
ATOM     23  C   UNL     1       2.007   5.151  17.851  0.00  0.00    +0.000 C 
ENDBRANCH  11  22
ENDBRANCH   1  12
BRANCH   2  24
ATOM     24  O   UNL     1       2.093   7.756  21.364  0.00  0.00    +0.000 OA
ATOM     25  H   UNL     1       1.732   7.547  22.258  0.00  0.00    +0.000 HD
ENDBRANCH   2  24
BRANCH  10  26
ATOM     26  O   UNL     1       0.299  10.331  17.694  0.00  0.00    +0.000 OA
ATOM     27  H   UNL     1       0.909   9.785  17.171  0.00  0.00    +0.000 HD
ENDBRANCH  10  26
TORSDOF 4
ENDMDL
MODEL 5
REMARK VINA RESULT:      -7.0      4.758      8.309
REMARK  Name = 
REMARK  5 active torsions:
REMARK  status: ('A' for Active; 'I' for Inactive)
REMARK    1  A    between atoms: C_1  and  N_2
REMARK    2  A    between atoms: C_8  and  N_9
REMARK    3  A    between atoms: C_10  and  C_12
REMARK    4  A    between atoms: C_13  and  O_14
REMARK    5  A    between atoms: C_22  and  O_23
REMARK                            x       y       z     vdW  Elec       q    Type
REMARK                         _______ _______ _______ _____ _____    ______ ____
ROOT
ATOM      1  C   UNL     1       1.470   8.610  19.588  0.00  0.00    +0.000 A 
ATOM      2  C   UNL     1       1.379   8.011  20.824  0.00  0.00    +0.000 A 
ATOM      3  N   UNL     1       0.692   8.516  21.869  0.00  0.00    +0.000 NA
ATOM      4  C   UNL     1       0.037   9.663  21.713  0.00  0.00    +0.000 A 
ATOM      5  C   UNL     1      -0.617  10.159  22.827  0.00  0.00    +0.000 A 
ATOM      6  C   UNL     1      -1.300  11.375  22.805  0.00  0.00    +0.000 A 
ATOM      7  C   UNL     1      -1.338  12.107  21.634  0.00  0.00    +0.000 A 
ATOM      8  C   UNL     1      -0.688  11.629  20.494  0.00  0.00    +0.000 A 
ATOM      9  C   UNL     1       0.031  10.402  20.510  0.00  0.00    +0.000 A 
ATOM     10  C   UNL     1       0.773   9.821  19.425  0.00  0.00    +0.000 A 
ENDROOT
BRANCH   1  12
ATOM     11  N   UNL     1       2.159   6.592  18.471  0.00  0.00    +0.000 N 
ATOM     12  C   UNL     1       2.303   7.933  18.537  0.00  0.00    +0.000 C 
ATOM     13  O   UNL     1       3.039   8.573  17.789  0.00  0.00    +0.000 OA
ATOM     14  H   UNL     1       1.388   6.282  19.037  0.00  0.00    +0.000 HD
BRANCH  11  22
ATOM     15  C   UNL     1       3.392   1.653  18.673  0.00  0.00    +0.000 C 
ATOM     16  N   UNL     1       3.352   3.020  18.203  0.00  0.00    +0.000 NA
ATOM     17  C   UNL     1       2.337   3.719  18.985  0.00  0.00    +0.000 C 
ATOM     18  C   UNL     1       3.236   4.269  20.139  0.00  0.00    +0.000 C 
ATOM     19  C   UNL     1       4.605   4.573  19.553  0.00  0.00    +0.000 C 
ATOM     20  C   UNL     1       4.464   4.002  18.156  0.00  0.00    +0.000 C 
ATOM     21  C   UNL     1       4.045   5.248  17.274  0.00  0.00    +0.000 C 
ATOM     22  C   UNL     1       2.551   5.664  17.421  0.00  0.00    +0.000 C 
ATOM     23  C   UNL     1       1.731   4.443  17.766  0.00  0.00    +0.000 C 
ENDBRANCH  11  22
ENDBRANCH   1  12
BRANCH   2  24
ATOM     24  O   UNL     1       1.998   6.818  21.132  0.00  0.00    +0.000 OA
ATOM     25  H   UNL     1       2.034   6.747  22.115  0.00  0.00    +0.000 HD
ENDBRANCH   2  24
BRANCH  10  26
ATOM     26  O   UNL     1       0.842  10.495  18.222  0.00  0.00    +0.000 OA
ATOM     27  H   UNL     1       1.635  11.055  18.187  0.00  0.00    +0.000 HD
ENDBRANCH  10  26
TORSDOF 4
ENDMDL
MODEL 6
REMARK VINA RESULT:      -6.7      4.229      7.913
REMARK  Name = 
REMARK  5 active torsions:
REMARK  status: ('A' for Active; 'I' for Inactive)
REMARK    1  A    between atoms: C_1  and  N_2
REMARK    2  A    between atoms: C_8  and  N_9
REMARK    3  A    between atoms: C_10  and  C_12
REMARK    4  A    between atoms: C_13  and  O_14
REMARK    5  A    between atoms: C_22  and  O_23
REMARK                            x       y       z     vdW  Elec       q    Type
REMARK                         _______ _______ _______ _____ _____    ______ ____
ROOT
ATOM      1  C   UNL     1       1.798   7.791  19.263  0.00  0.00    +0.000 A 
ATOM      2  C   UNL     1       1.710   8.961  18.543  0.00  0.00    +0.000 A 
ATOM      3  N   UNL     1       1.206  10.117  19.021  0.00  0.00    +0.000 NA
ATOM      4  C   UNL     1       0.771  10.157  20.278  0.00  0.00    +0.000 A 
ATOM      5  C   UNL     1       0.226  11.354  20.707  0.00  0.00    +0.000 A 
ATOM      6  C   UNL     1      -0.306  11.509  21.986  0.00  0.00    +0.000 A 
ATOM      7  C   UNL     1      -0.280  10.442  22.863  0.00  0.00    +0.000 A 
ATOM      8  C   UNL     1       0.266   9.222  22.457  0.00  0.00    +0.000 A 
ATOM      9  C   UNL     1       0.791   9.044  21.147  0.00  0.00    +0.000 A 
ATOM     10  C   UNL     1       1.341   7.837  20.593  0.00  0.00    +0.000 A 
ENDROOT
BRANCH   1  12
ATOM     11  N   UNL     1       3.385   5.982  19.210  0.00  0.00    +0.000 N 
ATOM     12  C   UNL     1       2.356   6.580  18.572  0.00  0.00    +0.000 C 
ATOM     13  O   UNL     1       1.881   6.166  17.517  0.00  0.00    +0.000 OA
ATOM     14  H   UNL     1       3.507   6.359  20.134  0.00  0.00    +0.000 HD
BRANCH  11  22
ATOM     15  C   UNL     1       7.853   4.551  17.223  0.00  0.00    +0.000 C 
ATOM     16  N   UNL     1       6.462   4.485  17.614  0.00  0.00    +0.000 NA
ATOM     17  C   UNL     1       6.187   5.655  18.442  0.00  0.00    +0.000 C 
ATOM     18  C   UNL     1       5.704   6.645  17.333  0.00  0.00    +0.000 C 
ATOM     19  C   UNL     1       4.985   5.832  16.269  0.00  0.00    +0.000 C 
ATOM     20  C   UNL     1       5.268   4.418  16.735  0.00  0.00    +0.000 C 
ATOM     21  C   UNL     1       3.992   4.033  17.588  0.00  0.00    +0.000 C 
ATOM     22  C   UNL     1       3.961   4.660  19.014  0.00  0.00    +0.000 C 
ATOM     23  C   UNL     1       5.379   4.868  19.491  0.00  0.00    +0.000 C 
ENDBRANCH  11  22
ENDBRANCH   1  12
BRANCH   2  24
ATOM     24  O   UNL     1       2.126   9.074  17.233  0.00  0.00    +0.000 OA
ATOM     25  H   UNL     1       1.892   9.981  16.924  0.00  0.00    +0.000 HD
ENDBRANCH   2  24
BRANCH  10  26
ATOM     26  O   UNL     1       1.370   6.695  21.367  0.00  0.00    +0.000 OA
ATOM     27  H   UNL     1       0.608   6.670  21.970  0.00  0.00    +0.000 HD
ENDBRANCH  10  26
TORSDOF 4
ENDMDL
MODEL 7
REMARK VINA RESULT:      -6.7      0.968      2.038
REMARK  Name = 
REMARK  5 active torsions:
REMARK  status: ('A' for Active; 'I' for Inactive)
REMARK    1  A    between atoms: C_1  and  N_2
REMARK    2  A    between atoms: C_8  and  N_9
REMARK    3  A    between atoms: C_10  and  C_12
REMARK    4  A    between atoms: C_13  and  O_14
REMARK    5  A    between atoms: C_22  and  O_23
REMARK                            x       y       z     vdW  Elec       q    Type
REMARK                         _______ _______ _______ _____ _____    ______ ____
ROOT
ATOM      1  C   UNL     1       6.319   4.576  16.535  0.00  0.00    +0.000 A 
ATOM      2  C   UNL     1       5.668   3.492  15.990  0.00  0.00    +0.000 A 
ATOM      3  N   UNL     1       5.716   3.147  14.687  0.00  0.00    +0.000 NA
ATOM      4  C   UNL     1       6.449   3.882  13.855  0.00  0.00    +0.000 A 
ATOM      5  C   UNL     1       6.432   3.510  12.521  0.00  0.00    +0.000 A 
ATOM      6  C   UNL     1       7.122   4.227  11.544  0.00  0.00    +0.000 A 
ATOM      7  C   UNL     1       7.857   5.337  11.913  0.00  0.00    +0.000 A 
ATOM      8  C   UNL     1       7.893   5.734  13.252  0.00  0.00    +0.000 A 
ATOM      9  C   UNL     1       7.176   5.024  14.255  0.00  0.00    +0.000 A 
ATOM     10  C   UNL     1       7.096   5.349  15.653  0.00  0.00    +0.000 A 
ENDROOT
BRANCH   1  12
ATOM     11  N   UNL     1       4.876   5.157  18.372  0.00  0.00    +0.000 N 
ATOM     12  C   UNL     1       6.135   4.842  18.001  0.00  0.00    +0.000 C 
ATOM     13  O   UNL     1       7.071   4.753  18.793  0.00  0.00    +0.000 OA
ATOM     14  H   UNL     1       4.227   5.003  17.619  0.00  0.00    +0.000 HD
BRANCH  11  22
ATOM     15  C   UNL     1       0.668   2.904  20.156  0.00  0.00    +0.000 C 
ATOM     16  N   UNL     1       1.738   3.870  20.030  0.00  0.00    +0.000 NA
ATOM     17  C   UNL     1       2.693   3.338  19.064  0.00  0.00    +0.000 C 
ATOM     18  C   UNL     1       2.122   3.981  17.759  0.00  0.00    +0.000 C 
ATOM     19  C   UNL     1       1.538   5.335  18.128  0.00  0.00    +0.000 C 
ATOM     20  C   UNL     1       1.637   5.299  19.640  0.00  0.00    +0.000 C 
ATOM     21  C   UNL     1       3.000   6.040  19.953  0.00  0.00    +0.000 C 
ATOM     22  C   UNL     1       4.272   5.178  19.696  0.00  0.00    +0.000 C 
ATOM     23  C   UNL     1       3.929   3.721  19.902  0.00  0.00    +0.000 C 
ENDBRANCH  11  22
ENDBRANCH   1  12
BRANCH   2  24
ATOM     24  O   UNL     1       4.878   2.637  16.729  0.00  0.00    +0.000 OA
ATOM     25  H   UNL     1       5.159   1.715  16.518  0.00  0.00    +0.000 HD
ENDBRANCH   2  24
BRANCH  10  26
ATOM     26  O   UNL     1       7.754   6.468  16.121  0.00  0.00    +0.000 OA
ATOM     27  H   UNL     1       7.123   7.183  16.309  0.00  0.00    +0.000 HD
ENDBRANCH  10  26
TORSDOF 4
ENDMDL
MODEL 8
REMARK VINA RESULT:      -6.6      1.097      1.110
REMARK  Name = 
REMARK  5 active torsions:
REMARK  status: ('A' for Active; 'I' for Inactive)
REMARK    1  A    between atoms: C_1  and  N_2
REMARK    2  A    between atoms: C_8  and  N_9
REMARK    3  A    between atoms: C_10  and  C_12
REMARK    4  A    between atoms: C_13  and  O_14
REMARK    5  A    between atoms: C_22  and  O_23
REMARK                            x       y       z     vdW  Elec       q    Type
REMARK                         _______ _______ _______ _____ _____    ______ ____
ROOT
ATOM      1  C   UNL     1       5.860   5.351  16.030  0.00  0.00    +0.000 A 
ATOM      2  C   UNL     1       7.069   5.831  15.579  0.00  0.00    +0.000 A 
ATOM      3  N   UNL     1       7.630   5.500  14.398  0.00  0.00    +0.000 NA
ATOM      4  C   UNL     1       6.982   4.666  13.590  0.00  0.00    +0.000 A 
ATOM      5  C   UNL     1       7.619   4.327  12.409  0.00  0.00    +0.000 A 
ATOM      6  C   UNL     1       7.065   3.426  11.501  0.00  0.00    +0.000 A 
ATOM      7  C   UNL     1       5.835   2.860  11.776  0.00  0.00    +0.000 A 
ATOM      8  C   UNL     1       5.169   3.185  12.960  0.00  0.00    +0.000 A 
ATOM      9  C   UNL     1       5.734   4.086  13.905  0.00  0.00    +0.000 A 
ATOM     10  C   UNL     1       5.175   4.471  15.171  0.00  0.00    +0.000 A 
ENDROOT
BRANCH   1  12
ATOM     11  N   UNL     1       4.804   4.829  18.129  0.00  0.00    +0.000 N 
ATOM     12  C   UNL     1       5.389   5.793  17.386  0.00  0.00    +0.000 C 
ATOM     13  O   UNL     1       5.554   6.945  17.780  0.00  0.00    +0.000 OA
ATOM     14  H   UNL     1       4.924   3.924  17.709  0.00  0.00    +0.000 HD
BRANCH  11  22
ATOM     15  C   UNL     1       1.182   2.377  20.743  0.00  0.00    +0.000 C 
ATOM     16  N   UNL     1       2.162   3.387  20.409  0.00  0.00    +0.000 NA
ATOM     17  C   UNL     1       2.896   2.912  19.240  0.00  0.00    +0.000 C 
ATOM     18  C   UNL     1       2.025   3.557  18.113  0.00  0.00    +0.000 C 
ATOM     19  C   UNL     1       1.492   4.879  18.639  0.00  0.00    +0.000 C 
ATOM     20  C   UNL     1       1.927   4.818  20.090  0.00  0.00    +0.000 C 
ATOM     21  C   UNL     1       3.300   5.607  20.112  0.00  0.00    +0.000 C 
ATOM     22  C   UNL     1       4.511   4.801  19.554  0.00  0.00    +0.000 C 
ATOM     23  C   UNL     1       4.274   3.328  19.791  0.00  0.00    +0.000 C 
ENDBRANCH  11  22
ENDBRANCH   1  12
BRANCH   2  24
ATOM     24  O   UNL     1       7.850   6.707  16.303  0.00  0.00    +0.000 OA
ATOM     25  H   UNL     1       8.415   6.171  16.908  0.00  0.00    +0.000 HD
ENDBRANCH   2  24
BRANCH  10  26
ATOM     26  O   UNL     1       3.971   3.926  15.569  0.00  0.00    +0.000 OA
ATOM     27  H   UNL     1       4.082   2.993  15.815  0.00  0.00    +0.000 HD
ENDBRANCH  10  26
TORSDOF 4
ENDMDL
MODEL 9
REMARK VINA RESULT:      -6.6      6.713      8.565
REMARK  Name = 
REMARK  5 active torsions:
REMARK  status: ('A' for Active; 'I' for Inactive)
REMARK    1  A    between atoms: C_1  and  N_2
REMARK    2  A    between atoms: C_8  and  N_9
REMARK    3  A    between atoms: C_10  and  C_12
REMARK    4  A    between atoms: C_13  and  O_14
REMARK    5  A    between atoms: C_22  and  O_23
REMARK                            x       y       z     vdW  Elec       q    Type
REMARK                         _______ _______ _______ _____ _____    ______ ____
ROOT
ATOM      1  C   UNL     1       1.456   8.871  19.403  0.00  0.00    +0.000 A 
ATOM      2  C   UNL     1       1.883   9.205  18.138  0.00  0.00    +0.000 A 
ATOM      3  N   UNL     1       2.763   8.484  17.413  0.00  0.00    +0.000 NA
ATOM      4  C   UNL     1       3.252   7.360  17.930  0.00  0.00    +0.000 A 
ATOM      5  C   UNL     1       4.182   6.679  17.164  0.00  0.00    +0.000 A 
ATOM      6  C   UNL     1       4.802   5.514  17.614  0.00  0.00    +0.000 A 
ATOM      7  C   UNL     1       4.474   5.012  18.858  0.00  0.00    +0.000 A 
ATOM      8  C   UNL     1       3.538   5.678  19.653  0.00  0.00    +0.000 A 
ATOM      9  C   UNL     1       2.915   6.880  19.214  0.00  0.00    +0.000 A 
ATOM     10  C   UNL     1       1.972   7.680  19.946  0.00  0.00    +0.000 A 
ENDROOT
BRANCH   1  12
ATOM     11  N   UNL     1       0.858  11.101  20.085  0.00  0.00    +0.000 N 
ATOM     12  C   UNL     1       0.496   9.800  20.090  0.00  0.00    +0.000 C 
ATOM     13  O   UNL     1      -0.548   9.390  20.593  0.00  0.00    +0.000 OA
ATOM     14  H   UNL     1       1.643  11.256  19.476  0.00  0.00    +0.000 HD
BRANCH  11  22
ATOM     15  C   UNL     1       1.446  15.936  18.589  0.00  0.00    +0.000 C 
ATOM     16  N   UNL     1       1.048  14.810  19.405  0.00  0.00    +0.000 NA
ATOM     17  C   UNL     1       1.313  13.599  18.635  0.00  0.00    +0.000 C 
ATOM     18  C   UNL     1       2.763  13.292  19.132  0.00  0.00    +0.000 C 
ATOM     19  C   UNL     1       2.860  13.742  20.581  0.00  0.00    +0.000 C 
ATOM     20  C   UNL     1       1.531  14.449  20.762  0.00  0.00    +0.000 C 
ATOM     21  C   UNL     1       0.591  13.341  21.391  0.00  0.00    +0.000 C 
ATOM     22  C   UNL     1       0.067  12.289  20.369  0.00  0.00    +0.000 C 
ATOM     23  C   UNL     1      -0.026  12.931  19.005  0.00  0.00    +0.000 C 
ENDBRANCH  11  22
ENDBRANCH   1  12
BRANCH   2  24
ATOM     24  O   UNL     1       1.459  10.336  17.472  0.00  0.00    +0.000 OA
ATOM     25  H   UNL     1       1.495  11.088  18.109  0.00  0.00    +0.000 HD
ENDBRANCH   2  24
BRANCH  10  26
ATOM     26  O   UNL     1       1.611   7.296  21.221  0.00  0.00    +0.000 OA
ATOM     27  H   UNL     1       2.153   6.547  21.521  0.00  0.00    +0.000 HD
ENDBRANCH  10  26
TORSDOF 4
ENDMDL
