MODEL 1
REMARK VINA RESULT:      -6.2      0.000      0.000
REMARK  Name = 
REMARK  3 active torsions:
REMARK  status: ('A' for Active; 'I' for Inactive)
REMARK    1  A    between atoms: C_1  and  N_2
REMARK    2  A    between atoms: C_5  and  N_6
REMARK    3  A    between atoms: C_7  and  C_9
REMARK                            x       y       z     vdW  Elec       q    Type
REMARK                         _______ _______ _______ _____ _____    ______ ____
ROOT
ATOM      1  N   UNL     1       4.539   4.113  17.326  0.00  0.00    +0.000 N 
ATOM      2  C   UNL     1       5.892   4.328  17.152  0.00  0.00    +0.000 C 
ATOM      3  O   UNL     1       6.668   4.455  18.094  0.00  0.00    +0.000 OA
ATOM      4  H   UNL     1       3.993   3.915  16.495  0.00  0.00    +0.000 HD
ENDROOT
BRANCH   1   9
ATOM      5  C   UNL     1       1.361   2.733  21.820  0.00  0.00    +0.000 C 
ATOM      6  N   UNL     1       1.970   2.867  20.494  0.00  0.00    +0.000 NA
ATOM      7  C   UNL     1       1.853   4.253  20.017  0.00  0.00    +0.000 C 
ATOM      8  C   UNL     1       2.476   4.421  18.630  0.00  0.00    +0.000 C 
ATOM      9  C   UNL     1       3.935   3.969  18.641  0.00  0.00    +0.000 C 
ATOM     10  C   UNL     1       4.025   2.532  19.155  0.00  0.00    +0.000 C 
ATOM     11  C   UNL     1       3.372   2.423  20.533  0.00  0.00    +0.000 C 
ENDBRANCH   1   9
BRANCH   2  12
ATOM     12  C   UNL     1       6.308   4.401  15.766  0.00  0.00    +0.000 A 
ATOM     13  C   UNL     1       7.289   5.159  15.152  0.00  0.00    +0.000 A 
ATOM     14  C   UNL     1       7.261   4.826  13.775  0.00  0.00    +0.000 A 
ATOM     15  C   UNL     1       6.264   3.890  13.629  0.00  0.00    +0.000 A 
ATOM     16 BR   UNL     1       5.772   3.089  12.018  0.00  0.00    +0.000 Br
ATOM     17  O   UNL     1       5.678   3.624  14.827  0.00  0.00    +0.000 OA
ENDBRANCH   2  12
TORSDOF 2
ENDMDL
MODEL 2
REMARK VINA RESULT:      -6.0      1.217      1.365
REMARK  Name = 
REMARK  3 active torsions:
REMARK  status: ('A' for Active; 'I' for Inactive)
REMARK    1  A    between atoms: C_1  and  N_2
REMARK    2  A    between atoms: C_5  and  N_6
REMARK    3  A    between atoms: C_7  and  C_9
REMARK                            x       y       z     vdW  Elec       q    Type
REMARK                         _______ _______ _______ _____ _____    ______ ____
ROOT
ATOM      1  N   UNL     1       4.647   3.914  16.420  0.00  0.00    +0.000 N 
ATOM      2  C   UNL     1       5.916   4.142  15.922  0.00  0.00    +0.000 C 
ATOM      3  O   UNL     1       6.868   4.424  16.643  0.00  0.00    +0.000 OA
ATOM      4  H   UNL     1       3.948   3.583  15.765  0.00  0.00    +0.000 HD
ENDROOT
BRANCH   1   9
ATOM      5  C   UNL     1       2.253   3.810  21.563  0.00  0.00    +0.000 C 
ATOM      6  N   UNL     1       2.546   3.772  20.129  0.00  0.00    +0.000 NA
ATOM      7  C   UNL     1       3.063   5.072  19.679  0.00  0.00    +0.000 C 
ATOM      8  C   UNL     1       3.372   5.064  18.181  0.00  0.00    +0.000 C 
ATOM      9  C   UNL     1       4.352   3.942  17.844  0.00  0.00    +0.000 C 
ATOM     10  C   UNL     1       3.793   2.606  18.335  0.00  0.00    +0.000 C 
ATOM     11  C   UNL     1       3.488   2.682  19.831  0.00  0.00    +0.000 C 
ENDBRANCH   1   9
BRANCH   2  12
ATOM     12  C   UNL     1       6.018   4.028  14.481  0.00  0.00    +0.000 A 
ATOM     13  C   UNL     1       7.091   4.222  13.630  0.00  0.00    +0.000 A 
ATOM     14  C   UNL     1       6.621   3.971  12.317  0.00  0.00    +0.000 A 
ATOM     15  C   UNL     1       5.291   3.645  12.443  0.00  0.00    +0.000 A 
ATOM     16 BR   UNL     1       4.152   3.218  11.029  0.00  0.00    +0.000 Br
ATOM     17  O   UNL     1       4.912   3.676  13.749  0.00  0.00    +0.000 OA
ENDBRANCH   2  12
TORSDOF 2
ENDMDL
MODEL 3
REMARK VINA RESULT:      -5.9      1.396      1.685
REMARK  Name = 
REMARK  3 active torsions:
REMARK  status: ('A' for Active; 'I' for Inactive)
REMARK    1  A    between atoms: C_1  and  N_2
REMARK    2  A    between atoms: C_5  and  N_6
REMARK    3  A    between atoms: C_7  and  C_9
REMARK                            x       y       z     vdW  Elec       q    Type
REMARK                         _______ _______ _______ _____ _____    ______ ____
ROOT
ATOM      1  N   UNL     1       5.077   4.497  16.143  0.00  0.00    +0.000 N 
ATOM      2  C   UNL     1       6.390   4.657  15.744  0.00  0.00    +0.000 C 
ATOM      3  O   UNL     1       7.278   5.002  16.517  0.00  0.00    +0.000 OA
ATOM      4  H   UNL     1       4.433   4.108  15.464  0.00  0.00    +0.000 HD
ENDROOT
BRANCH   1   9
ATOM      5  C   UNL     1       2.255   4.800  21.056  0.00  0.00    +0.000 C 
ATOM      6  N   UNL     1       2.677   4.608  19.667  0.00  0.00    +0.000 NA
ATOM      7  C   UNL     1       3.098   5.888  19.079  0.00  0.00    +0.000 C 
ATOM      8  C   UNL     1       3.539   5.718  17.625  0.00  0.00    +0.000 C 
ATOM      9  C   UNL     1       4.654   4.679  17.523  0.00  0.00    +0.000 C 
ATOM     10  C   UNL     1       4.192   3.364  18.153  0.00  0.00    +0.000 C 
ATOM     11  C   UNL     1       3.748   3.601  19.597  0.00  0.00    +0.000 C 
ENDBRANCH   1   9
BRANCH   2  12
ATOM     12  C   UNL     1       6.620   4.390  14.338  0.00  0.00    +0.000 A 
ATOM     13  C   UNL     1       7.395   5.054  13.404  0.00  0.00    +0.000 A 
ATOM     14  C   UNL     1       7.251   4.354  12.181  0.00  0.00    +0.000 A 
ATOM     15  C   UNL     1       6.394   3.309  12.438  0.00  0.00    +0.000 A 
ATOM     16 BR   UNL     1       5.835   2.046  11.185  0.00  0.00    +0.000 Br
ATOM     17  O   UNL     1       6.003   3.320  13.741  0.00  0.00    +0.000 OA
ENDBRANCH   2  12
TORSDOF 2
ENDMDL
MODEL 4
REMARK VINA RESULT:      -5.9      1.052      1.072
REMARK  Name = 
REMARK  3 active torsions:
REMARK  status: ('A' for Active; 'I' for Inactive)
REMARK    1  A    between atoms: C_1  and  N_2
REMARK    2  A    between atoms: C_5  and  N_6
REMARK    3  A    between atoms: C_7  and  C_9
REMARK                            x       y       z     vdW  Elec       q    Type
REMARK                         _______ _______ _______ _____ _____    ______ ____
ROOT
ATOM      1  N   UNL     1       4.328   4.044  16.520  0.00  0.00    +0.000 N 
ATOM      2  C   UNL     1       5.311   4.920  16.104  0.00  0.00    +0.000 C 
ATOM      3  O   UNL     1       5.661   5.888  16.774  0.00  0.00    +0.000 OA
ATOM      4  H   UNL     1       4.179   3.216  15.954  0.00  0.00    +0.000 HD
ENDROOT
BRANCH   1   9
ATOM      5  C   UNL     1       1.356   3.296  21.295  0.00  0.00    +0.000 C 
ATOM      6  N   UNL     1       2.030   3.159  20.002  0.00  0.00    +0.000 NA
ATOM      7  C   UNL     1       1.472   4.112  19.032  0.00  0.00    +0.000 C 
ATOM      8  C   UNL     1       2.153   3.986  17.668  0.00  0.00    +0.000 C 
ATOM      9  C   UNL     1       3.663   4.171  17.807  0.00  0.00    +0.000 C 
ATOM     10  C   UNL     1       4.212   3.177  18.831  0.00  0.00    +0.000 C 
ATOM     11  C   UNL     1       3.481   3.338  20.164  0.00  0.00    +0.000 C 
ENDBRANCH   1   9
BRANCH   2  12
ATOM     12  C   UNL     1       5.883   4.602  14.811  0.00  0.00    +0.000 A 
ATOM     13  C   UNL     1       6.972   5.135  14.145  0.00  0.00    +0.000 A 
ATOM     14  C   UNL     1       7.077   4.443  12.913  0.00  0.00    +0.000 A 
ATOM     15  C   UNL     1       6.044   3.535  12.897  0.00  0.00    +0.000 A 
ATOM     16 BR   UNL     1       5.684   2.344  11.507  0.00  0.00    +0.000 Br
ATOM     17  O   UNL     1       5.312   3.621  14.040  0.00  0.00    +0.000 OA
ENDBRANCH   2  12
TORSDOF 2
ENDMDL
MODEL 5
REMARK VINA RESULT:      -5.8      6.745      8.637
REMARK  Name = 
REMARK  3 active torsions:
REMARK  status: ('A' for Active; 'I' for Inactive)
REMARK    1  A    between atoms: C_1  and  N_2
REMARK    2  A    between atoms: C_5  and  N_6
REMARK    3  A    between atoms: C_7  and  C_9
REMARK                            x       y       z     vdW  Elec       q    Type
REMARK                         _______ _______ _______ _____ _____    ______ ____
ROOT
ATOM      1  N   UNL     1       8.892   9.217  18.831  0.00  0.00    +0.000 N 
ATOM      2  C   UNL     1       7.938   8.825  17.911  0.00  0.00    +0.000 C 
ATOM      3  O   UNL     1       7.312   9.627  17.225  0.00  0.00    +0.000 OA
ATOM      4  H   UNL     1       9.433   8.484  19.275  0.00  0.00    +0.000 HD
ENDROOT
BRANCH   1   9
ATOM      5  C   UNL     1      11.528  14.133  19.867  0.00  0.00    +0.000 C 
ATOM      6  N   UNL     1      11.161  12.730  19.668  0.00  0.00    +0.000 NA
ATOM      7  C   UNL     1      10.130  12.328  20.635  0.00  0.00    +0.000 C 
ATOM      8  C   UNL     1       9.732  10.863  20.454  0.00  0.00    +0.000 C 
ATOM      9  C   UNL     1       9.263  10.610  19.022  0.00  0.00    +0.000 C 
ATOM     10  C   UNL     1      10.350  11.049  18.040  0.00  0.00    +0.000 C 
ATOM     11  C   UNL     1      10.717  12.513  18.282  0.00  0.00    +0.000 C 
ENDBRANCH   1   9
BRANCH   2  12
ATOM     12  C   UNL     1       7.738   7.392  17.837  0.00  0.00    +0.000 A 
ATOM     13  C   UNL     1       7.953   6.396  18.773  0.00  0.00    +0.000 A 
ATOM     14  C   UNL     1       7.584   5.173  18.161  0.00  0.00    +0.000 A 
ATOM     15  C   UNL     1       7.173   5.492  16.888  0.00  0.00    +0.000 A 
ATOM     16 BR   UNL     1       6.574   4.267  15.615  0.00  0.00    +0.000 Br
ATOM     17  O   UNL     1       7.262   6.833  16.678  0.00  0.00    +0.000 OA
ENDBRANCH   2  12
TORSDOF 2
ENDMDL
MODEL 6
REMARK VINA RESULT:      -5.8      1.488      1.640
REMARK  Name = 
REMARK  3 active torsions:
REMARK  status: ('A' for Active; 'I' for Inactive)
REMARK    1  A    between atoms: C_1  and  N_2
REMARK    2  A    between atoms: C_5  and  N_6
REMARK    3  A    between atoms: C_7  and  C_9
REMARK                            x       y       z     vdW  Elec       q    Type
REMARK                         _______ _______ _______ _____ _____    ______ ____
ROOT
ATOM      1  N   UNL     1       4.474   3.764  17.032  0.00  0.00    +0.000 N 
ATOM      2  C   UNL     1       4.920   4.910  16.404  0.00  0.00    +0.000 C 
ATOM      3  O   UNL     1       4.723   6.033  16.860  0.00  0.00    +0.000 OA
ATOM      4  H   UNL     1       4.774   2.878  16.641  0.00  0.00    +0.000 HD
ENDROOT
BRANCH   1   9
ATOM      5  C   UNL     1       1.285   2.712  21.605  0.00  0.00    +0.000 C 
ATOM      6  N   UNL     1       1.990   2.672  20.322  0.00  0.00    +0.000 NA
ATOM      7  C   UNL     1       1.547   3.778  19.461  0.00  0.00    +0.000 C 
ATOM      8  C   UNL     1       2.263   3.757  18.110  0.00  0.00    +0.000 C 
ATOM      9  C   UNL     1       3.778   3.794  18.308  0.00  0.00    +0.000 C 
ATOM     10  C   UNL     1       4.206   2.641  19.217  0.00  0.00    +0.000 C 
ATOM     11  C   UNL     1       3.445   2.705  20.541  0.00  0.00    +0.000 C 
ENDBRANCH   1   9
BRANCH   2  12
ATOM     12  C   UNL     1       5.629   4.671  15.163  0.00  0.00    +0.000 A 
ATOM     13  C   UNL     1       5.459   3.699  14.194  0.00  0.00    +0.000 A 
ATOM     14  C   UNL     1       6.432   3.944  13.194  0.00  0.00    +0.000 A 
ATOM     15  C   UNL     1       7.141   5.045  13.613  0.00  0.00    +0.000 A 
ATOM     16 BR   UNL     1       8.561   5.823  12.687  0.00  0.00    +0.000 Br
ATOM     17  O   UNL     1       6.667   5.495  14.805  0.00  0.00    +0.000 OA
ENDBRANCH   2  12
TORSDOF 2
ENDMDL
MODEL 7
REMARK VINA RESULT:      -5.8      1.063      1.464
REMARK  Name = 
REMARK  3 active torsions:
REMARK  status: ('A' for Active; 'I' for Inactive)
REMARK    1  A    between atoms: C_1  and  N_2
REMARK    2  A    between atoms: C_5  and  N_6
REMARK    3  A    between atoms: C_7  and  C_9
REMARK                            x       y       z     vdW  Elec       q    Type
REMARK                         _______ _______ _______ _____ _____    ______ ____
ROOT
ATOM      1  N   UNL     1       4.498   2.851  17.136  0.00  0.00    +0.000 N 
ATOM      2  C   UNL     1       4.864   4.162  16.899  0.00  0.00    +0.000 C 
ATOM      3  O   UNL     1       4.493   5.091  17.612  0.00  0.00    +0.000 OA
ATOM      4  H   UNL     1       4.936   2.140  16.561  0.00  0.00    +0.000 HD
ENDROOT
BRANCH   1   9
ATOM      5  C   UNL     1       1.265   2.643  21.794  0.00  0.00    +0.000 C 
ATOM      6  N   UNL     1       2.076   3.041  20.641  0.00  0.00    +0.000 NA
ATOM      7  C   UNL     1       3.445   2.523  20.777  0.00  0.00    +0.000 C 
ATOM      8  C   UNL     1       4.317   2.930  19.588  0.00  0.00    +0.000 C 
ATOM      9  C   UNL     1       3.686   2.462  18.278  0.00  0.00    +0.000 C 
ATOM     10  C   UNL     1       2.260   3.005  18.172  0.00  0.00    +0.000 C 
ATOM     11  C   UNL     1       1.444   2.582  19.394  0.00  0.00    +0.000 C 
ENDBRANCH   1   9
BRANCH   2  12
ATOM     12  C   UNL     1       5.709   4.343  15.737  0.00  0.00    +0.000 A 
ATOM     13  C   UNL     1       6.822   5.142  15.540  0.00  0.00    +0.000 A 
ATOM     14  C   UNL     1       7.253   4.920  14.209  0.00  0.00    +0.000 A 
ATOM     15  C   UNL     1       6.378   4.006  13.671  0.00  0.00    +0.000 A 
ATOM     16 BR   UNL     1       6.457   3.340  11.930  0.00  0.00    +0.000 Br
ATOM     17  O   UNL     1       5.437   3.648  14.585  0.00  0.00    +0.000 OA
ENDBRANCH   2  12
TORSDOF 2
ENDMDL
MODEL 8
REMARK VINA RESULT:      -5.7      1.473      1.648
REMARK  Name = 
REMARK  3 active torsions:
REMARK  status: ('A' for Active; 'I' for Inactive)
REMARK    1  A    between atoms: C_1  and  N_2
REMARK    2  A    between atoms: C_5  and  N_6
REMARK    3  A    between atoms: C_7  and  C_9
REMARK                            x       y       z     vdW  Elec       q    Type
REMARK                         _______ _______ _______ _____ _____    ______ ____
ROOT
ATOM      1  N   UNL     1       4.598   3.939  16.520  0.00  0.00    +0.000 N 
ATOM      2  C   UNL     1       5.937   4.237  16.357  0.00  0.00    +0.000 C 
ATOM      3  O   UNL     1       6.693   4.422  17.307  0.00  0.00    +0.000 OA
ATOM      4  H   UNL     1       4.075   3.698  15.686  0.00  0.00    +0.000 HD
ENDROOT
BRANCH   1   9
ATOM      5  C   UNL     1       1.142   3.003  20.922  0.00  0.00    +0.000 C 
ATOM      6  N   UNL     1       1.752   3.161  19.599  0.00  0.00    +0.000 NA
ATOM      7  C   UNL     1       2.190   4.550  19.401  0.00  0.00    +0.000 C 
ATOM      8  C   UNL     1       2.826   4.745  18.024  0.00  0.00    +0.000 C 
ATOM      9  C   UNL     1       3.989   3.774  17.830  0.00  0.00    +0.000 C 
ATOM     10  C   UNL     1       3.506   2.340  18.055  0.00  0.00    +0.000 C 
ATOM     11  C   UNL     1       2.866   2.213  19.438  0.00  0.00    +0.000 C 
ENDBRANCH   1   9
BRANCH   2  12
ATOM     12  C   UNL     1       6.364   4.319  14.975  0.00  0.00    +0.000 A 
ATOM     13  C   UNL     1       5.970   3.602  13.860  0.00  0.00    +0.000 A 
ATOM     14  C   UNL     1       6.718   4.104  12.766  0.00  0.00    +0.000 A 
ATOM     15  C   UNL     1       7.526   5.091  13.278  0.00  0.00    +0.000 A 
ATOM     16 BR   UNL     1       8.739   6.106  12.288  0.00  0.00    +0.000 Br
ATOM     17  O   UNL     1       7.323   5.232  14.615  0.00  0.00    +0.000 OA
ENDBRANCH   2  12
TORSDOF 2
ENDMDL
MODEL 9
REMARK VINA RESULT:      -5.6      5.422      6.984
REMARK  Name = 
REMARK  3 active torsions:
REMARK  status: ('A' for Active; 'I' for Inactive)
REMARK    1  A    between atoms: C_1  and  N_2
REMARK    2  A    between atoms: C_5  and  N_6
REMARK    3  A    between atoms: C_7  and  C_9
REMARK                            x       y       z     vdW  Elec       q    Type
REMARK                         _______ _______ _______ _____ _____    ______ ____
ROOT
ATOM      1  N   UNL     1       2.134   6.775  19.271  0.00  0.00    +0.000 N 
ATOM      2  C   UNL     1       2.286   7.956  18.571  0.00  0.00    +0.000 C 
ATOM      3  O   UNL     1       3.012   8.052  17.586  0.00  0.00    +0.000 OA
ATOM      4  H   UNL     1       1.435   6.760  20.005  0.00  0.00    +0.000 HD
ENDROOT
BRANCH   1   9
ATOM      5  C   UNL     1       3.644   1.391  18.305  0.00  0.00    +0.000 C 
ATOM      6  N   UNL     1       2.979   2.632  18.708  0.00  0.00    +0.000 NA
ATOM      7  C   UNL     1       3.831   3.389  19.637  0.00  0.00    +0.000 C 
ATOM      8  C   UNL     1       3.158   4.689  20.081  0.00  0.00    +0.000 C 
ATOM      9  C   UNL     1       2.786   5.539  18.867  0.00  0.00    +0.000 C 
ATOM     10  C   UNL     1       1.913   4.721  17.914  0.00  0.00    +0.000 C 
ATOM     11  C   UNL     1       2.629   3.429  17.522  0.00  0.00    +0.000 C 
ENDBRANCH   1   9
BRANCH   2  12
ATOM     12  C   UNL     1       1.524   9.066  19.105  0.00  0.00    +0.000 A 
ATOM     13  C   UNL     1       1.141  10.264  18.530  0.00  0.00    +0.000 A 
ATOM     14  C   UNL     1       0.407  10.973  19.512  0.00  0.00    +0.000 A 
ATOM     15  C   UNL     1       0.388  10.171  20.628  0.00  0.00    +0.000 A 
ATOM     16 BR   UNL     1      -0.440  10.598  22.244  0.00  0.00    +0.000 Br
ATOM     17  O   UNL     1       1.062   9.012  20.396  0.00  0.00    +0.000 OA
ENDBRANCH   2  12
TORSDOF 2
ENDMDL
