MODEL 1
REMARK VINA RESULT:      -7.2      0.000      0.000
REMARK  Name = 
REMARK  11 active torsions:
REMARK  status: ('A' for Active; 'I' for Inactive)
REMARK    1  A    between atoms: C_1  and  C_2
REMARK    2  A    between atoms: C_2  and  O_3
REMARK    3  A    between atoms: O_3  and  C_4
REMARK    4  A    between atoms: C_7  and  C_8
REMARK    5  A    between atoms: C_8  and  C_9
REMARK    6  A    between atoms: C_9  and  N_10
REMARK    7  A    between atoms: N_10  and  S_11
REMARK    8  A    between atoms: S_11  and  C_14
REMARK    9  A    between atoms: C_24  and  O_25
REMARK   10  A    between atoms: O_25  and  C_26
REMARK   11  A    between atoms: C_26  and  C_27
REMARK                            x       y       z     vdW  Elec       q    Type
REMARK                         _______ _______ _______ _____ _____    ______ ____
ROOT
ATOM      1  C   UNL     1       2.650   5.964  19.479  0.00  0.00    +0.000 C 
ENDROOT
BRANCH   1   2
ATOM      2  N   UNL     1       3.912   5.300  19.815  0.00  0.00    +0.000 NA
ATOM      3  H   UNL     1       4.171   5.206  20.796  0.00  0.00    +0.000 HD
BRANCH   2   4
ATOM      4  S   UNL     1       4.198   3.853  18.979  0.00  0.00    +0.000 S 
ATOM      5  O   UNL     1       5.126   3.081  19.777  0.00  0.00    +0.000 OA
ATOM      6  O   UNL     1       2.915   3.300  18.607  0.00  0.00    +0.000 OA
BRANCH   4   7
ATOM      7  C   UNL     1       5.017   4.357  17.514  0.00  0.00    +0.000 A 
ATOM      8  C   UNL     1       4.707   3.751  16.273  0.00  0.00    +0.000 A 
ATOM      9  C   UNL     1       5.386   4.061  15.072  0.00  0.00    +0.000 A 
ATOM     10  C   UNL     1       6.433   4.995  15.008  0.00  0.00    +0.000 A 
ATOM     11  C   UNL     1       6.775   5.638  16.222  0.00  0.00    +0.000 A 
ATOM     12  N   UNL     1       7.741   6.557  16.368  0.00  0.00    +0.000 NA
ATOM     13  S   UNL     1       7.742   6.988  17.971  0.00  0.00    +0.000 S 
ATOM     14  N   UNL     1       6.509   6.043  18.545  0.00  0.00    +0.000 NA
ATOM     15  C   UNL     1       6.048   5.321  17.511  0.00  0.00    +0.000 A 
ENDBRANCH   4   7
ENDBRANCH   2   4
ENDBRANCH   1   2
BRANCH   1  16
ATOM     16  C   UNL     1       2.801   7.117  18.487  0.00  0.00    +0.000 C 
BRANCH  16  20
ATOM     17  C   UNL     1       0.072  10.387  19.392  0.00  0.00    +0.000 A 
ATOM     18  C   UNL     1       0.299   9.971  18.069  0.00  0.00    +0.000 A 
ATOM     19  C   UNL     1       1.189   8.929  17.778  0.00  0.00    +0.000 A 
ATOM     20  C   UNL     1       1.891   8.292  18.803  0.00  0.00    +0.000 A 
ATOM     21  C   UNL     1       1.711   8.773  20.111  0.00  0.00    +0.000 A 
ATOM     22  C   UNL     1       0.837   9.822  20.413  0.00  0.00    +0.000 A 
BRANCH  17  23
ATOM     23  O   UNL     1      -0.887  11.305  19.727  0.00  0.00    +0.000 OA
BRANCH  23  25
ATOM     24  C   UNL     1      -2.931  11.786  18.584  0.00  0.00    +0.000 C 
ATOM     25  C   UNL     1      -1.439  12.053  18.642  0.00  0.00    +0.000 C 
ENDBRANCH  23  25
ENDBRANCH  17  23
BRANCH  22  26
ATOM     26  O   UNL     1       0.817  10.110  21.752  0.00  0.00    +0.000 OA
BRANCH  26  27
ATOM     27  C   UNL     1      -0.114   9.407  22.569  0.00  0.00    +0.000 C 
ATOM     28  C   UNL     1      -1.012  10.438  23.236  0.00  0.00    +0.000 C 
ENDBRANCH  26  27
ENDBRANCH  22  26
ENDBRANCH  16  20
ENDBRANCH   1  16
TORSDOF 9
ENDMDL
MODEL 2
REMARK VINA RESULT:      -7.2      1.070      2.351
REMARK  Name = 
REMARK  11 active torsions:
REMARK  status: ('A' for Active; 'I' for Inactive)
REMARK    1  A    between atoms: C_1  and  C_2
REMARK    2  A    between atoms: C_2  and  O_3
REMARK    3  A    between atoms: O_3  and  C_4
REMARK    4  A    between atoms: C_7  and  C_8
REMARK    5  A    between atoms: C_8  and  C_9
REMARK    6  A    between atoms: C_9  and  N_10
REMARK    7  A    between atoms: N_10  and  S_11
REMARK    8  A    between atoms: S_11  and  C_14
REMARK    9  A    between atoms: C_24  and  O_25
REMARK   10  A    between atoms: O_25  and  C_26
REMARK   11  A    between atoms: C_26  and  C_27
REMARK                            x       y       z     vdW  Elec       q    Type
REMARK                         _______ _______ _______ _____ _____    ______ ____
ROOT
ATOM      1  C   UNL     1       2.156   5.234  19.372  0.00  0.00    +0.000 C 
ENDROOT
BRANCH   1   2
ATOM      2  N   UNL     1       3.263   4.505  19.995  0.00  0.00    +0.000 NA
ATOM      3  H   UNL     1       3.185   4.237  20.975  0.00  0.00    +0.000 HD
BRANCH   2   4
ATOM      4  S   UNL     1       3.879   3.224  19.072  0.00  0.00    +0.000 S 
ATOM      5  O   UNL     1       4.791   2.490  19.923  0.00  0.00    +0.000 OA
ATOM      6  O   UNL     1       2.759   2.554  18.449  0.00  0.00    +0.000 OA
BRANCH   4   7
ATOM      7  C   UNL     1       4.811   4.009  17.813  0.00  0.00    +0.000 A 
ATOM      8  C   UNL     1       4.484   3.814  16.450  0.00  0.00    +0.000 A 
ATOM      9  C   UNL     1       5.244   4.359  15.389  0.00  0.00    +0.000 A 
ATOM     10  C   UNL     1       6.395   5.137  15.596  0.00  0.00    +0.000 A 
ATOM     11  C   UNL     1       6.758   5.371  16.944  0.00  0.00    +0.000 A 
ATOM     12  N   UNL     1       7.817   6.088  17.349  0.00  0.00    +0.000 NA
ATOM     13  S   UNL     1       7.802   6.055  19.008  0.00  0.00    +0.000 S 
ATOM     14  N   UNL     1       6.444   5.147  19.285  0.00  0.00    +0.000 NA
ATOM     15  C   UNL     1       5.947   4.801  18.088  0.00  0.00    +0.000 A 
ENDBRANCH   4   7
ENDBRANCH   2   4
ENDBRANCH   1   2
BRANCH   1  16
ATOM     16  C   UNL     1       2.538   6.621  18.856  0.00  0.00    +0.000 C 
BRANCH  16  20
ATOM     17  C   UNL     1       0.840   9.890  21.176  0.00  0.00    +0.000 A 
ATOM     18  C   UNL     1       1.147   8.656  21.773  0.00  0.00    +0.000 A 
ATOM     19  C   UNL     1       1.679   7.599  21.022  0.00  0.00    +0.000 A 
ATOM     20  C   UNL     1       1.896   7.745  19.651  0.00  0.00    +0.000 A 
ATOM     21  C   UNL     1       1.510   8.959  19.057  0.00  0.00    +0.000 A 
ATOM     22  C   UNL     1       0.963  10.016  19.792  0.00  0.00    +0.000 A 
BRANCH  17  23
ATOM     23  O   UNL     1       0.447  10.986  21.898  0.00  0.00    +0.000 OA
BRANCH  23  25
ATOM     24  C   UNL     1      -1.378  12.185  22.870  0.00  0.00    +0.000 C 
ATOM     25  C   UNL     1      -0.736  10.824  22.683  0.00  0.00    +0.000 C 
ENDBRANCH  23  25
ENDBRANCH  17  23
BRANCH  22  26
ATOM     26  O   UNL     1       0.675  11.100  19.005  0.00  0.00    +0.000 OA
BRANCH  26  27
ATOM     27  C   UNL     1      -0.658  11.237  18.524  0.00  0.00    +0.000 C 
ATOM     28  C   UNL     1      -0.940  12.723  18.362  0.00  0.00    +0.000 C 
ENDBRANCH  26  27
ENDBRANCH  22  26
ENDBRANCH  16  20
ENDBRANCH   1  16
TORSDOF 9
ENDMDL
MODEL 3
REMARK VINA RESULT:      -7.2      1.686      2.147
REMARK  Name = 
REMARK  11 active torsions:
REMARK  status: ('A' for Active; 'I' for Inactive)
REMARK    1  A    between atoms: C_1  and  C_2
REMARK    2  A    between atoms: C_2  and  O_3
REMARK    3  A    between atoms: O_3  and  C_4
REMARK    4  A    between atoms: C_7  and  C_8
REMARK    5  A    between atoms: C_8  and  C_9
REMARK    6  A    between atoms: C_9  and  N_10
REMARK    7  A    between atoms: N_10  and  S_11
REMARK    8  A    between atoms: S_11  and  C_14
REMARK    9  A    between atoms: C_24  and  O_25
REMARK   10  A    between atoms: O_25  and  C_26
REMARK   11  A    between atoms: C_26  and  C_27
REMARK                            x       y       z     vdW  Elec       q    Type
REMARK                         _______ _______ _______ _____ _____    ______ ____
ROOT
ATOM      1  C   UNL     1       2.053   4.896  19.302  0.00  0.00    +0.000 C 
ENDROOT
BRANCH   1   2
ATOM      2  N   UNL     1       2.872   3.682  19.356  0.00  0.00    +0.000 NA
ATOM      3  H   UNL     1       2.510   2.867  19.849  0.00  0.00    +0.000 HD
BRANCH   2   4
ATOM      4  S   UNL     1       3.567   3.227  17.879  0.00  0.00    +0.000 S 
ATOM      5  O   UNL     1       3.872   1.816  17.972  0.00  0.00    +0.000 OA
ATOM      6  O   UNL     1       2.715   3.725  16.821  0.00  0.00    +0.000 OA
BRANCH   4   7
ATOM      7  C   UNL     1       5.077   4.115  17.822  0.00  0.00    +0.000 A 
ATOM      8  C   UNL     1       5.622   4.682  18.999  0.00  0.00    +0.000 A 
ATOM      9  C   UNL     1       6.795   5.472  19.002  0.00  0.00    +0.000 A 
ATOM     10  C   UNL     1       7.519   5.768  17.835  0.00  0.00    +0.000 A 
ATOM     11  C   UNL     1       7.020   5.215  16.631  0.00  0.00    +0.000 A 
ATOM     12  N   UNL     1       7.566   5.379  15.417  0.00  0.00    +0.000 NA
ATOM     13  S   UNL     1       6.608   4.541  14.353  0.00  0.00    +0.000 S 
ATOM     14  N   UNL     1       5.471   3.920  15.385  0.00  0.00    +0.000 NA
ATOM     15  C   UNL     1       5.771   4.360  16.617  0.00  0.00    +0.000 A 
ENDBRANCH   4   7
ENDBRANCH   2   4
ENDBRANCH   1   2
BRANCH   1  16
ATOM     16  C   UNL     1       2.572   6.034  20.180  0.00  0.00    +0.000 C 
BRANCH  16  20
ATOM     17  C   UNL     1       1.013   9.874  18.848  0.00  0.00    +0.000 A 
ATOM     18  C   UNL     1       1.825   9.088  18.014  0.00  0.00    +0.000 A 
ATOM     19  C   UNL     1       2.339   7.860  18.449  0.00  0.00    +0.000 A 
ATOM     20  C   UNL     1       2.070   7.398  19.739  0.00  0.00    +0.000 A 
ATOM     21  C   UNL     1       1.321   8.233  20.586  0.00  0.00    +0.000 A 
ATOM     22  C   UNL     1       0.816   9.469  20.168  0.00  0.00    +0.000 A 
BRANCH  17  23
ATOM     23  O   UNL     1       0.383  11.010  18.413  0.00  0.00    +0.000 OA
BRANCH  23  25
ATOM     24  C   UNL     1      -1.527   9.960  17.431  0.00  0.00    +0.000 C 
ATOM     25  C   UNL     1      -1.045  10.981  18.444  0.00  0.00    +0.000 C 
ENDBRANCH  23  25
ENDBRANCH  17  23
BRANCH  22  26
ATOM     26  O   UNL     1       0.109  10.100  21.157  0.00  0.00    +0.000 OA
BRANCH  26  27
ATOM     27  C   UNL     1      -0.580   9.288  22.103  0.00  0.00    +0.000 C 
ATOM     28  C   UNL     1      -0.123   9.709  23.492  0.00  0.00    +0.000 C 
ENDBRANCH  26  27
ENDBRANCH  22  26
ENDBRANCH  16  20
ENDBRANCH   1  16
TORSDOF 9
ENDMDL
MODEL 4
REMARK VINA RESULT:      -7.1      1.690      2.006
REMARK  Name = 
REMARK  11 active torsions:
REMARK  status: ('A' for Active; 'I' for Inactive)
REMARK    1  A    between atoms: C_1  and  C_2
REMARK    2  A    between atoms: C_2  and  O_3
REMARK    3  A    between atoms: O_3  and  C_4
REMARK    4  A    between atoms: C_7  and  C_8
REMARK    5  A    between atoms: C_8  and  C_9
REMARK    6  A    between atoms: C_9  and  N_10
REMARK    7  A    between atoms: N_10  and  S_11
REMARK    8  A    between atoms: S_11  and  C_14
REMARK    9  A    between atoms: C_24  and  O_25
REMARK   10  A    between atoms: O_25  and  C_26
REMARK   11  A    between atoms: C_26  and  C_27
REMARK                            x       y       z     vdW  Elec       q    Type
REMARK                         _______ _______ _______ _____ _____    ______ ____
ROOT
ATOM      1  C   UNL     1       2.101   4.183  19.780  0.00  0.00    +0.000 C 
ENDROOT
BRANCH   1   2
ATOM      2  N   UNL     1       3.399   3.623  19.394  0.00  0.00    +0.000 NA
ATOM      3  H   UNL     1       3.891   3.023  20.054  0.00  0.00    +0.000 HD
BRANCH   2   4
ATOM      4  S   UNL     1       3.453   2.964  17.833  0.00  0.00    +0.000 S 
ATOM      5  O   UNL     1       3.885   1.590  17.968  0.00  0.00    +0.000 OA
ATOM      6  O   UNL     1       2.200   3.277  17.182  0.00  0.00    +0.000 OA
BRANCH   4   7
ATOM      7  C   UNL     1       4.722   3.865  17.028  0.00  0.00    +0.000 A 
ATOM      8  C   UNL     1       4.794   3.900  15.616  0.00  0.00    +0.000 A 
ATOM      9  C   UNL     1       5.837   4.546  14.912  0.00  0.00    +0.000 A 
ATOM     10  C   UNL     1       6.897   5.205  15.555  0.00  0.00    +0.000 A 
ATOM     11  C   UNL     1       6.865   5.209  16.971  0.00  0.00    +0.000 A 
ATOM     12  N   UNL     1       7.780   5.784  17.766  0.00  0.00    +0.000 NA
ATOM     13  S   UNL     1       7.291   5.502  19.326  0.00  0.00    +0.000 S 
ATOM     14  N   UNL     1       5.891   4.656  19.063  0.00  0.00    +0.000 NA
ATOM     15  C   UNL     1       5.749   4.529  17.734  0.00  0.00    +0.000 A 
ENDBRANCH   4   7
ENDBRANCH   2   4
ENDBRANCH   1   2
BRANCH   1  16
ATOM     16  C   UNL     1       2.196   5.327  20.789  0.00  0.00    +0.000 C 
BRANCH  16  20
ATOM     17  C   UNL     1       1.533   9.191  18.896  0.00  0.00    +0.000 A 
ATOM     18  C   UNL     1       2.218   8.161  18.230  0.00  0.00    +0.000 A 
ATOM     19  C   UNL     1       2.444   6.924  18.846  0.00  0.00    +0.000 A 
ATOM     20  C   UNL     1       2.009   6.694  20.153  0.00  0.00    +0.000 A 
ATOM     21  C   UNL     1       1.396   7.761  20.831  0.00  0.00    +0.000 A 
ATOM     22  C   UNL     1       1.178   9.007  20.232  0.00  0.00    +0.000 A 
BRANCH  17  23
ATOM     23  O   UNL     1       1.175  10.362  18.282  0.00  0.00    +0.000 OA
BRANCH  23  25
ATOM     24  C   UNL     1       1.574  12.694  18.619  0.00  0.00    +0.000 C 
ATOM     25  C   UNL     1       2.188  11.367  18.217  0.00  0.00    +0.000 C 
ENDBRANCH  23  25
ENDBRANCH  17  23
BRANCH  22  26
ATOM     26  O   UNL     1       0.555   9.885  21.079  0.00  0.00    +0.000 OA
BRANCH  26  27
ATOM     27  C   UNL     1       0.529   9.567  22.466  0.00  0.00    +0.000 C 
ATOM     28  C   UNL     1      -0.754  10.142  23.047  0.00  0.00    +0.000 C 
ENDBRANCH  26  27
ENDBRANCH  22  26
ENDBRANCH  16  20
ENDBRANCH   1  16
TORSDOF 9
ENDMDL
MODEL 5
REMARK VINA RESULT:      -7.0      4.403      9.172
REMARK  Name = 
REMARK  11 active torsions:
REMARK  status: ('A' for Active; 'I' for Inactive)
REMARK    1  A    between atoms: C_1  and  C_2
REMARK    2  A    between atoms: C_2  and  O_3
REMARK    3  A    between atoms: O_3  and  C_4
REMARK    4  A    between atoms: C_7  and  C_8
REMARK    5  A    between atoms: C_8  and  C_9
REMARK    6  A    between atoms: C_9  and  N_10
REMARK    7  A    between atoms: N_10  and  S_11
REMARK    8  A    between atoms: S_11  and  C_14
REMARK    9  A    between atoms: C_24  and  O_25
REMARK   10  A    between atoms: O_25  and  C_26
REMARK   11  A    between atoms: C_26  and  C_27
REMARK                            x       y       z     vdW  Elec       q    Type
REMARK                         _______ _______ _______ _____ _____    ______ ____
ROOT
ATOM      1  C   UNL     1       2.365   8.981  17.890  0.00  0.00    +0.000 C 
ENDROOT
BRANCH   1   2
ATOM      2  N   UNL     1       0.968   9.349  17.651  0.00  0.00    +0.000 NA
ATOM      3  H   UNL     1       0.297   8.615  17.429  0.00  0.00    +0.000 HD
BRANCH   2   4
ATOM      4  S   UNL     1       0.316  10.433  18.780  0.00  0.00    +0.000 S 
ATOM      5  O   UNL     1       0.354   9.776  20.068  0.00  0.00    +0.000 OA
ATOM      6  O   UNL     1       0.968  11.710  18.589  0.00  0.00    +0.000 OA
BRANCH   4   7
ATOM      7  C   UNL     1      -1.360  10.602  18.297  0.00  0.00    +0.000 A 
ATOM      8  C   UNL     1      -1.836   9.976  17.120  0.00  0.00    +0.000 A 
ATOM      9  C   UNL     1      -3.156  10.138  16.640  0.00  0.00    +0.000 A 
ATOM     10  C   UNL     1      -4.109  10.942  17.286  0.00  0.00    +0.000 A 
ATOM     11  C   UNL     1      -3.686  11.583  18.475  0.00  0.00    +0.000 A 
ATOM     12  N   UNL     1      -4.444  12.387  19.235  0.00  0.00    +0.000 NA
ATOM     13  S   UNL     1      -3.487  12.881  20.498  0.00  0.00    +0.000 S 
ATOM     14  N   UNL     1      -2.078  12.084  20.146  0.00  0.00    +0.000 NA
ATOM     15  C   UNL     1      -2.278  11.409  19.004  0.00  0.00    +0.000 A 
ENDBRANCH   4   7
ENDBRANCH   2   4
ENDBRANCH   1   2
BRANCH   1  16
ATOM     16  C   UNL     1       2.541   7.638  18.598  0.00  0.00    +0.000 C 
BRANCH  16  20
ATOM     17  C   UNL     1       5.085   4.841  16.440  0.00  0.00    +0.000 A 
ATOM     18  C   UNL     1       5.220   6.229  16.271  0.00  0.00    +0.000 A 
ATOM     19  C   UNL     1       4.391   7.128  16.954  0.00  0.00    +0.000 A 
ATOM     20  C   UNL     1       3.390   6.658  17.807  0.00  0.00    +0.000 A 
ATOM     21  C   UNL     1       3.218   5.266  17.903  0.00  0.00    +0.000 A 
ATOM     22  C   UNL     1       4.029   4.359  17.214  0.00  0.00    +0.000 A 
BRANCH  17  23
ATOM     23  O   UNL     1       5.961   3.939  15.897  0.00  0.00    +0.000 OA
BRANCH  23  25
ATOM     24  C   UNL     1       6.130   3.777  13.518  0.00  0.00    +0.000 C 
ATOM     25  C   UNL     1       6.713   4.399  14.773  0.00  0.00    +0.000 C 
ENDBRANCH  23  25
ENDBRANCH  17  23
BRANCH  22  26
ATOM     26  O   UNL     1       3.684   3.059  17.470  0.00  0.00    +0.000 OA
BRANCH  26  27
ATOM     27  C   UNL     1       2.303   2.760  17.648  0.00  0.00    +0.000 C 
ATOM     28  C   UNL     1       2.158   2.024  18.972  0.00  0.00    +0.000 C 
ENDBRANCH  26  27
ENDBRANCH  22  26
ENDBRANCH  16  20
ENDBRANCH   1  16
TORSDOF 9
ENDMDL
MODEL 6
REMARK VINA RESULT:      -7.0      1.629      2.012
REMARK  Name = 
REMARK  11 active torsions:
REMARK  status: ('A' for Active; 'I' for Inactive)
REMARK    1  A    between atoms: C_1  and  C_2
REMARK    2  A    between atoms: C_2  and  O_3
REMARK    3  A    between atoms: O_3  and  C_4
REMARK    4  A    between atoms: C_7  and  C_8
REMARK    5  A    between atoms: C_8  and  C_9
REMARK    6  A    between atoms: C_9  and  N_10
REMARK    7  A    between atoms: N_10  and  S_11
REMARK    8  A    between atoms: S_11  and  C_14
REMARK    9  A    between atoms: C_24  and  O_25
REMARK   10  A    between atoms: O_25  and  C_26
REMARK   11  A    between atoms: C_26  and  C_27
REMARK                            x       y       z     vdW  Elec       q    Type
REMARK                         _______ _______ _______ _____ _____    ______ ____
ROOT
ATOM      1  C   UNL     1       2.064   5.719  18.387  0.00  0.00    +0.000 C 
ENDROOT
BRANCH   1   2
ATOM      2  N   UNL     1       2.494   4.531  17.645  0.00  0.00    +0.000 NA
ATOM      3  H   UNL     1       2.743   4.629  16.662  0.00  0.00    +0.000 HD
BRANCH   2   4
ATOM      4  S   UNL     1       3.621   3.557  18.454  0.00  0.00    +0.000 S 
ATOM      5  O   UNL     1       3.292   3.610  19.862  0.00  0.00    +0.000 OA
ATOM      6  O   UNL     1       3.679   2.288  17.764  0.00  0.00    +0.000 OA
BRANCH   4   7
ATOM      7  C   UNL     1       5.150   4.377  18.214  0.00  0.00    +0.000 A 
ATOM      8  C   UNL     1       5.845   4.939  19.311  0.00  0.00    +0.000 A 
ATOM      9  C   UNL     1       7.043   5.677  19.169  0.00  0.00    +0.000 A 
ATOM     10  C   UNL     1       7.646   5.921  17.924  0.00  0.00    +0.000 A 
ATOM     11  C   UNL     1       6.995   5.369  16.794  0.00  0.00    +0.000 A 
ATOM     12  N   UNL     1       7.411   5.488  15.525  0.00  0.00    +0.000 NA
ATOM     13  S   UNL     1       6.308   4.674  14.590  0.00  0.00    +0.000 S 
ATOM     14  N   UNL     1       5.266   4.122  15.753  0.00  0.00    +0.000 NA
ATOM     15  C   UNL     1       5.718   4.570  16.935  0.00  0.00    +0.000 A 
ENDBRANCH   4   7
ENDBRANCH   2   4
ENDBRANCH   1   2
BRANCH   1  16
ATOM     16  C   UNL     1       2.971   6.934  18.191  0.00  0.00    +0.000 C 
BRANCH  16  20
ATOM     17  C   UNL     1       0.874  10.661  19.006  0.00  0.00    +0.000 A 
ATOM     18  C   UNL     1       1.781  10.553  17.939  0.00  0.00    +0.000 A 
ATOM     19  C   UNL     1       2.467   9.358  17.687  0.00  0.00    +0.000 A 
ATOM     20  C   UNL     1       2.278   8.247  18.511  0.00  0.00    +0.000 A 
ATOM     21  C   UNL     1       1.428   8.397  19.620  0.00  0.00    +0.000 A 
ATOM     22  C   UNL     1       0.749   9.590  19.892  0.00  0.00    +0.000 A 
BRANCH  17  23
ATOM     23  O   UNL     1       0.087  11.764  19.203  0.00  0.00    +0.000 OA
BRANCH  23  25
ATOM     24  C   UNL     1      -2.271  12.031  19.487  0.00  0.00    +0.000 C 
ATOM     25  C   UNL     1      -1.154  11.778  18.494  0.00  0.00    +0.000 C 
ENDBRANCH  23  25
ENDBRANCH  17  23
BRANCH  22  26
ATOM     26  O   UNL     1      -0.029   9.498  21.015  0.00  0.00    +0.000 OA
BRANCH  26  27
ATOM     27  C   UNL     1       0.590   9.058  22.219  0.00  0.00    +0.000 C 
ATOM     28  C   UNL     1      -0.190   9.653  23.383  0.00  0.00    +0.000 C 
ENDBRANCH  26  27
ENDBRANCH  22  26
ENDBRANCH  16  20
ENDBRANCH   1  16
TORSDOF 9
ENDMDL
MODEL 7
REMARK VINA RESULT:      -6.9      5.925      7.574
REMARK  Name = 
REMARK  11 active torsions:
REMARK  status: ('A' for Active; 'I' for Inactive)
REMARK    1  A    between atoms: C_1  and  C_2
REMARK    2  A    between atoms: C_2  and  O_3
REMARK    3  A    between atoms: O_3  and  C_4
REMARK    4  A    between atoms: C_7  and  C_8
REMARK    5  A    between atoms: C_8  and  C_9
REMARK    6  A    between atoms: C_9  and  N_10
REMARK    7  A    between atoms: N_10  and  S_11
REMARK    8  A    between atoms: S_11  and  C_14
REMARK    9  A    between atoms: C_24  and  O_25
REMARK   10  A    between atoms: O_25  and  C_26
REMARK   11  A    between atoms: C_26  and  C_27
REMARK                            x       y       z     vdW  Elec       q    Type
REMARK                         _______ _______ _______ _____ _____    ______ ____
ROOT
ATOM      1  C   UNL     1       8.208   8.009  18.361  0.00  0.00    +0.000 C 
ENDROOT
BRANCH   1   2
ATOM      2  N   UNL     1       7.675   6.950  17.500  0.00  0.00    +0.000 NA
ATOM      3  H   UNL     1       8.128   6.769  16.606  0.00  0.00    +0.000 HD
BRANCH   2   4
ATOM      4  S   UNL     1       7.324   5.496  18.298  0.00  0.00    +0.000 S 
ATOM      5  O   UNL     1       7.860   4.427  17.484  0.00  0.00    +0.000 OA
ATOM      6  O   UNL     1       7.733   5.643  19.677  0.00  0.00    +0.000 OA
BRANCH   4   7
ATOM      7  C   UNL     1       5.575   5.395  18.260  0.00  0.00    +0.000 A 
ATOM      8  C   UNL     1       4.809   6.419  17.652  0.00  0.00    +0.000 A 
ATOM      9  C   UNL     1       3.395   6.430  17.658  0.00  0.00    +0.000 A 
ATOM     10  C   UNL     1       2.626   5.428  18.273  0.00  0.00    +0.000 A 
ATOM     11  C   UNL     1       3.346   4.375  18.886  0.00  0.00    +0.000 A 
ATOM     12  N   UNL     1       2.798   3.328  19.522  0.00  0.00    +0.000 NA
ATOM     13  S   UNL     1       4.058   2.392  20.060  0.00  0.00    +0.000 S 
ATOM     14  N   UNL     1       5.350   3.262  19.497  0.00  0.00    +0.000 NA
ATOM     15  C   UNL     1       4.859   4.347  18.878  0.00  0.00    +0.000 A 
ENDBRANCH   4   7
ENDBRANCH   2   4
ENDBRANCH   1   2
BRANCH   1  16
ATOM     16  C   UNL     1       8.387   9.352  17.652  0.00  0.00    +0.000 C 
BRANCH  16  20
ATOM     17  C   UNL     1      10.352  12.398  20.064  0.00  0.00    +0.000 A 
ATOM     18  C   UNL     1      10.577  12.306  18.680  0.00  0.00    +0.000 A 
ATOM     19  C   UNL     1       9.957  11.316  17.908  0.00  0.00    +0.000 A 
ATOM     20  C   UNL     1       9.112  10.379  18.506  0.00  0.00    +0.000 A 
ATOM     21  C   UNL     1       8.959  10.438  19.902  0.00  0.00    +0.000 A 
ATOM     22  C   UNL     1       9.586  11.412  20.686  0.00  0.00    +0.000 A 
BRANCH  17  23
ATOM     23  O   UNL     1      10.830  13.430  20.826  0.00  0.00    +0.000 OA
BRANCH  23  25
ATOM     24  C   UNL     1      10.850  15.733  21.469  0.00  0.00    +0.000 C 
ATOM     25  C   UNL     1      10.039  14.620  20.832  0.00  0.00    +0.000 C 
ENDBRANCH  23  25
ENDBRANCH  17  23
BRANCH  22  26
ATOM     26  O   UNL     1       9.282  11.280  22.015  0.00  0.00    +0.000 OA
BRANCH  26  27
ATOM     27  C   UNL     1       8.092  11.901  22.490  0.00  0.00    +0.000 C 
ATOM     28  C   UNL     1       7.985  11.613  23.981  0.00  0.00    +0.000 C 
ENDBRANCH  26  27
ENDBRANCH  22  26
ENDBRANCH  16  20
ENDBRANCH   1  16
TORSDOF 9
ENDMDL
MODEL 8
REMARK VINA RESULT:      -6.9      1.169      1.309
REMARK  Name = 
REMARK  11 active torsions:
REMARK  status: ('A' for Active; 'I' for Inactive)
REMARK    1  A    between atoms: C_1  and  C_2
REMARK    2  A    between atoms: C_2  and  O_3
REMARK    3  A    between atoms: O_3  and  C_4
REMARK    4  A    between atoms: C_7  and  C_8
REMARK    5  A    between atoms: C_8  and  C_9
REMARK    6  A    between atoms: C_9  and  N_10
REMARK    7  A    between atoms: N_10  and  S_11
REMARK    8  A    between atoms: S_11  and  C_14
REMARK    9  A    between atoms: C_24  and  O_25
REMARK   10  A    between atoms: O_25  and  C_26
REMARK   11  A    between atoms: C_26  and  C_27
REMARK                            x       y       z     vdW  Elec       q    Type
REMARK                         _______ _______ _______ _____ _____    ______ ____
ROOT
ATOM      1  C   UNL     1       2.318   5.055  18.201  0.00  0.00    +0.000 C 
ENDROOT
BRANCH   1   2
ATOM      2  N   UNL     1       2.256   3.626  18.516  0.00  0.00    +0.000 NA
ATOM      3  H   UNL     1       1.554   3.051  18.052  0.00  0.00    +0.000 HD
BRANCH   2   4
ATOM      4  S   UNL     1       3.755   2.837  18.538  0.00  0.00    +0.000 S 
ATOM      5  O   UNL     1       4.270   2.945  19.886  0.00  0.00    +0.000 OA
ATOM      6  O   UNL     1       3.577   1.539  17.925  0.00  0.00    +0.000 OA
BRANCH   4   7
ATOM      7  C   UNL     1       4.766   3.802  17.482  0.00  0.00    +0.000 A 
ATOM      8  C   UNL     1       4.571   3.778  16.081  0.00  0.00    +0.000 A 
ATOM      9  C   UNL     1       5.403   4.475  15.173  0.00  0.00    +0.000 A 
ATOM     10  C   UNL     1       6.500   5.248  15.585  0.00  0.00    +0.000 A 
ATOM     11  C   UNL     1       6.733   5.314  16.980  0.00  0.00    +0.000 A 
ATOM     12  N   UNL     1       7.724   5.998  17.571  0.00  0.00    +0.000 NA
ATOM     13  S   UNL     1       7.561   5.749  19.203  0.00  0.00    +0.000 S 
ATOM     14  N   UNL     1       6.218   4.779  19.234  0.00  0.00    +0.000 NA
ATOM     15  C   UNL     1       5.843   4.580  17.961  0.00  0.00    +0.000 A 
ENDBRANCH   4   7
ENDBRANCH   2   4
ENDBRANCH   1   2
BRANCH   1  16
ATOM     16  C   UNL     1       2.614   5.944  19.410  0.00  0.00    +0.000 C 
BRANCH  16  20
ATOM     17  C   UNL     1       1.167  10.004  18.798  0.00  0.00    +0.000 A 
ATOM     18  C   UNL     1       1.765   9.279  17.754  0.00  0.00    +0.000 A 
ATOM     19  C   UNL     1       2.244   7.978  17.956  0.00  0.00    +0.000 A 
ATOM     20  C   UNL     1       2.156   7.379  19.215  0.00  0.00    +0.000 A 
ATOM     21  C   UNL     1       1.626   8.149  20.265  0.00  0.00    +0.000 A 
ATOM     22  C   UNL     1       1.159   9.454  20.080  0.00  0.00    +0.000 A 
BRANCH  17  23
ATOM     23  O   UNL     1       0.566  11.220  18.607  0.00  0.00    +0.000 OA
BRANCH  23  25
ATOM     24  C   UNL     1      -1.442  12.436  19.055  0.00  0.00    +0.000 C 
ATOM     25  C   UNL     1      -0.850  11.193  18.419  0.00  0.00    +0.000 C 
ENDBRANCH  23  25
ENDBRANCH  17  23
BRANCH  22  26
ATOM     26  O   UNL     1       0.678  10.000  21.240  0.00  0.00    +0.000 OA
BRANCH  26  27
ATOM     27  C   UNL     1       0.937   9.310  22.458  0.00  0.00    +0.000 C 
ATOM     28  C   UNL     1      -0.244   9.552  23.386  0.00  0.00    +0.000 C 
ENDBRANCH  26  27
ENDBRANCH  22  26
ENDBRANCH  16  20
ENDBRANCH   1  16
TORSDOF 9
ENDMDL
MODEL 9
REMARK VINA RESULT:      -6.9      3.627      8.137
REMARK  Name = 
REMARK  11 active torsions:
REMARK  status: ('A' for Active; 'I' for Inactive)
REMARK    1  A    between atoms: C_1  and  C_2
REMARK    2  A    between atoms: C_2  and  O_3
REMARK    3  A    between atoms: O_3  and  C_4
REMARK    4  A    between atoms: C_7  and  C_8
REMARK    5  A    between atoms: C_8  and  C_9
REMARK    6  A    between atoms: C_9  and  N_10
REMARK    7  A    between atoms: N_10  and  S_11
REMARK    8  A    between atoms: S_11  and  C_14
REMARK    9  A    between atoms: C_24  and  O_25
REMARK   10  A    between atoms: O_25  and  C_26
REMARK   11  A    between atoms: C_26  and  C_27
REMARK                            x       y       z     vdW  Elec       q    Type
REMARK                         _______ _______ _______ _____ _____    ______ ____
ROOT
ATOM      1  C   UNL     1       1.737   7.598  20.593  0.00  0.00    +0.000 C 
ENDROOT
BRANCH   1   2
ATOM      2  N   UNL     1       1.719   8.704  21.554  0.00  0.00    +0.000 NA
ATOM      3  H   UNL     1       2.371   9.477  21.426  0.00  0.00    +0.000 HD
BRANCH   2   4
ATOM      4  S   UNL     1       0.174   9.284  21.942  0.00  0.00    +0.000 S 
ATOM      5  O   UNL     1      -0.739   8.168  21.819  0.00  0.00    +0.000 OA
ATOM      6  O   UNL     1       0.279  10.010  23.189  0.00  0.00    +0.000 OA
BRANCH   4   7
ATOM      7  C   UNL     1      -0.186  10.436  20.672  0.00  0.00    +0.000 A 
ATOM      8  C   UNL     1      -1.244  10.196  19.764  0.00  0.00    +0.000 A 
ATOM      9  C   UNL     1      -1.534  11.050  18.674  0.00  0.00    +0.000 A 
ATOM     10  C   UNL     1      -0.791  12.209  18.395  0.00  0.00    +0.000 A 
ATOM     11  C   UNL     1       0.273  12.500  19.283  0.00  0.00    +0.000 A 
ATOM     12  N   UNL     1       1.095  13.556  19.189  0.00  0.00    +0.000 NA
ATOM     13  S   UNL     1       2.162  13.436  20.455  0.00  0.00    +0.000 S 
ATOM     14  N   UNL     1       1.619  12.052  21.185  0.00  0.00    +0.000 NA
ATOM     15  C   UNL     1       0.586  11.598  20.458  0.00  0.00    +0.000 A 
ENDBRANCH   4   7
ENDBRANCH   2   4
ENDBRANCH   1   2
BRANCH   1  16
ATOM     16  C   UNL     1       2.033   8.030  19.157  0.00  0.00    +0.000 C 
BRANCH  16  20
ATOM     17  C   UNL     1       4.574   5.162  17.089  0.00  0.00    +0.000 A 
ATOM     18  C   UNL     1       4.663   6.539  16.824  0.00  0.00    +0.000 A 
ATOM     19  C   UNL     1       3.834   7.459  17.479  0.00  0.00    +0.000 A 
ATOM     20  C   UNL     1       2.880   7.021  18.399  0.00  0.00    +0.000 A 
ATOM     21  C   UNL     1       2.751   5.635  18.593  0.00  0.00    +0.000 A 
ATOM     22  C   UNL     1       3.562   4.705  17.934  0.00  0.00    +0.000 A 
BRANCH  17  23
ATOM     23  O   UNL     1       5.454   4.249  16.573  0.00  0.00    +0.000 OA
BRANCH  23  25
ATOM     24  C   UNL     1       7.564   4.591  17.644  0.00  0.00    +0.000 C 
ATOM     25  C   UNL     1       6.784   4.722  16.350  0.00  0.00    +0.000 C 
ENDBRANCH  23  25
ENDBRANCH  17  23
BRANCH  22  26
ATOM     26  O   UNL     1       3.264   3.416  18.289  0.00  0.00    +0.000 OA
BRANCH  26  27
ATOM     27  C   UNL     1       1.990   2.901  17.915  0.00  0.00    +0.000 C 
ATOM     28  C   UNL     1       1.320   2.371  19.174  0.00  0.00    +0.000 C 
ENDBRANCH  26  27
ENDBRANCH  22  26
ENDBRANCH  16  20
ENDBRANCH   1  16
TORSDOF 9
ENDMDL
