MODEL 1
REMARK VINA RESULT:      -7.9      0.000      0.000
REMARK  Name = 
REMARK  10 active torsions:
REMARK  status: ('A' for Active; 'I' for Inactive)
REMARK    1  A    between atoms: C_1  and  C_2
REMARK    2  A    between atoms: C_5  and  C_6
REMARK    3  A    between atoms: C_6  and  N_7
REMARK    4  A    between atoms: C_8  and  C_10
REMARK    5  A    between atoms: C_12  and  C_13
REMARK    6  A    between atoms: C_13  and  C_14
REMARK    7  A    between atoms: C_14  and  N_15
REMARK    8  A    between atoms: N_15  and  C_16
REMARK    9  A    between atoms: C_16  and  C_17
REMARK   10  A    between atoms: C_17  and  C_18
REMARK                            x       y       z     vdW  Elec       q    Type
REMARK                         _______ _______ _______ _____ _____    ______ ____
ROOT
ATOM      1  C   UNL     1       1.308   8.527  19.961  0.00  0.00    +0.000 A 
ATOM      2  N   UNL     1       1.172   7.352  21.041  0.00  0.00    +0.000 NA
ATOM      3  C   UNL     1       1.851   6.235  20.642  0.00  0.00    +0.000 A 
ATOM      4  S   UNL     1       2.618   6.508  19.161  0.00  0.00    +0.000 S 
ATOM      5  C   UNL     1       2.101   8.052  18.963  0.00  0.00    +0.000 A 
ATOM      6 CL   UNL     1       2.698   8.702  17.509  0.00  0.00    +0.000 Cl
ENDROOT
BRANCH   1   8
ATOM      7  N   UNL     1       1.037  10.897  20.956  0.00  0.00    +0.000 N 
ATOM      8  C   UNL     1       0.800  10.004  19.873  0.00  0.00    +0.000 C 
ATOM      9  O   UNL     1       0.147  10.408  18.910  0.00  0.00    +0.000 OA
ATOM     10  H   UNL     1       1.594  10.662  21.776  0.00  0.00    +0.000 HD
BRANCH   7  11
ATOM     11  C   UNL     1       0.530  12.294  20.968  0.00  0.00    +0.000 C 
BRANCH  11  16
ATOM     12  C   UNL     1      -4.431  12.767  23.720  0.00  0.00    +0.000 C 
ATOM     13  C   UNL     1      -3.170  12.662  22.947  0.00  0.00    +0.000 A 
ATOM     14  C   UNL     1      -3.063  12.803  21.587  0.00  0.00    +0.000 A 
ATOM     15  N   UNL     1      -1.897  12.706  20.920  0.00  0.00    +0.000 NA
ATOM     16  C   UNL     1      -0.802  12.444  21.666  0.00  0.00    +0.000 A 
ATOM     17  N   UNL     1      -0.797  12.294  23.004  0.00  0.00    +0.000 NA
ATOM     18  C   UNL     1      -1.990  12.413  23.596  0.00  0.00    +0.000 A 
ENDBRANCH  11  16
ENDBRANCH   7  11
ENDBRANCH   1   8
BRANCH   3  19
ATOM     19  C   UNL     1       2.166   4.757  21.105  0.00  0.00    +0.000 C 
BRANCH  19  20
ATOM     20  C   UNL     1       1.259   3.613  20.482  0.00  0.00    +0.000 C 
BRANCH  20  21
ATOM     21  N   UNL     1       1.612   3.336  19.092  0.00  0.00    +0.000 NA
ATOM     22  H   UNL     1       2.401   3.921  18.821  0.00  0.00    +0.000 HD
BRANCH  21  23
ATOM     23  C   UNL     1       1.971   1.932  18.935  0.00  0.00    +0.000 C 
BRANCH  23  24
ATOM     24  C   UNL     1       3.203   1.777  18.080  0.00  0.00    +0.000 C 
BRANCH  24  25
ATOM     25  C   UNL     1       4.128   2.970  18.141  0.00  0.00    +0.000 A 
ATOM     26  N   UNL     1       4.183   3.797  17.129  0.00  0.00    +0.000 NA
ATOM     27  C   UNL     1       5.147   4.685  17.317  0.00  0.00    +0.000 A 
ATOM     28  C   UNL     1       5.491   5.675  16.378  0.00  0.00    +0.000 A 
ATOM     29  C   UNL     1       6.529   6.411  16.980  0.00  0.00    +0.000 A 
ATOM     30  C   UNL     1       7.513   7.132  17.496  0.00  0.00    +0.000 A 
ATOM     31  C   UNL     1       6.974   5.727  18.696  0.00  0.00    +0.000 A 
ATOM     32  C   UNL     1       5.811   4.559  18.535  0.00  0.00    +0.000 A 
ATOM     33  N   UNL     1       5.086   3.353  19.121  0.00  0.00    +0.000 N 
ATOM     34  H   UNL     1       5.173   2.808  20.002  0.00  0.00    +0.000 HD
ENDBRANCH  24  25
ENDBRANCH  23  24
ENDBRANCH  21  23
ENDBRANCH  20  21
ENDBRANCH  19  20
ENDBRANCH   3  19
TORSDOF 9
ENDMDL
MODEL 2
REMARK VINA RESULT:      -7.8      1.028      1.418
REMARK  Name = 
REMARK  10 active torsions:
REMARK  status: ('A' for Active; 'I' for Inactive)
REMARK    1  A    between atoms: C_1  and  C_2
REMARK    2  A    between atoms: C_5  and  C_6
REMARK    3  A    between atoms: C_6  and  N_7
REMARK    4  A    between atoms: C_8  and  C_10
REMARK    5  A    between atoms: C_12  and  C_13
REMARK    6  A    between atoms: C_13  and  C_14
REMARK    7  A    between atoms: C_14  and  N_15
REMARK    8  A    between atoms: N_15  and  C_16
REMARK    9  A    between atoms: C_16  and  C_17
REMARK   10  A    between atoms: C_17  and  C_18
REMARK                            x       y       z     vdW  Elec       q    Type
REMARK                         _______ _______ _______ _____ _____    ______ ____
ROOT
ATOM      1  C   UNL     1       1.113   9.058  20.327  0.00  0.00    +0.000 A 
ATOM      2  N   UNL     1       1.187   7.734  21.226  0.00  0.00    +0.000 NA
ATOM      3  C   UNL     1       1.806   6.717  20.554  0.00  0.00    +0.000 A 
ATOM      4  S   UNL     1       2.299   7.235  19.024  0.00  0.00    +0.000 S 
ATOM      5  C   UNL     1       1.729   8.768  19.150  0.00  0.00    +0.000 A 
ATOM      6 CL   UNL     1       2.053   9.648  17.731  0.00  0.00    +0.000 Cl
ENDROOT
BRANCH   1   8
ATOM      7  N   UNL     1      -0.655  10.905  19.945  0.00  0.00    +0.000 N 
ATOM      8  C   UNL     1       0.572  10.509  20.550  0.00  0.00    +0.000 C 
ATOM      9  O   UNL     1       1.206  11.345  21.195  0.00  0.00    +0.000 OA
ATOM     10  H   UNL     1      -1.262  10.275  19.423  0.00  0.00    +0.000 HD
BRANCH   7  11
ATOM     11  C   UNL     1      -1.198  12.284  20.063  0.00  0.00    +0.000 C 
BRANCH  11  16
ATOM     12  C   UNL     1      -4.998  12.744  24.275  0.00  0.00    +0.000 C 
ATOM     13  C   UNL     1      -4.055  12.646  23.135  0.00  0.00    +0.000 A 
ATOM     14  C   UNL     1      -4.381  12.858  21.820  0.00  0.00    +0.000 A 
ATOM     15  N   UNL     1      -3.493  12.764  20.811  0.00  0.00    +0.000 NA
ATOM     16  C   UNL     1      -2.230  12.433  21.156  0.00  0.00    +0.000 A 
ATOM     17  N   UNL     1      -1.806  12.211  22.414  0.00  0.00    +0.000 NA
ATOM     18  C   UNL     1      -2.742  12.331  23.361  0.00  0.00    +0.000 A 
ENDBRANCH  11  16
ENDBRANCH   7  11
ENDBRANCH   1   8
BRANCH   3  19
ATOM     19  C   UNL     1       2.222   5.203  20.730  0.00  0.00    +0.000 C 
BRANCH  19  20
ATOM     20  C   UNL     1       1.138   4.120  20.317  0.00  0.00    +0.000 C 
BRANCH  20  21
ATOM     21  N   UNL     1       1.399   3.567  18.991  0.00  0.00    +0.000 NA
ATOM     22  H   UNL     1       2.230   4.009  18.598  0.00  0.00    +0.000 HD
BRANCH  21  23
ATOM     23  C   UNL     1       1.611   2.127  19.079  0.00  0.00    +0.000 C 
BRANCH  23  24
ATOM     24  C   UNL     1       2.860   1.714  18.343  0.00  0.00    +0.000 C 
BRANCH  24  25
ATOM     25  C   UNL     1       3.736   2.880  17.947  0.00  0.00    +0.000 A 
ATOM     26  N   UNL     1       4.632   3.329  18.788  0.00  0.00    +0.000 NA
ATOM     27  C   UNL     1       5.191   4.432  18.313  0.00  0.00    +0.000 A 
ATOM     28  C   UNL     1       6.154   5.182  19.012  0.00  0.00    +0.000 A 
ATOM     29  C   UNL     1       6.497   6.240  18.149  0.00  0.00    +0.000 A 
ATOM     30  C   UNL     1       6.852   7.258  17.378  0.00  0.00    +0.000 A 
ATOM     31  C   UNL     1       5.515   6.169  16.524  0.00  0.00    +0.000 A 
ATOM     32  C   UNL     1       4.740   4.802  17.048  0.00  0.00    +0.000 A 
ATOM     33  N   UNL     1       3.719   3.702  16.785  0.00  0.00    +0.000 N 
ATOM     34  H   UNL     1       3.069   3.482  16.005  0.00  0.00    +0.000 HD
ENDBRANCH  24  25
ENDBRANCH  23  24
ENDBRANCH  21  23
ENDBRANCH  20  21
ENDBRANCH  19  20
ENDBRANCH   3  19
TORSDOF 9
ENDMDL
MODEL 3
REMARK VINA RESULT:      -7.7      1.572      1.850
REMARK  Name = 
REMARK  10 active torsions:
REMARK  status: ('A' for Active; 'I' for Inactive)
REMARK    1  A    between atoms: C_1  and  C_2
REMARK    2  A    between atoms: C_5  and  C_6
REMARK    3  A    between atoms: C_6  and  N_7
REMARK    4  A    between atoms: C_8  and  C_10
REMARK    5  A    between atoms: C_12  and  C_13
REMARK    6  A    between atoms: C_13  and  C_14
REMARK    7  A    between atoms: C_14  and  N_15
REMARK    8  A    between atoms: N_15  and  C_16
REMARK    9  A    between atoms: C_16  and  C_17
REMARK   10  A    between atoms: C_17  and  C_18
REMARK                            x       y       z     vdW  Elec       q    Type
REMARK                         _______ _______ _______ _____ _____    ______ ____
ROOT
ATOM      1  C   UNL     1       0.985   9.236  20.256  0.00  0.00    +0.000 A 
ATOM      2  N   UNL     1       1.023   7.965  21.231  0.00  0.00    +0.000 NA
ATOM      3  C   UNL     1       1.640   6.904  20.632  0.00  0.00    +0.000 A 
ATOM      4  S   UNL     1       2.172   7.326  19.084  0.00  0.00    +0.000 S 
ATOM      5  C   UNL     1       1.621   8.870  19.110  0.00  0.00    +0.000 A 
ATOM      6 CL   UNL     1       1.986   9.662  17.650  0.00  0.00    +0.000 Cl
ENDROOT
BRANCH   1   8
ATOM      7  N   UNL     1      -0.922  10.979  20.181  0.00  0.00    +0.000 N 
ATOM      8  C   UNL     1       0.460  10.704  20.383  0.00  0.00    +0.000 C 
ATOM      9  O   UNL     1       1.221  11.648  20.602  0.00  0.00    +0.000 OA
ATOM     10  H   UNL     1      -1.629  10.261  20.028  0.00  0.00    +0.000 HD
BRANCH   7  11
ATOM     11  C   UNL     1      -1.481  12.356  20.225  0.00  0.00    +0.000 C 
BRANCH  11  16
ATOM     12  C   UNL     1      -7.169  12.473  20.408  0.00  0.00    +0.000 C 
ATOM     13  C   UNL     1      -5.691  12.429  20.295  0.00  0.00    +0.000 A 
ATOM     14  C   UNL     1      -4.996  12.066  19.170  0.00  0.00    +0.000 A 
ATOM     15  N   UNL     1      -3.650  12.043  19.105  0.00  0.00    +0.000 NA
ATOM     16  C   UNL     1      -2.991  12.393  20.231  0.00  0.00    +0.000 A 
ATOM     17  N   UNL     1      -3.577  12.770  21.383  0.00  0.00    +0.000 NA
ATOM     18  C   UNL     1      -4.914  12.776  21.367  0.00  0.00    +0.000 A 
ENDBRANCH  11  16
ENDBRANCH   7  11
ENDBRANCH   1   8
BRANCH   3  19
ATOM     19  C   UNL     1       2.031   5.396  20.903  0.00  0.00    +0.000 C 
BRANCH  19  20
ATOM     20  C   UNL     1       1.560   4.339  19.817  0.00  0.00    +0.000 C 
BRANCH  20  21
ATOM     21  N   UNL     1       2.365   3.121  19.860  0.00  0.00    +0.000 NA
ATOM     22  H   UNL     1       2.168   2.616  20.724  0.00  0.00    +0.000 HD
BRANCH  21  23
ATOM     23  C   UNL     1       2.052   2.270  18.719  0.00  0.00    +0.000 C 
BRANCH  23  24
ATOM     24  C   UNL     1       3.223   2.173  17.774  0.00  0.00    +0.000 C 
BRANCH  24  25
ATOM     25  C   UNL     1       4.217   3.300  17.935  0.00  0.00    +0.000 A 
ATOM     26  N   UNL     1       4.072   4.394  17.233  0.00  0.00    +0.000 NA
ATOM     27  C   UNL     1       5.114   5.193  17.411  0.00  0.00    +0.000 A 
ATOM     28  C   UNL     1       5.278   6.421  16.746  0.00  0.00    +0.000 A 
ATOM     29  C   UNL     1       6.485   6.951  17.241  0.00  0.00    +0.000 A 
ATOM     30  C   UNL     1       7.617   7.492  17.668  0.00  0.00    +0.000 A 
ATOM     31  C   UNL     1       7.300   5.786  18.502  0.00  0.00    +0.000 A 
ATOM     32  C   UNL     1       6.054   4.711  18.319  0.00  0.00    +0.000 A 
ATOM     33  N   UNL     1       5.417   3.379  18.696  0.00  0.00    +0.000 N 
ATOM     34  H   UNL     1       5.685   2.595  19.324  0.00  0.00    +0.000 HD
ENDBRANCH  24  25
ENDBRANCH  23  24
ENDBRANCH  21  23
ENDBRANCH  20  21
ENDBRANCH  19  20
ENDBRANCH   3  19
TORSDOF 9
ENDMDL
MODEL 4
REMARK VINA RESULT:      -7.7      2.107      3.248
REMARK  Name = 
REMARK  10 active torsions:
REMARK  status: ('A' for Active; 'I' for Inactive)
REMARK    1  A    between atoms: C_1  and  C_2
REMARK    2  A    between atoms: C_5  and  C_6
REMARK    3  A    between atoms: C_6  and  N_7
REMARK    4  A    between atoms: C_8  and  C_10
REMARK    5  A    between atoms: C_12  and  C_13
REMARK    6  A    between atoms: C_13  and  C_14
REMARK    7  A    between atoms: C_14  and  N_15
REMARK    8  A    between atoms: N_15  and  C_16
REMARK    9  A    between atoms: C_16  and  C_17
REMARK   10  A    between atoms: C_17  and  C_18
REMARK                            x       y       z     vdW  Elec       q    Type
REMARK                         _______ _______ _______ _____ _____    ______ ____
ROOT
ATOM      1  C   UNL     1       1.464   7.729  20.621  0.00  0.00    +0.000 A 
ATOM      2  N   UNL     1       1.273   6.285  21.288  0.00  0.00    +0.000 NA
ATOM      3  C   UNL     1       1.748   5.298  20.470  0.00  0.00    +0.000 A 
ATOM      4  S   UNL     1       2.396   5.963  19.058  0.00  0.00    +0.000 S 
ATOM      5  C   UNL     1       2.081   7.530  19.425  0.00  0.00    +0.000 A 
ATOM      6 CL   UNL     1       2.617   8.557  18.180  0.00  0.00    +0.000 Cl
ENDROOT
BRANCH   1   8
ATOM      7  N   UNL     1       0.466  10.074  20.189  0.00  0.00    +0.000 N 
ATOM      8  C   UNL     1       1.159   9.196  21.070  0.00  0.00    +0.000 C 
ATOM      9  O   UNL     1       1.551   9.637  22.151  0.00  0.00    +0.000 OA
ATOM     10  H   UNL     1       0.076   9.790  19.292  0.00  0.00    +0.000 HD
BRANCH   7  11
ATOM     11  C   UNL     1       0.197  11.498  20.524  0.00  0.00    +0.000 C 
BRANCH  11  16
ATOM     12  C   UNL     1       4.280  14.963  18.597  0.00  0.00    +0.000 C 
ATOM     13  C   UNL     1       3.227  14.085  19.161  0.00  0.00    +0.000 A 
ATOM     14  C   UNL     1       2.936  13.957  20.495  0.00  0.00    +0.000 A 
ATOM     15  N   UNL     1       1.966  13.150  20.968  0.00  0.00    +0.000 NA
ATOM     16  C   UNL     1       1.276  12.441  20.048  0.00  0.00    +0.000 A 
ATOM     17  N   UNL     1       1.478  12.499  18.719  0.00  0.00    +0.000 NA
ATOM     18  C   UNL     1       2.451  13.327  18.325  0.00  0.00    +0.000 A 
ENDBRANCH  11  16
ENDBRANCH   7  11
ENDBRANCH   1   8
BRANCH   3  19
ATOM     19  C   UNL     1       1.899   3.726  20.400  0.00  0.00    +0.000 C 
BRANCH  19  20
ATOM     20  C   UNL     1       0.772   2.944  19.601  0.00  0.00    +0.000 C 
BRANCH  20  21
ATOM     21  N   UNL     1       1.336   2.112  18.541  0.00  0.00    +0.000 NA
ATOM     22  H   UNL     1       1.319   2.628  17.662  0.00  0.00    +0.000 HD
BRANCH  21  23
ATOM     23  C   UNL     1       2.709   1.747  18.864  0.00  0.00    +0.000 C 
BRANCH  23  24
ATOM     24  C   UNL     1       3.629   1.997  17.696  0.00  0.00    +0.000 C 
BRANCH  24  25
ATOM     25  C   UNL     1       4.515   3.208  17.880  0.00  0.00    +0.000 A 
ATOM     26  N   UNL     1       4.571   4.116  16.940  0.00  0.00    +0.000 NA
ATOM     27  C   UNL     1       5.502   5.014  17.227  0.00  0.00    +0.000 A 
ATOM     28  C   UNL     1       5.840   6.086  16.382  0.00  0.00    +0.000 A 
ATOM     29  C   UNL     1       6.837   6.800  17.071  0.00  0.00    +0.000 A 
ATOM     30  C   UNL     1       7.783   7.506  17.674  0.00  0.00    +0.000 A 
ATOM     31  C   UNL     1       7.256   5.993  18.740  0.00  0.00    +0.000 A 
ATOM     32  C   UNL     1       6.136   4.808  18.451  0.00  0.00    +0.000 A 
ATOM     33  N   UNL     1       5.433   3.538  18.917  0.00  0.00    +0.000 N 
ATOM     34  H   UNL     1       5.513   2.926  19.753  0.00  0.00    +0.000 HD
ENDBRANCH  24  25
ENDBRANCH  23  24
ENDBRANCH  21  23
ENDBRANCH  20  21
ENDBRANCH  19  20
ENDBRANCH   3  19
TORSDOF 9
ENDMDL
MODEL 5
REMARK VINA RESULT:      -7.6      2.527      4.296
REMARK  Name = 
REMARK  10 active torsions:
REMARK  status: ('A' for Active; 'I' for Inactive)
REMARK    1  A    between atoms: C_1  and  C_2
REMARK    2  A    between atoms: C_5  and  C_6
REMARK    3  A    between atoms: C_6  and  N_7
REMARK    4  A    between atoms: C_8  and  C_10
REMARK    5  A    between atoms: C_12  and  C_13
REMARK    6  A    between atoms: C_13  and  C_14
REMARK    7  A    between atoms: C_14  and  N_15
REMARK    8  A    between atoms: N_15  and  C_16
REMARK    9  A    between atoms: C_16  and  C_17
REMARK   10  A    between atoms: C_17  and  C_18
REMARK                            x       y       z     vdW  Elec       q    Type
REMARK                         _______ _______ _______ _____ _____    ______ ____
ROOT
ATOM      1  C   UNL     1       1.450   9.359  18.923  0.00  0.00    +0.000 A 
ATOM      2  N   UNL     1       2.341   9.097  17.618  0.00  0.00    +0.000 NA
ATOM      3  C   UNL     1       3.005   7.905  17.707  0.00  0.00    +0.000 A 
ATOM      4  S   UNL     1       2.620   7.122  19.153  0.00  0.00    +0.000 S 
ATOM      5  C   UNL     1       1.608   8.276  19.730  0.00  0.00    +0.000 A 
ATOM      6 CL   UNL     1       0.986   7.825  21.247  0.00  0.00    +0.000 Cl
ENDROOT
BRANCH   1   8
ATOM      7  N   UNL     1      -0.352  11.140  18.414  0.00  0.00    +0.000 N 
ATOM      8  C   UNL     1       0.473  10.494  19.377  0.00  0.00    +0.000 C 
ATOM      9  O   UNL     1       0.433  10.886  20.544  0.00  0.00    +0.000 OA
ATOM     10  H   UNL     1      -0.410  10.863  17.435  0.00  0.00    +0.000 HD
BRANCH   7  11
ATOM     11  C   UNL     1      -1.258  12.267  18.762  0.00  0.00    +0.000 C 
BRANCH  11  16
ATOM     12  C   UNL     1      -6.796  10.979  18.497  0.00  0.00    +0.000 C 
ATOM     13  C   UNL     1      -5.345  11.281  18.509  0.00  0.00    +0.000 A 
ATOM     14  C   UNL     1      -4.426  10.774  17.626  0.00  0.00    +0.000 A 
ATOM     15  N   UNL     1      -3.113  11.076  17.667  0.00  0.00    +0.000 NA
ATOM     16  C   UNL     1      -2.723  11.917  18.650  0.00  0.00    +0.000 A 
ATOM     17  N   UNL     1      -3.544  12.473  19.560  0.00  0.00    +0.000 NA
ATOM     18  C   UNL     1      -4.832  12.133  19.450  0.00  0.00    +0.000 A 
ENDBRANCH  11  16
ENDBRANCH   7  11
ENDBRANCH   1   8
BRANCH   3  19
ATOM     19  C   UNL     1       4.022   7.002  16.902  0.00  0.00    +0.000 C 
BRANCH  19  20
ATOM     20  C   UNL     1       5.527   7.503  16.854  0.00  0.00    +0.000 C 
BRANCH  20  21
ATOM     21  N   UNL     1       6.431   6.463  16.372  0.00  0.00    +0.000 NA
ATOM     22  H   UNL     1       6.970   6.822  15.585  0.00  0.00    +0.000 HD
BRANCH  21  23
ATOM     23  C   UNL     1       7.339   6.053  17.436  0.00  0.00    +0.000 C 
BRANCH  23  24
ATOM     24  C   UNL     1       7.352   4.554  17.595  0.00  0.00    +0.000 C 
BRANCH  24  25
ATOM     25  C   UNL     1       6.023   3.987  18.038  0.00  0.00    +0.000 A 
ATOM     26  N   UNL     1       5.046   3.882  17.174  0.00  0.00    +0.000 NA
ATOM     27  C   UNL     1       3.935   3.501  17.787  0.00  0.00    +0.000 A 
ATOM     28  C   UNL     1       2.697   3.353  17.136  0.00  0.00    +0.000 A 
ATOM     29  C   UNL     1       1.806   2.911  18.133  0.00  0.00    +0.000 A 
ATOM     30  C   UNL     1       0.924   2.501  19.033  0.00  0.00    +0.000 A 
ATOM     31  C   UNL     1       2.660   2.757  19.823  0.00  0.00    +0.000 A 
ATOM     32  C   UNL     1       4.088   3.259  19.151  0.00  0.00    +0.000 A 
ATOM     33  N   UNL     1       5.564   3.593  19.327  0.00  0.00    +0.000 N 
ATOM     34  H   UNL     1       6.217   3.605  20.135  0.00  0.00    +0.000 HD
ENDBRANCH  24  25
ENDBRANCH  23  24
ENDBRANCH  21  23
ENDBRANCH  20  21
ENDBRANCH  19  20
ENDBRANCH   3  19
TORSDOF 9
ENDMDL
MODEL 6
REMARK VINA RESULT:      -7.5      2.913      4.259
REMARK  Name = 
REMARK  10 active torsions:
REMARK  status: ('A' for Active; 'I' for Inactive)
REMARK    1  A    between atoms: C_1  and  C_2
REMARK    2  A    between atoms: C_5  and  C_6
REMARK    3  A    between atoms: C_6  and  N_7
REMARK    4  A    between atoms: C_8  and  C_10
REMARK    5  A    between atoms: C_12  and  C_13
REMARK    6  A    between atoms: C_13  and  C_14
REMARK    7  A    between atoms: C_14  and  N_15
REMARK    8  A    between atoms: N_15  and  C_16
REMARK    9  A    between atoms: C_16  and  C_17
REMARK   10  A    between atoms: C_17  and  C_18
REMARK                            x       y       z     vdW  Elec       q    Type
REMARK                         _______ _______ _______ _____ _____    ______ ____
ROOT
ATOM      1  C   UNL     1       2.336   7.695  18.776  0.00  0.00    +0.000 A 
ATOM      2  N   UNL     1       3.209   6.598  17.999  0.00  0.00    +0.000 NA
ATOM      3  C   UNL     1       3.365   5.469  18.754  0.00  0.00    +0.000 A 
ATOM      4  S   UNL     1       2.552   5.626  20.226  0.00  0.00    +0.000 S 
ATOM      5  C   UNL     1       1.984   7.143  19.968  0.00  0.00    +0.000 A 
ATOM      6 CL   UNL     1       1.068   7.675  21.298  0.00  0.00    +0.000 Cl
ENDROOT
BRANCH   1   8
ATOM      7  N   UNL     1       1.033   9.842  19.384  0.00  0.00    +0.000 N 
ATOM      8  C   UNL     1       1.807   9.125  18.429  0.00  0.00    +0.000 C 
ATOM      9  O   UNL     1       1.996   9.635  17.324  0.00  0.00    +0.000 OA
ATOM     10  H   UNL     1       0.853   9.515  20.332  0.00  0.00    +0.000 HD
BRANCH   7  11
ATOM     11  C   UNL     1       0.446  11.179  19.101  0.00  0.00    +0.000 C 
BRANCH  11  16
ATOM     12  C   UNL     1      -5.109  11.069  17.861  0.00  0.00    +0.000 C 
ATOM     13  C   UNL     1      -3.653  11.045  18.143  0.00  0.00    +0.000 A 
ATOM     14  C   UNL     1      -2.777  10.092  17.691  0.00  0.00    +0.000 A 
ATOM     15  N   UNL     1      -1.457  10.108  17.966  0.00  0.00    +0.000 NA
ATOM     16  C   UNL     1      -1.019  11.127  18.736  0.00  0.00    +0.000 A 
ATOM     17  N   UNL     1      -1.793  12.114  19.224  0.00  0.00    +0.000 NA
ATOM     18  C   UNL     1      -3.089  12.035  18.903  0.00  0.00    +0.000 A 
ENDBRANCH  11  16
ENDBRANCH   7  11
ENDBRANCH   1   8
BRANCH   3  19
ATOM     19  C   UNL     1       4.057   4.049  18.711  0.00  0.00    +0.000 C 
BRANCH  19  20
ATOM     20  C   UNL     1       5.481   3.936  19.403  0.00  0.00    +0.000 C 
BRANCH  20  21
ATOM     21  N   UNL     1       6.563   4.253  18.474  0.00  0.00    +0.000 NA
ATOM     22  H   UNL     1       6.230   4.142  17.517  0.00  0.00    +0.000 HD
BRANCH  21  23
ATOM     23  C   UNL     1       7.014   5.624  18.676  0.00  0.00    +0.000 C 
BRANCH  23  24
ATOM     24  C   UNL     1       6.917   6.423  17.401  0.00  0.00    +0.000 C 
BRANCH  24  25
ATOM     25  C   UNL     1       6.539   5.589  16.199  0.00  0.00    +0.000 A 
ATOM     26  N   UNL     1       7.424   5.369  15.261  0.00  0.00    +0.000 NA
ATOM     27  C   UNL     1       6.860   4.745  14.238  0.00  0.00    +0.000 A 
ATOM     28  C   UNL     1       7.541   4.419  13.051  0.00  0.00    +0.000 A 
ATOM     29  C   UNL     1       6.594   3.747  12.255  0.00  0.00    +0.000 A 
ATOM     30  C   UNL     1       5.741   3.115  11.462  0.00  0.00    +0.000 A 
ATOM     31  C   UNL     1       4.905   3.629  13.117  0.00  0.00    +0.000 A 
ATOM     32  C   UNL     1       5.515   4.434  14.429  0.00  0.00    +0.000 A 
ATOM     33  N   UNL     1       5.290   5.022  15.817  0.00  0.00    +0.000 N 
ATOM     34  H   UNL     1       4.472   5.094  16.454  0.00  0.00    +0.000 HD
ENDBRANCH  24  25
ENDBRANCH  23  24
ENDBRANCH  21  23
ENDBRANCH  20  21
ENDBRANCH  19  20
ENDBRANCH   3  19
TORSDOF 9
ENDMDL
MODEL 7
REMARK VINA RESULT:      -7.5      2.434      4.228
REMARK  Name = 
REMARK  10 active torsions:
REMARK  status: ('A' for Active; 'I' for Inactive)
REMARK    1  A    between atoms: C_1  and  C_2
REMARK    2  A    between atoms: C_5  and  C_6
REMARK    3  A    between atoms: C_6  and  N_7
REMARK    4  A    between atoms: C_8  and  C_10
REMARK    5  A    between atoms: C_12  and  C_13
REMARK    6  A    between atoms: C_13  and  C_14
REMARK    7  A    between atoms: C_14  and  N_15
REMARK    8  A    between atoms: N_15  and  C_16
REMARK    9  A    between atoms: C_16  and  C_17
REMARK   10  A    between atoms: C_17  and  C_18
REMARK                            x       y       z     vdW  Elec       q    Type
REMARK                         _______ _______ _______ _____ _____    ______ ____
ROOT
ATOM      1  C   UNL     1       1.299   9.850  18.941  0.00  0.00    +0.000 A 
ATOM      2  N   UNL     1       2.172   9.166  17.784  0.00  0.00    +0.000 NA
ATOM      3  C   UNL     1       2.625   7.936  18.172  0.00  0.00    +0.000 A 
ATOM      4  S   UNL     1       2.074   7.567  19.726  0.00  0.00    +0.000 S 
ATOM      5  C   UNL     1       1.251   8.965  19.972  0.00  0.00    +0.000 A 
ATOM      6 CL   UNL     1       0.520   8.968  21.507  0.00  0.00    +0.000 Cl
ENDROOT
BRANCH   1   8
ATOM      7  N   UNL     1      -0.801  11.193  19.624  0.00  0.00    +0.000 N 
ATOM      8  C   UNL     1       0.512  11.196  19.074  0.00  0.00    +0.000 C 
ATOM      9  O   UNL     1       0.975  12.260  18.664  0.00  0.00    +0.000 OA
ATOM     10  H   UNL     1      -1.252  10.368  20.017  0.00  0.00    +0.000 HD
BRANCH   7  11
ATOM     11  C   UNL     1      -1.632  12.422  19.722  0.00  0.00    +0.000 C 
BRANCH  11  16
ATOM     12  C   UNL     1      -7.033  11.580  18.135  0.00  0.00    +0.000 C 
ATOM     13  C   UNL     1      -5.648  11.828  18.605  0.00  0.00    +0.000 A 
ATOM     14  C   UNL     1      -5.311  12.537  19.729  0.00  0.00    +0.000 A 
ATOM     15  N   UNL     1      -4.039  12.737  20.126  0.00  0.00    +0.000 NA
ATOM     16  C   UNL     1      -3.077  12.204  19.342  0.00  0.00    +0.000 A 
ATOM     17  N   UNL     1      -3.301  11.489  18.224  0.00  0.00    +0.000 NA
ATOM     18  C   UNL     1      -4.588  11.325  17.899  0.00  0.00    +0.000 A 
ENDBRANCH  11  16
ENDBRANCH   7  11
ENDBRANCH   1   8
BRANCH   3  19
ATOM     19  C   UNL     1       3.500   6.728  17.650  0.00  0.00    +0.000 C 
BRANCH  19  20
ATOM     20  C   UNL     1       4.743   7.100  16.736  0.00  0.00    +0.000 C 
BRANCH  20  21
ATOM     21  N   UNL     1       5.739   6.033  16.713  0.00  0.00    +0.000 NA
ATOM     22  H   UNL     1       5.659   5.477  17.564  0.00  0.00    +0.000 HD
BRANCH  21  23
ATOM     23  C   UNL     1       5.533   5.176  15.552  0.00  0.00    +0.000 C 
BRANCH  23  24
ATOM     24  C   UNL     1       5.562   3.719  15.937  0.00  0.00    +0.000 C 
BRANCH  24  25
ATOM     25  C   UNL     1       4.744   3.409  17.170  0.00  0.00    +0.000 A 
ATOM     26  N   UNL     1       3.439   3.378  17.087  0.00  0.00    +0.000 NA
ATOM     27  C   UNL     1       2.909   3.232  18.293  0.00  0.00    +0.000 A 
ATOM     28  C   UNL     1       1.525   3.220  18.540  0.00  0.00    +0.000 A 
ATOM     29  C   UNL     1       1.399   3.015  19.927  0.00  0.00    +0.000 A 
ATOM     30  C   UNL     1       1.224   2.831  21.228  0.00  0.00    +0.000 A 
ATOM     31  C   UNL     1       3.094   2.886  20.777  0.00  0.00    +0.000 A 
ATOM     32  C   UNL     1       3.845   3.095  19.316  0.00  0.00    +0.000 A 
ATOM     33  N   UNL     1       5.141   3.211  18.522  0.00  0.00    +0.000 N 
ATOM     34  H   UNL     1       6.150   3.195  18.769  0.00  0.00    +0.000 HD
ENDBRANCH  24  25
ENDBRANCH  23  24
ENDBRANCH  21  23
ENDBRANCH  20  21
ENDBRANCH  19  20
ENDBRANCH   3  19
TORSDOF 9
ENDMDL
MODEL 8
REMARK VINA RESULT:      -7.5      1.610      2.350
REMARK  Name = 
REMARK  10 active torsions:
REMARK  status: ('A' for Active; 'I' for Inactive)
REMARK    1  A    between atoms: C_1  and  C_2
REMARK    2  A    between atoms: C_5  and  C_6
REMARK    3  A    between atoms: C_6  and  N_7
REMARK    4  A    between atoms: C_8  and  C_10
REMARK    5  A    between atoms: C_12  and  C_13
REMARK    6  A    between atoms: C_13  and  C_14
REMARK    7  A    between atoms: C_14  and  N_15
REMARK    8  A    between atoms: N_15  and  C_16
REMARK    9  A    between atoms: C_16  and  C_17
REMARK   10  A    between atoms: C_17  and  C_18
REMARK                            x       y       z     vdW  Elec       q    Type
REMARK                         _______ _______ _______ _____ _____    ______ ____
ROOT
ATOM      1  C   UNL     1       0.752   9.803  21.022  0.00  0.00    +0.000 A 
ATOM      2  N   UNL     1       1.368   8.406  21.506  0.00  0.00    +0.000 NA
ATOM      3  C   UNL     1       1.831   7.679  20.445  0.00  0.00    +0.000 A 
ATOM      4  S   UNL     1       1.613   8.532  19.004  0.00  0.00    +0.000 S 
ATOM      5  C   UNL     1       0.906   9.853  19.671  0.00  0.00    +0.000 A 
ATOM      6 CL   UNL     1       0.521  10.998  18.474  0.00  0.00    +0.000 Cl
ENDROOT
BRANCH   1   8
ATOM      7  N   UNL     1      -1.129  10.898  22.416  0.00  0.00    +0.000 N 
ATOM      8  C   UNL     1       0.120  11.037  21.748  0.00  0.00    +0.000 C 
ATOM      9  O   UNL     1       0.649  12.148  21.715  0.00  0.00    +0.000 OA
ATOM     10  H   UNL     1      -1.622  10.013  22.524  0.00  0.00    +0.000 HD
BRANCH   7  11
ATOM     11  C   UNL     1      -1.817  12.040  23.074  0.00  0.00    +0.000 C 
BRANCH  11  16
ATOM     12  C   UNL     1      -6.649  13.547  20.469  0.00  0.00    +0.000 C 
ATOM     13  C   UNL     1      -5.426  13.141  21.203  0.00  0.00    +0.000 A 
ATOM     14  C   UNL     1      -5.377  12.805  22.531  0.00  0.00    +0.000 A 
ATOM     15  N   UNL     1      -4.245  12.435  23.162  0.00  0.00    +0.000 NA
ATOM     16  C   UNL     1      -3.122  12.418  22.412  0.00  0.00    +0.000 A 
ATOM     17  N   UNL     1      -3.063  12.723  21.103  0.00  0.00    +0.000 NA
ATOM     18  C   UNL     1      -4.227  13.071  20.545  0.00  0.00    +0.000 A 
ENDBRANCH  11  16
ENDBRANCH   7  11
ENDBRANCH   1   8
BRANCH   3  19
ATOM     19  C   UNL     1       2.511   6.292  20.109  0.00  0.00    +0.000 C 
BRANCH  19  20
ATOM     20  C   UNL     1       1.617   4.998  20.320  0.00  0.00    +0.000 C 
BRANCH  20  21
ATOM     21  N   UNL     1       1.714   4.080  19.188  0.00  0.00    +0.000 NA
ATOM     22  H   UNL     1       2.475   4.376  18.578  0.00  0.00    +0.000 HD
BRANCH  21  23
ATOM     23  C   UNL     1       1.968   2.724  19.660  0.00  0.00    +0.000 C 
BRANCH  23  24
ATOM     24  C   UNL     1       3.204   2.147  19.019  0.00  0.00    +0.000 C 
BRANCH  24  25
ATOM     25  C   UNL     1       4.150   3.198  18.487  0.00  0.00    +0.000 A 
ATOM     26  N   UNL     1       5.088   3.675  19.264  0.00  0.00    +0.000 NA
ATOM     27  C   UNL     1       5.713   4.677  18.664  0.00  0.00    +0.000 A 
ATOM     28  C   UNL     1       6.735   5.433  19.267  0.00  0.00    +0.000 A 
ATOM     29  C   UNL     1       7.135   6.361  18.287  0.00  0.00    +0.000 A 
ATOM     30  C   UNL     1       7.546   7.260  17.404  0.00  0.00    +0.000 A 
ATOM     31  C   UNL     1       6.125   6.178  16.688  0.00  0.00    +0.000 A 
ATOM     32  C   UNL     1       5.267   4.935  17.369  0.00  0.00    +0.000 A 
ATOM     33  N   UNL     1       4.170   3.885  17.240  0.00  0.00    +0.000 N 
ATOM     34  H   UNL     1       3.494   3.625  16.495  0.00  0.00    +0.000 HD
ENDBRANCH  24  25
ENDBRANCH  23  24
ENDBRANCH  21  23
ENDBRANCH  20  21
ENDBRANCH  19  20
ENDBRANCH   3  19
TORSDOF 9
ENDMDL
MODEL 9
REMARK VINA RESULT:      -7.4      2.984      4.007
REMARK  Name = 
REMARK  10 active torsions:
REMARK  status: ('A' for Active; 'I' for Inactive)
REMARK    1  A    between atoms: C_1  and  C_2
REMARK    2  A    between atoms: C_5  and  C_6
REMARK    3  A    between atoms: C_6  and  N_7
REMARK    4  A    between atoms: C_8  and  C_10
REMARK    5  A    between atoms: C_12  and  C_13
REMARK    6  A    between atoms: C_13  and  C_14
REMARK    7  A    between atoms: C_14  and  N_15
REMARK    8  A    between atoms: N_15  and  C_16
REMARK    9  A    between atoms: C_16  and  C_17
REMARK   10  A    between atoms: C_17  and  C_18
REMARK                            x       y       z     vdW  Elec       q    Type
REMARK                         _______ _______ _______ _____ _____    ______ ____
ROOT
ATOM      1  C   UNL     1       1.910   8.182  18.719  0.00  0.00    +0.000 A 
ATOM      2  N   UNL     1       2.367   6.934  17.824  0.00  0.00    +0.000 NA
ATOM      3  C   UNL     1       2.598   5.831  18.597  0.00  0.00    +0.000 A 
ATOM      4  S   UNL     1       2.286   6.174  20.222  0.00  0.00    +0.000 S 
ATOM      5  C   UNL     1       1.863   7.744  20.006  0.00  0.00    +0.000 A 
ATOM      6 CL   UNL     1       1.459   8.466  21.492  0.00  0.00    +0.000 Cl
ENDROOT
BRANCH   1   8
ATOM      7  N   UNL     1       0.272  10.167  18.956  0.00  0.00    +0.000 N 
ATOM      8  C   UNL     1       1.486   9.657  18.415  0.00  0.00    +0.000 C 
ATOM      9  O   UNL     1       2.148  10.381  17.671  0.00  0.00    +0.000 OA
ATOM     10  H   UNL     1      -0.323   9.655  19.605  0.00  0.00    +0.000 HD
BRANCH   7  11
ATOM     11  C   UNL     1      -0.225  11.537  18.658  0.00  0.00    +0.000 C 
BRANCH  11  16
ATOM     12  C   UNL     1      -5.817  11.698  17.612  0.00  0.00    +0.000 C 
ATOM     13  C   UNL     1      -4.350  11.642  17.820  0.00  0.00    +0.000 A 
ATOM     14  C   UNL     1      -3.432  11.274  16.870  0.00  0.00    +0.000 A 
ATOM     15  N   UNL     1      -2.104  11.241  17.096  0.00  0.00    +0.000 NA
ATOM     16  C   UNL     1      -1.700  11.585  18.339  0.00  0.00    +0.000 A 
ATOM     17  N   UNL     1      -2.517  11.967  19.338  0.00  0.00    +0.000 NA
ATOM     18  C   UNL     1      -3.820  11.984  19.035  0.00  0.00    +0.000 A 
ENDBRANCH  11  16
ENDBRANCH   7  11
ENDBRANCH   1   8
BRANCH   3  19
ATOM     19  C   UNL     1       3.062   4.325  18.482  0.00  0.00    +0.000 C 
BRANCH  19  20
ATOM     20  C   UNL     1       4.254   3.879  19.430  0.00  0.00    +0.000 C 
BRANCH  20  21
ATOM     21  N   UNL     1       5.513   3.757  18.699  0.00  0.00    +0.000 NA
ATOM     22  H   UNL     1       5.320   3.730  17.698  0.00  0.00    +0.000 HD
BRANCH  21  23
ATOM     23  C   UNL     1       6.380   4.889  18.997  0.00  0.00    +0.000 C 
BRANCH  23  24
ATOM     24  C   UNL     1       6.129   6.033  18.049  0.00  0.00    +0.000 C 
BRANCH  24  25
ATOM     25  C   UNL     1       6.384   5.679  16.602  0.00  0.00    +0.000 A 
ATOM     26  N   UNL     1       5.528   4.925  15.962  0.00  0.00    +0.000 NA
ATOM     27  C   UNL     1       6.000   4.616  14.763  0.00  0.00    +0.000 A 
ATOM     28  C   UNL     1       5.334   3.771  13.856  0.00  0.00    +0.000 A 
ATOM     29  C   UNL     1       6.155   3.736  12.713  0.00  0.00    +0.000 A 
ATOM     30  C   UNL     1       6.893   3.662  11.615  0.00  0.00    +0.000 A 
ATOM     31  C   UNL     1       7.724   4.783  12.940  0.00  0.00    +0.000 A 
ATOM     32  C   UNL     1       7.231   5.198  14.465  0.00  0.00    +0.000 A 
ATOM     33  N   UNL     1       7.498   5.956  15.760  0.00  0.00    +0.000 N 
ATOM     34  H   UNL     1       8.274   6.554  16.108  0.00  0.00    +0.000 HD
ENDBRANCH  24  25
ENDBRANCH  23  24
ENDBRANCH  21  23
ENDBRANCH  20  21
ENDBRANCH  19  20
ENDBRANCH   3  19
TORSDOF 9
ENDMDL
