MODEL 1
REMARK VINA RESULT:      -7.4      0.000      0.000
REMARK  Name = 
REMARK  7 active torsions:
REMARK  status: ('A' for Active; 'I' for Inactive)
REMARK    1  A    between atoms: C_1  and  O_2
REMARK    2  A    between atoms: O_2  and  C_3
REMARK    3  A    between atoms: C_6  and  O_7
REMARK    4  A    between atoms: O_7  and  C_8
REMARK    5  A    between atoms: C_8  and  C_9
REMARK    6  A    between atoms: C_12  and  C_13
REMARK    7  A    between atoms: C_15  and  C_16
REMARK                            x       y       z     vdW  Elec       q    Type
REMARK                         _______ _______ _______ _____ _____    ______ ____
ROOT
ATOM      1  C   UNL     1       4.182   4.227  17.079  0.00  0.00    +0.000 A 
ATOM      2  C   UNL     1       3.653   5.334  17.710  0.00  0.00    +0.000 A 
ATOM      3  N   UNL     1       2.992   4.866  18.819  0.00  0.00    +0.000 N 
ATOM      4  C   UNL     1       2.307   5.547  19.832  0.00  0.00    +0.000 A 
ATOM      5  C   UNL     1       2.202   7.041  19.842  0.00  0.00    +0.000 C 
ATOM      6  C   UNL     1       1.752   4.820  20.817  0.00  0.00    +0.000 A 
ATOM      7  C   UNL     1       1.917   3.335  20.729  0.00  0.00    +0.000 A 
ATOM      8  C   UNL     1       1.287   2.518  21.834  0.00  0.00    +0.000 C 
ATOM      9  N   UNL     1       2.554   2.707  19.788  0.00  0.00    +0.000 NA
ATOM     10  C   UNL     1       3.117   3.475  18.806  0.00  0.00    +0.000 A 
ATOM     11  N   UNL     1       3.832   3.085  17.768  0.00  0.00    +0.000 NA
ENDROOT
BRANCH   1  12
ATOM     12  C   UNL     1       5.047   4.157  15.855  0.00  0.00    +0.000 C 
BRANCH  12  13
ATOM     13  O   UNL     1       6.430   3.975  16.199  0.00  0.00    +0.000 OA
BRANCH  13  17
ATOM     14  C   UNL     1       8.066   7.159  18.350  0.00  0.00    +0.000 A 
ATOM     15  C   UNL     1       7.617   7.307  17.038  0.00  0.00    +0.000 A 
ATOM     16  C   UNL     1       7.071   6.215  16.354  0.00  0.00    +0.000 A 
ATOM     17  C   UNL     1       7.006   4.958  16.955  0.00  0.00    +0.000 A 
ATOM     18  C   UNL     1       7.460   4.808  18.264  0.00  0.00    +0.000 A 
ATOM     19  C   UNL     1       7.991   5.903  18.956  0.00  0.00    +0.000 A 
BRANCH  14  21
ATOM     20  C   UNL     1       8.389   9.493  18.207  0.00  0.00    +0.000 C 
ATOM     21  O   UNL     1       8.584   8.281  18.933  0.00  0.00    +0.000 OA
ENDBRANCH  14  21
ENDBRANCH  13  17
ENDBRANCH  12  13
ENDBRANCH   1  12
TORSDOF 4
ENDMDL
MODEL 2
REMARK VINA RESULT:      -7.2      2.439      4.423
REMARK  Name = 
REMARK  7 active torsions:
REMARK  status: ('A' for Active; 'I' for Inactive)
REMARK    1  A    between atoms: C_1  and  O_2
REMARK    2  A    between atoms: O_2  and  C_3
REMARK    3  A    between atoms: C_6  and  O_7
REMARK    4  A    between atoms: O_7  and  C_8
REMARK    5  A    between atoms: C_8  and  C_9
REMARK    6  A    between atoms: C_12  and  C_13
REMARK    7  A    between atoms: C_15  and  C_16
REMARK                            x       y       z     vdW  Elec       q    Type
REMARK                         _______ _______ _______ _____ _____    ______ ____
ROOT
ATOM      1  C   UNL     1       6.043   5.061  17.746  0.00  0.00    +0.000 A 
ATOM      2  C   UNL     1       5.073   6.041  17.771  0.00  0.00    +0.000 A 
ATOM      3  N   UNL     1       4.110   5.607  18.649  0.00  0.00    +0.000 N 
ATOM      4  C   UNL     1       2.926   6.214  19.083  0.00  0.00    +0.000 A 
ATOM      5  C   UNL     1       2.515   7.570  18.597  0.00  0.00    +0.000 C 
ATOM      6  C   UNL     1       2.165   5.550  19.969  0.00  0.00    +0.000 A 
ATOM      7  C   UNL     1       2.660   4.206  20.405  0.00  0.00    +0.000 A 
ATOM      8  C   UNL     1       1.799   3.458  21.397  0.00  0.00    +0.000 C 
ATOM      9  N   UNL     1       3.759   3.647  20.001  0.00  0.00    +0.000 NA
ATOM     10  C   UNL     1       4.518   4.352  19.107  0.00  0.00    +0.000 A 
ATOM     11  N   UNL     1       5.678   4.020  18.573  0.00  0.00    +0.000 NA
ENDROOT
BRANCH   1  12
ATOM     12  C   UNL     1       7.348   5.037  17.005  0.00  0.00    +0.000 C 
BRANCH  12  13
ATOM     13  O   UNL     1       7.258   5.750  15.760  0.00  0.00    +0.000 OA
BRANCH  13  17
ATOM     14  C   UNL     1       5.959   3.499  12.491  0.00  0.00    +0.000 A 
ATOM     15  C   UNL     1       5.259   3.522  13.697  0.00  0.00    +0.000 A 
ATOM     16  C   UNL     1       5.726   4.294  14.767  0.00  0.00    +0.000 A 
ATOM     17  C   UNL     1       6.915   5.014  14.659  0.00  0.00    +0.000 A 
ATOM     18  C   UNL     1       7.619   4.986  13.457  0.00  0.00    +0.000 A 
ATOM     19  C   UNL     1       7.144   4.228  12.379  0.00  0.00    +0.000 A 
BRANCH  14  21
ATOM     20  C   UNL     1       4.094   3.047  11.116  0.00  0.00    +0.000 C 
ATOM     21  O   UNL     1       5.424   2.715  11.507  0.00  0.00    +0.000 OA
ENDBRANCH  14  21
ENDBRANCH  13  17
ENDBRANCH  12  13
ENDBRANCH   1  12
TORSDOF 4
ENDMDL
MODEL 3
REMARK VINA RESULT:      -7.1      2.226      4.144
REMARK  Name = 
REMARK  7 active torsions:
REMARK  status: ('A' for Active; 'I' for Inactive)
REMARK    1  A    between atoms: C_1  and  O_2
REMARK    2  A    between atoms: O_2  and  C_3
REMARK    3  A    between atoms: C_6  and  O_7
REMARK    4  A    between atoms: O_7  and  C_8
REMARK    5  A    between atoms: C_8  and  C_9
REMARK    6  A    between atoms: C_12  and  C_13
REMARK    7  A    between atoms: C_15  and  C_16
REMARK                            x       y       z     vdW  Elec       q    Type
REMARK                         _______ _______ _______ _____ _____    ______ ____
ROOT
ATOM      1  C   UNL     1       6.011   4.909  18.184  0.00  0.00    +0.000 A 
ATOM      2  C   UNL     1       5.040   5.881  18.310  0.00  0.00    +0.000 A 
ATOM      3  N   UNL     1       4.051   5.338  19.093  0.00  0.00    +0.000 N 
ATOM      4  C   UNL     1       2.855   5.886  19.568  0.00  0.00    +0.000 A 
ATOM      5  C   UNL     1       2.458   7.297  19.254  0.00  0.00    +0.000 C 
ATOM      6  C   UNL     1       2.067   5.113  20.335  0.00  0.00    +0.000 A 
ATOM      7  C   UNL     1       2.549   3.722  20.603  0.00  0.00    +0.000 A 
ATOM      8  C   UNL     1       1.659   2.852  21.461  0.00  0.00    +0.000 C 
ATOM      9  N   UNL     1       3.660   3.217  20.161  0.00  0.00    +0.000 NA
ATOM     10  C   UNL     1       4.445   4.031  19.392  0.00  0.00    +0.000 A 
ATOM     11  N   UNL     1       5.621   3.769  18.854  0.00  0.00    +0.000 NA
ENDROOT
BRANCH   1  12
ATOM     12  C   UNL     1       7.338   4.979  17.486  0.00  0.00    +0.000 C 
BRANCH  12  13
ATOM     13  O   UNL     1       7.246   5.718  16.257  0.00  0.00    +0.000 OA
BRANCH  13  17
ATOM     14  C   UNL     1       5.995   3.666  12.842  0.00  0.00    +0.000 A 
ATOM     15  C   UNL     1       7.136   4.468  12.845  0.00  0.00    +0.000 A 
ATOM     16  C   UNL     1       7.523   5.135  14.013  0.00  0.00    +0.000 A 
ATOM     17  C   UNL     1       6.756   5.043  15.174  0.00  0.00    +0.000 A 
ATOM     18  C   UNL     1       5.612   4.248  15.169  0.00  0.00    +0.000 A 
ATOM     19  C   UNL     1       5.232   3.565  14.007  0.00  0.00    +0.000 A 
BRANCH  14  21
ATOM     20  C   UNL     1       4.317   3.048  11.301  0.00  0.00    +0.000 C 
ATOM     21  O   UNL     1       5.698   3.056  11.655  0.00  0.00    +0.000 OA
ENDBRANCH  14  21
ENDBRANCH  13  17
ENDBRANCH  12  13
ENDBRANCH   1  12
TORSDOF 4
ENDMDL
MODEL 4
REMARK VINA RESULT:      -7.0      0.209      1.067
REMARK  Name = 
REMARK  7 active torsions:
REMARK  status: ('A' for Active; 'I' for Inactive)
REMARK    1  A    between atoms: C_1  and  O_2
REMARK    2  A    between atoms: O_2  and  C_3
REMARK    3  A    between atoms: C_6  and  O_7
REMARK    4  A    between atoms: O_7  and  C_8
REMARK    5  A    between atoms: C_8  and  C_9
REMARK    6  A    between atoms: C_12  and  C_13
REMARK    7  A    between atoms: C_15  and  C_16
REMARK                            x       y       z     vdW  Elec       q    Type
REMARK                         _______ _______ _______ _____ _____    ______ ____
ROOT
ATOM      1  C   UNL     1       4.269   4.084  17.088  0.00  0.00    +0.000 A 
ATOM      2  C   UNL     1       3.656   5.189  17.642  0.00  0.00    +0.000 A 
ATOM      3  N   UNL     1       2.999   4.742  18.763  0.00  0.00    +0.000 N 
ATOM      4  C   UNL     1       2.248   5.433  19.719  0.00  0.00    +0.000 A 
ATOM      5  C   UNL     1       2.047   6.915  19.640  0.00  0.00    +0.000 C 
ATOM      6  C   UNL     1       1.716   4.728  20.734  0.00  0.00    +0.000 A 
ATOM      7  C   UNL     1       1.978   3.254  20.735  0.00  0.00    +0.000 A 
ATOM      8  C   UNL     1       1.375   2.462  21.873  0.00  0.00    +0.000 C 
ATOM      9  N   UNL     1       2.676   2.617  19.846  0.00  0.00    +0.000 NA
ATOM     10  C   UNL     1       3.213   3.363  18.833  0.00  0.00    +0.000 A 
ATOM     11  N   UNL     1       3.977   2.963  17.834  0.00  0.00    +0.000 NA
ENDROOT
BRANCH   1  12
ATOM     12  C   UNL     1       5.166   4.001  15.887  0.00  0.00    +0.000 C 
BRANCH  12  13
ATOM     13  O   UNL     1       6.553   4.020  16.266  0.00  0.00    +0.000 OA
BRANCH  13  17
ATOM     14  C   UNL     1       8.102   7.361  18.234  0.00  0.00    +0.000 A 
ATOM     15  C   UNL     1       8.141   6.087  18.800  0.00  0.00    +0.000 A 
ATOM     16  C   UNL     1       7.614   4.993  18.104  0.00  0.00    +0.000 A 
ATOM     17  C   UNL     1       7.008   5.164  16.860  0.00  0.00    +0.000 A 
ATOM     18  C   UNL     1       6.963   6.438  16.297  0.00  0.00    +0.000 A 
ATOM     19  C   UNL     1       7.505   7.532  16.984  0.00  0.00    +0.000 A 
BRANCH  14  21
ATOM     20  C   UNL     1       8.662   9.650  18.373  0.00  0.00    +0.000 C 
ATOM     21  O   UNL     1       8.640   8.365  18.990  0.00  0.00    +0.000 OA
ENDBRANCH  14  21
ENDBRANCH  13  17
ENDBRANCH  12  13
ENDBRANCH   1  12
TORSDOF 4
ENDMDL
MODEL 5
REMARK VINA RESULT:      -6.9      0.880      2.162
REMARK  Name = 
REMARK  7 active torsions:
REMARK  status: ('A' for Active; 'I' for Inactive)
REMARK    1  A    between atoms: C_1  and  O_2
REMARK    2  A    between atoms: O_2  and  C_3
REMARK    3  A    between atoms: C_6  and  O_7
REMARK    4  A    between atoms: O_7  and  C_8
REMARK    5  A    between atoms: C_8  and  C_9
REMARK    6  A    between atoms: C_12  and  C_13
REMARK    7  A    between atoms: C_15  and  C_16
REMARK                            x       y       z     vdW  Elec       q    Type
REMARK                         _______ _______ _______ _____ _____    ______ ____
ROOT
ATOM      1  C   UNL     1       4.069   4.589  17.282  0.00  0.00    +0.000 A 
ATOM      2  C   UNL     1       3.466   3.793  18.234  0.00  0.00    +0.000 A 
ATOM      3  N   UNL     1       2.813   4.645  19.091  0.00  0.00    +0.000 N 
ATOM      4  C   UNL     1       2.014   4.384  20.209  0.00  0.00    +0.000 A 
ATOM      5  C   UNL     1       1.730   2.985  20.662  0.00  0.00    +0.000 C 
ATOM      6  C   UNL     1       1.487   5.431  20.866  0.00  0.00    +0.000 A 
ATOM      7  C   UNL     1       1.817   6.791  20.336  0.00  0.00    +0.000 A 
ATOM      8  C   UNL     1       1.229   7.968  21.079  0.00  0.00    +0.000 C 
ATOM      9  N   UNL     1       2.558   7.030  19.297  0.00  0.00    +0.000 NA
ATOM     10  C   UNL     1       3.071   5.943  18.643  0.00  0.00    +0.000 A 
ATOM     11  N   UNL     1       3.820   5.917  17.557  0.00  0.00    +0.000 NA
ENDROOT
BRANCH   1  12
ATOM     12  C   UNL     1       4.863   4.185  16.074  0.00  0.00    +0.000 C 
BRANCH  12  13
ATOM     13  O   UNL     1       6.245   3.962  16.404  0.00  0.00    +0.000 OA
BRANCH  13  17
ATOM     14  C   UNL     1       8.047   7.185  18.355  0.00  0.00    +0.000 A 
ATOM     15  C   UNL     1       7.545   7.294  17.058  0.00  0.00    +0.000 A 
ATOM     16  C   UNL     1       6.944   6.190  16.442  0.00  0.00    +0.000 A 
ATOM     17  C   UNL     1       6.876   4.959  17.095  0.00  0.00    +0.000 A 
ATOM     18  C   UNL     1       7.383   4.848  18.388  0.00  0.00    +0.000 A 
ATOM     19  C   UNL     1       7.970   5.956  19.013  0.00  0.00    +0.000 A 
BRANCH  14  21
ATOM     20  C   UNL     1       8.415   9.504  18.108  0.00  0.00    +0.000 C 
ATOM     21  O   UNL     1       8.617   8.316  18.870  0.00  0.00    +0.000 OA
ENDBRANCH  14  21
ENDBRANCH  13  17
ENDBRANCH  12  13
ENDBRANCH   1  12
TORSDOF 4
ENDMDL
MODEL 6
REMARK VINA RESULT:      -6.9      3.107      5.849
REMARK  Name = 
REMARK  7 active torsions:
REMARK  status: ('A' for Active; 'I' for Inactive)
REMARK    1  A    between atoms: C_1  and  O_2
REMARK    2  A    between atoms: O_2  and  C_3
REMARK    3  A    between atoms: C_6  and  O_7
REMARK    4  A    between atoms: O_7  and  C_8
REMARK    5  A    between atoms: C_8  and  C_9
REMARK    6  A    between atoms: C_12  and  C_13
REMARK    7  A    between atoms: C_15  and  C_16
REMARK                            x       y       z     vdW  Elec       q    Type
REMARK                         _______ _______ _______ _____ _____    ______ ____
ROOT
ATOM      1  C   UNL     1       7.516   6.984  17.818  0.00  0.00    +0.000 A 
ATOM      2  C   UNL     1       6.479   6.169  18.222  0.00  0.00    +0.000 A 
ATOM      3  N   UNL     1       6.116   5.433  17.120  0.00  0.00    +0.000 N 
ATOM      4  C   UNL     1       5.151   4.433  16.966  0.00  0.00    +0.000 A 
ATOM      5  C   UNL     1       4.299   3.979  18.111  0.00  0.00    +0.000 C 
ATOM      6  C   UNL     1       5.015   3.869  15.752  0.00  0.00    +0.000 A 
ATOM      7  C   UNL     1       5.916   4.380  14.671  0.00  0.00    +0.000 A 
ATOM      8  C   UNL     1       5.758   3.749  13.307  0.00  0.00    +0.000 C 
ATOM      9  N   UNL     1       6.812   5.308  14.820  0.00  0.00    +0.000 NA
ATOM     10  C   UNL     1       6.933   5.854  16.068  0.00  0.00    +0.000 A 
ATOM     11  N   UNL     1       7.777   6.780  16.480  0.00  0.00    +0.000 NA
ENDROOT
BRANCH   1  12
ATOM     12  C   UNL     1       8.332   7.951  18.626  0.00  0.00    +0.000 C 
BRANCH  12  13
ATOM     13  O   UNL     1       8.330   9.261  18.036  0.00  0.00    +0.000 OA
BRANCH  13  17
ATOM     14  C   UNL     1      10.696  12.290  19.671  0.00  0.00    +0.000 A 
ATOM     15  C   UNL     1      10.596  12.092  18.294  0.00  0.00    +0.000 A 
ATOM     16  C   UNL     1       9.788  11.069  17.787  0.00  0.00    +0.000 A 
ATOM     17  C   UNL     1       9.107  10.207  18.646  0.00  0.00    +0.000 A 
ATOM     18  C   UNL     1       9.211  10.399  20.023  0.00  0.00    +0.000 A 
ATOM     19  C   UNL     1      10.006  11.434  20.532  0.00  0.00    +0.000 A 
BRANCH  14  21
ATOM     20  C   UNL     1      11.032  14.624  19.774  0.00  0.00    +0.000 C 
ATOM     21  O   UNL     1      11.510  13.313  20.069  0.00  0.00    +0.000 OA
ENDBRANCH  14  21
ENDBRANCH  13  17
ENDBRANCH  12  13
ENDBRANCH   1  12
TORSDOF 4
ENDMDL
MODEL 7
REMARK VINA RESULT:      -6.9      3.159      5.967
REMARK  Name = 
REMARK  7 active torsions:
REMARK  status: ('A' for Active; 'I' for Inactive)
REMARK    1  A    between atoms: C_1  and  O_2
REMARK    2  A    between atoms: O_2  and  C_3
REMARK    3  A    between atoms: C_6  and  O_7
REMARK    4  A    between atoms: O_7  and  C_8
REMARK    5  A    between atoms: C_8  and  C_9
REMARK    6  A    between atoms: C_12  and  C_13
REMARK    7  A    between atoms: C_15  and  C_16
REMARK                            x       y       z     vdW  Elec       q    Type
REMARK                         _______ _______ _______ _____ _____    ______ ____
ROOT
ATOM      1  C   UNL     1       7.675   7.087  17.961  0.00  0.00    +0.000 A 
ATOM      2  C   UNL     1       6.785   6.163  18.470  0.00  0.00    +0.000 A 
ATOM      3  N   UNL     1       6.335   5.433  17.398  0.00  0.00    +0.000 N 
ATOM      4  C   UNL     1       5.451   4.350  17.335  0.00  0.00    +0.000 A 
ATOM      5  C   UNL     1       4.818   3.780  18.567  0.00  0.00    +0.000 C 
ATOM      6  C   UNL     1       5.193   3.815  16.129  0.00  0.00    +0.000 A 
ATOM      7  C   UNL     1       5.878   4.444  14.956  0.00  0.00    +0.000 A 
ATOM      8  C   UNL     1       5.582   3.846  13.600  0.00  0.00    +0.000 C 
ATOM      9  N   UNL     1       6.699   5.448  15.018  0.00  0.00    +0.000 NA
ATOM     10  C   UNL     1       6.949   5.963  16.261  0.00  0.00    +0.000 A 
ATOM     11  N   UNL     1       7.758   6.952  16.592  0.00  0.00    +0.000 NA
ENDROOT
BRANCH   1  12
ATOM     12  C   UNL     1       8.509   8.101  18.689  0.00  0.00    +0.000 C 
BRANCH  12  13
ATOM     13  O   UNL     1       8.233   9.435  18.231  0.00  0.00    +0.000 OA
BRANCH  13  17
ATOM     14  C   UNL     1      11.051  12.260  19.462  0.00  0.00    +0.000 A 
ATOM     15  C   UNL     1      10.227  11.595  20.369  0.00  0.00    +0.000 A 
ATOM     16  C   UNL     1       9.299  10.651  19.915  0.00  0.00    +0.000 A 
ATOM     17  C   UNL     1       9.154  10.393  18.552  0.00  0.00    +0.000 A 
ATOM     18  C   UNL     1       9.972  11.063  17.644  0.00  0.00    +0.000 A 
ATOM     19  C   UNL     1      10.914  11.995  18.098  0.00  0.00    +0.000 A 
BRANCH  14  21
ATOM     20  C   UNL     1      11.468  14.514  20.026  0.00  0.00    +0.000 C 
ATOM     21  O   UNL     1      11.924  13.164  20.001  0.00  0.00    +0.000 OA
ENDBRANCH  14  21
ENDBRANCH  13  17
ENDBRANCH  12  13
ENDBRANCH   1  12
TORSDOF 4
ENDMDL
MODEL 8
REMARK VINA RESULT:      -6.7      3.158      5.255
REMARK  Name = 
REMARK  7 active torsions:
REMARK  status: ('A' for Active; 'I' for Inactive)
REMARK    1  A    between atoms: C_1  and  O_2
REMARK    2  A    between atoms: O_2  and  C_3
REMARK    3  A    between atoms: C_6  and  O_7
REMARK    4  A    between atoms: O_7  and  C_8
REMARK    5  A    between atoms: C_8  and  C_9
REMARK    6  A    between atoms: C_12  and  C_13
REMARK    7  A    between atoms: C_15  and  C_16
REMARK                            x       y       z     vdW  Elec       q    Type
REMARK                         _______ _______ _______ _____ _____    ______ ____
ROOT
ATOM      1  C   UNL     1       2.216   7.000  19.746  0.00  0.00    +0.000 A 
ATOM      2  C   UNL     1       1.587   7.474  20.879  0.00  0.00    +0.000 A 
ATOM      3  N   UNL     1       1.151   8.741  20.575  0.00  0.00    +0.000 N 
ATOM      4  C   UNL     1       0.425   9.666  21.333  0.00  0.00    +0.000 A 
ATOM      5  C   UNL     1      -0.026   9.357  22.728  0.00  0.00    +0.000 C 
ATOM      6  C   UNL     1       0.124  10.848  20.768  0.00  0.00    +0.000 A 
ATOM      7  C   UNL     1       0.608  11.064  19.367  0.00  0.00    +0.000 A 
ATOM      8  C   UNL     1       0.274  12.395  18.735  0.00  0.00    +0.000 C 
ATOM      9  N   UNL     1       1.280  10.202  18.666  0.00  0.00    +0.000 NA
ATOM     10  C   UNL     1       1.561   9.005  19.265  0.00  0.00    +0.000 A 
ATOM     11  N   UNL     1       2.196   7.964  18.761  0.00  0.00    +0.000 NA
ENDROOT
BRANCH   1  12
ATOM     12  C   UNL     1       2.828   5.652  19.496  0.00  0.00    +0.000 C 
BRANCH  12  13
ATOM     13  O   UNL     1       4.215   5.627  19.873  0.00  0.00    +0.000 OA
BRANCH  13  17
ATOM     14  C   UNL     1       6.774   4.961  16.641  0.00  0.00    +0.000 A 
ATOM     15  C   UNL     1       5.387   4.957  16.498  0.00  0.00    +0.000 A 
ATOM     16  C   UNL     1       4.565   5.189  17.606  0.00  0.00    +0.000 A 
ATOM     17  C   UNL     1       5.115   5.385  18.873  0.00  0.00    +0.000 A 
ATOM     18  C   UNL     1       6.501   5.382  19.018  0.00  0.00    +0.000 A 
ATOM     19  C   UNL     1       7.326   5.167  17.907  0.00  0.00    +0.000 A 
BRANCH  14  21
ATOM     20  C   UNL     1       6.725   4.640  14.303  0.00  0.00    +0.000 C 
ATOM     21  O   UNL     1       7.492   4.723  15.502  0.00  0.00    +0.000 OA
ENDBRANCH  14  21
ENDBRANCH  13  17
ENDBRANCH  12  13
ENDBRANCH   1  12
TORSDOF 4
ENDMDL
MODEL 9
REMARK VINA RESULT:      -6.7      3.215      6.374
REMARK  Name = 
REMARK  7 active torsions:
REMARK  status: ('A' for Active; 'I' for Inactive)
REMARK    1  A    between atoms: C_1  and  O_2
REMARK    2  A    between atoms: O_2  and  C_3
REMARK    3  A    between atoms: C_6  and  O_7
REMARK    4  A    between atoms: O_7  and  C_8
REMARK    5  A    between atoms: C_8  and  C_9
REMARK    6  A    between atoms: C_12  and  C_13
REMARK    7  A    between atoms: C_15  and  C_16
REMARK                            x       y       z     vdW  Elec       q    Type
REMARK                         _______ _______ _______ _____ _____    ______ ____
ROOT
ATOM      1  C   UNL     1       3.410   5.117  18.891  0.00  0.00    +0.000 A 
ATOM      2  C   UNL     1       4.753   5.278  19.165  0.00  0.00    +0.000 A 
ATOM      3  N   UNL     1       5.421   4.993  17.999  0.00  0.00    +0.000 N 
ATOM      4  C   UNL     1       6.785   5.029  17.694  0.00  0.00    +0.000 A 
ATOM      5  C   UNL     1       7.807   5.436  18.710  0.00  0.00    +0.000 C 
ATOM      6  C   UNL     1       7.161   4.701  16.445  0.00  0.00    +0.000 A 
ATOM      7  C   UNL     1       6.070   4.317  15.495  0.00  0.00    +0.000 A 
ATOM      8  C   UNL     1       6.495   3.943  14.094  0.00  0.00    +0.000 C 
ATOM      9  N   UNL     1       4.805   4.286  15.782  0.00  0.00    +0.000 NA
ATOM     10  C   UNL     1       4.453   4.635  17.057  0.00  0.00    +0.000 A 
ATOM     11  N   UNL     1       3.245   4.711  17.583  0.00  0.00    +0.000 NA
ENDROOT
BRANCH   1  12
ATOM     12  C   UNL     1       2.226   5.353  19.782  0.00  0.00    +0.000 C 
BRANCH  12  13
ATOM     13  O   UNL     1       2.364   6.575  20.527  0.00  0.00    +0.000 OA
BRANCH  13  17
ATOM     14  C   UNL     1       0.840  10.139  18.973  0.00  0.00    +0.000 A 
ATOM     15  C   UNL     1       0.599   9.744  20.289  0.00  0.00    +0.000 A 
ATOM     16  C   UNL     1       1.133   8.544  20.771  0.00  0.00    +0.000 A 
ATOM     17  C   UNL     1       1.874   7.707  19.938  0.00  0.00    +0.000 A 
ATOM     18  C   UNL     1       2.110   8.098  18.621  0.00  0.00    +0.000 A 
ATOM     19  C   UNL     1       1.591   9.308  18.141  0.00  0.00    +0.000 A 
BRANCH  14  21
ATOM     20  C   UNL     1      -1.073  11.521  19.010  0.00  0.00    +0.000 C 
ATOM     21  O   UNL     1       0.277  11.325  18.594  0.00  0.00    +0.000 OA
ENDBRANCH  14  21
ENDBRANCH  13  17
ENDBRANCH  12  13
ENDBRANCH   1  12
TORSDOF 4
ENDMDL
