MODEL 1
REMARK VINA RESULT:      -8.5      0.000      0.000
REMARK  Name = 
REMARK  5 active torsions:
REMARK  status: ('A' for Active; 'I' for Inactive)
REMARK    1  A    between atoms: C_2  and  C_3
REMARK    2  A    between atoms: C_4  and  C_5
REMARK    3  A    between atoms: C_8  and  S_9
REMARK    4  A    between atoms: S_9  and  N_12
REMARK    5  A    between atoms: N_23  and  C_24
REMARK                            x       y       z     vdW  Elec       q    Type
REMARK                         _______ _______ _______ _____ _____    ______ ____
ROOT
ATOM      1  C   UNL     1       1.903   7.334  20.171  0.00  0.00    +0.000 C 
ATOM      2  C   UNL     1       1.198   7.651  21.270  0.00  0.00    +0.000 C 
ENDROOT
BRANCH   1   4
ATOM      3  O   UNL     1       2.160   5.082  20.802  0.00  0.00    +0.000 OA
ATOM      4  C   UNL     1       2.392   5.944  19.959  0.00  0.00    +0.000 C 
ATOM      5  N   UNL     1       3.048   5.696  18.770  0.00  0.00    +0.000 N 
ATOM      6  C   UNL     1       3.535   6.717  17.830  0.00  0.00    +0.000 C 
ATOM      7  C   UNL     1       5.015   6.481  17.486  0.00  0.00    +0.000 C 
ATOM      8  N   UNL     1       5.199   5.116  16.975  0.00  0.00    +0.000 N 
ATOM      9  C   UNL     1       4.757   4.055  17.899  0.00  0.00    +0.000 C 
ATOM     10  C   UNL     1       3.298   4.306  18.348  0.00  0.00    +0.000 C 
BRANCH   8  11
ATOM     11  C   UNL     1       5.701   4.859  15.721  0.00  0.00    +0.000 A 
ATOM     12  C   UNL     1       4.981   4.123  14.767  0.00  0.00    +0.000 A 
ATOM     13  C   UNL     1       5.502   3.840  13.499  0.00  0.00    +0.000 A 
ATOM     14  C   UNL     1       6.762   4.306  13.160  0.00  0.00    +0.000 A 
ATOM     15  F   UNL     1       7.267   4.035  11.949  0.00  0.00    +0.000 F 
ATOM     16  C   UNL     1       7.503   5.047  14.061  0.00  0.00    +0.000 A 
ATOM     17  C   UNL     1       6.976   5.323  15.328  0.00  0.00    +0.000 A 
ENDBRANCH   8  11
ENDBRANCH   1   4
BRANCH   2  18
ATOM     18  C   UNL     1       0.547   8.956  21.491  0.00  0.00    +0.000 A 
ATOM     19  C   UNL     1       0.292   9.841  20.429  0.00  0.00    +0.000 A 
ATOM     20  C   UNL     1      -0.421  11.027  20.634  0.00  0.00    +0.000 A 
ATOM     21  C   UNL     1      -0.924  11.335  21.901  0.00  0.00    +0.000 A 
ATOM     22  C   UNL     1      -0.635  10.490  22.979  0.00  0.00    +0.000 A 
ATOM     23  C   UNL     1       0.080   9.299  22.768  0.00  0.00    +0.000 A 
BRANCH  21  24
ATOM     24  S   UNL     1      -1.760  12.893  22.177  0.00  0.00    +0.000 S 
ATOM     25  O   UNL     1      -1.228  13.430  23.412  0.00  0.00    +0.000 OA
ATOM     26  O   UNL     1      -1.657  13.642  20.941  0.00  0.00    +0.000 OA
BRANCH  24  27
ATOM     27  N   UNL     1      -3.388  12.550  22.435  0.00  0.00    +0.000 NA
ATOM     28  C   UNL     1      -4.388  12.769  21.360  0.00  0.00    +0.000 C 
ATOM     29  C   UNL     1      -5.047  14.142  21.513  0.00  0.00    +0.000 C 
ATOM     30  O   UNL     1      -5.613  14.328  22.821  0.00  0.00    +0.000 OA
ATOM     31  C   UNL     1      -4.654  14.118  23.869  0.00  0.00    +0.000 C 
ATOM     32  C   UNL     1      -4.005  12.737  23.772  0.00  0.00    +0.000 C 
ENDBRANCH  24  27
ENDBRANCH  21  24
ENDBRANCH   2  18
TORSDOF 5
ENDMDL
MODEL 2
REMARK VINA RESULT:      -8.5      0.160      1.213
REMARK  Name = 
REMARK  5 active torsions:
REMARK  status: ('A' for Active; 'I' for Inactive)
REMARK    1  A    between atoms: C_2  and  C_3
REMARK    2  A    between atoms: C_4  and  C_5
REMARK    3  A    between atoms: C_8  and  S_9
REMARK    4  A    between atoms: S_9  and  N_12
REMARK    5  A    between atoms: N_23  and  C_24
REMARK                            x       y       z     vdW  Elec       q    Type
REMARK                         _______ _______ _______ _____ _____    ______ ____
ROOT
ATOM      1  C   UNL     1       1.762   7.251  20.230  0.00  0.00    +0.000 C 
ATOM      2  C   UNL     1       1.138   7.607  21.365  0.00  0.00    +0.000 C 
ENDROOT
BRANCH   1   4
ATOM      3  O   UNL     1       2.231   5.075  20.989  0.00  0.00    +0.000 OA
ATOM      4  C   UNL     1       2.372   5.901  20.092  0.00  0.00    +0.000 C 
ATOM      5  N   UNL     1       3.031   5.640  18.907  0.00  0.00    +0.000 N 
ATOM      6  C   UNL     1       3.411   6.641  17.900  0.00  0.00    +0.000 C 
ATOM      7  C   UNL     1       4.901   6.518  17.542  0.00  0.00    +0.000 C 
ATOM      8  N   UNL     1       5.202   5.146  17.110  0.00  0.00    +0.000 N 
ATOM      9  C   UNL     1       4.871   4.109  18.103  0.00  0.00    +0.000 C 
ATOM     10  C   UNL     1       3.401   4.255  18.565  0.00  0.00    +0.000 C 
BRANCH   8  11
ATOM     11  C   UNL     1       5.708   4.860  15.863  0.00  0.00    +0.000 A 
ATOM     12  C   UNL     1       6.996   5.256  15.474  0.00  0.00    +0.000 A 
ATOM     13  C   UNL     1       7.501   4.987  14.195  0.00  0.00    +0.000 A 
ATOM     14  C   UNL     1       6.718   4.299  13.284  0.00  0.00    +0.000 A 
ATOM     15  F   UNL     1       7.195   4.042  12.058  0.00  0.00    +0.000 F 
ATOM     16  C   UNL     1       5.448   3.876  13.626  0.00  0.00    +0.000 A 
ATOM     17  C   UNL     1       4.949   4.152  14.905  0.00  0.00    +0.000 A 
ENDBRANCH   8  11
ENDBRANCH   1   4
BRANCH   2  18
ATOM     18  C   UNL     1       0.377   8.859  21.537  0.00  0.00    +0.000 A 
ATOM     19  C   UNL     1      -0.122   9.250  22.793  0.00  0.00    +0.000 A 
ATOM     20  C   UNL     1      -0.748  10.488  22.966  0.00  0.00    +0.000 A 
ATOM     21  C   UNL     1      -0.857  11.377  21.893  0.00  0.00    +0.000 A 
ATOM     22  C   UNL     1      -0.410  10.984  20.626  0.00  0.00    +0.000 A 
ATOM     23  C   UNL     1       0.219   9.739  20.457  0.00  0.00    +0.000 A 
BRANCH  21  24
ATOM     24  S   UNL     1      -1.735  12.923  22.098  0.00  0.00    +0.000 S 
ATOM     25  O   UNL     1      -1.162  13.570  23.259  0.00  0.00    +0.000 OA
ATOM     26  O   UNL     1      -1.723  13.579  20.806  0.00  0.00    +0.000 OA
BRANCH  24  27
ATOM     27  N   UNL     1      -3.334  12.546  22.466  0.00  0.00    +0.000 NA
ATOM     28  C   UNL     1      -4.412  12.757  21.468  0.00  0.00    +0.000 C 
ATOM     29  C   UNL     1      -5.084  14.116  21.683  0.00  0.00    +0.000 C 
ATOM     30  O   UNL     1      -5.558  14.278  23.030  0.00  0.00    +0.000 OA
ATOM     31  C   UNL     1      -4.523  14.076  24.005  0.00  0.00    +0.000 C 
ATOM     32  C   UNL     1      -3.857  12.709  23.846  0.00  0.00    +0.000 C 
ENDBRANCH  24  27
ENDBRANCH  21  24
ENDBRANCH   2  18
TORSDOF 5
ENDMDL
MODEL 3
REMARK VINA RESULT:      -8.4      7.454      9.313
REMARK  Name = 
REMARK  5 active torsions:
REMARK  status: ('A' for Active; 'I' for Inactive)
REMARK    1  A    between atoms: C_2  and  C_3
REMARK    2  A    between atoms: C_4  and  C_5
REMARK    3  A    between atoms: C_8  and  S_9
REMARK    4  A    between atoms: S_9  and  N_12
REMARK    5  A    between atoms: N_23  and  C_24
REMARK                            x       y       z     vdW  Elec       q    Type
REMARK                         _______ _______ _______ _____ _____    ______ ____
ROOT
ATOM      1  C   UNL     1       7.327   7.989  17.202  0.00  0.00    +0.000 C 
ATOM      2  C   UNL     1       8.393   8.374  17.924  0.00  0.00    +0.000 C 
ENDROOT
BRANCH   1   4
ATOM      3  O   UNL     1       7.698   5.971  16.051  0.00  0.00    +0.000 OA
ATOM      4  C   UNL     1       7.073   6.547  16.937  0.00  0.00    +0.000 C 
ATOM      5  N   UNL     1       6.162   5.919  17.764  0.00  0.00    +0.000 N 
ATOM      6  C   UNL     1       5.240   6.592  18.690  0.00  0.00    +0.000 C 
ATOM      7  C   UNL     1       3.797   6.107  18.473  0.00  0.00    +0.000 C 
ATOM      8  N   UNL     1       3.738   4.643  18.588  0.00  0.00    +0.000 N 
ATOM      9  C   UNL     1       4.621   3.923  17.653  0.00  0.00    +0.000 C 
ATOM     10  C   UNL     1       6.072   4.448  17.770  0.00  0.00    +0.000 C 
BRANCH   8  11
ATOM     11  C   UNL     1       2.955   4.008  19.524  0.00  0.00    +0.000 A 
ATOM     12  C   UNL     1       1.560   4.166  19.558  0.00  0.00    +0.000 A 
ATOM     13  C   UNL     1       0.766   3.540  20.527  0.00  0.00    +0.000 A 
ATOM     14  C   UNL     1       1.363   2.729  21.478  0.00  0.00    +0.000 A 
ATOM     15  F   UNL     1       0.608   2.130  22.409  0.00  0.00    +0.000 F 
ATOM     16  C   UNL     1       2.731   2.532  21.475  0.00  0.00    +0.000 A 
ATOM     17  C   UNL     1       3.518   3.164  20.505  0.00  0.00    +0.000 A 
ENDBRANCH   8  11
ENDBRANCH   1   4
BRANCH   2  18
ATOM     18  C   UNL     1       8.642   9.759  18.363  0.00  0.00    +0.000 A 
ATOM     19  C   UNL     1       9.271  10.041  19.590  0.00  0.00    +0.000 A 
ATOM     20  C   UNL     1       9.598  11.352  19.948  0.00  0.00    +0.000 A 
ATOM     21  C   UNL     1       9.335  12.407  19.069  0.00  0.00    +0.000 A 
ATOM     22  C   UNL     1       8.665  12.151  17.867  0.00  0.00    +0.000 A 
ATOM     23  C   UNL     1       8.339  10.831  17.512  0.00  0.00    +0.000 A 
BRANCH  21  24
ATOM     24  S   UNL     1       9.677  14.092  19.567  0.00  0.00    +0.000 S 
ATOM     25  O   UNL     1      10.247  14.020  20.896  0.00  0.00    +0.000 OA
ATOM     26  O   UNL     1      10.414  14.703  18.479  0.00  0.00    +0.000 OA
BRANCH  24  27
ATOM     27  N   UNL     1       8.198  14.887  19.694  0.00  0.00    +0.000 NA
ATOM     28  C   UNL     1       7.611  15.588  18.524  0.00  0.00    +0.000 C 
ATOM     29  C   UNL     1       7.977  17.074  18.550  0.00  0.00    +0.000 C 
ATOM     30  O   UNL     1       7.613  17.700  19.791  0.00  0.00    +0.000 OA
ATOM     31  C   UNL     1       8.176  17.030  20.930  0.00  0.00    +0.000 C 
ATOM     32  C   UNL     1       7.794  15.550  20.960  0.00  0.00    +0.000 C 
ENDBRANCH  24  27
ENDBRANCH  21  24
ENDBRANCH   2  18
TORSDOF 5
ENDMDL
MODEL 4
REMARK VINA RESULT:      -8.3      7.860     11.748
REMARK  Name = 
REMARK  5 active torsions:
REMARK  status: ('A' for Active; 'I' for Inactive)
REMARK    1  A    between atoms: C_2  and  C_3
REMARK    2  A    between atoms: C_4  and  C_5
REMARK    3  A    between atoms: C_8  and  S_9
REMARK    4  A    between atoms: S_9  and  N_12
REMARK    5  A    between atoms: N_23  and  C_24
REMARK                            x       y       z     vdW  Elec       q    Type
REMARK                         _______ _______ _______ _____ _____    ______ ____
ROOT
ATOM      1  C   UNL     1       8.976   9.588  18.798  0.00  0.00    +0.000 C 
ATOM      2  C   UNL     1       8.398   8.968  17.756  0.00  0.00    +0.000 C 
ENDROOT
BRANCH   1   4
ATOM      3  O   UNL     1      10.377  11.079  17.637  0.00  0.00    +0.000 OA
ATOM      4  C   UNL     1       9.660  10.897  18.616  0.00  0.00    +0.000 C 
ATOM      5  N   UNL     1       9.393  11.868  19.561  0.00  0.00    +0.000 N 
ATOM      6  C   UNL     1       8.722  11.649  20.850  0.00  0.00    +0.000 C 
ATOM      7  C   UNL     1       9.551  12.235  22.005  0.00  0.00    +0.000 C 
ATOM      8  N   UNL     1       9.828  13.656  21.752  0.00  0.00    +0.000 N 
ATOM      9  C   UNL     1      10.533  13.924  20.485  0.00  0.00    +0.000 C 
ATOM     10  C   UNL     1       9.781  13.267  19.302  0.00  0.00    +0.000 C 
BRANCH   8  11
ATOM     11  C   UNL     1       9.419  14.651  22.610  0.00  0.00    +0.000 A 
ATOM     12  C   UNL     1       8.453  14.427  23.603  0.00  0.00    +0.000 A 
ATOM     13  C   UNL     1       8.018  15.446  24.459  0.00  0.00    +0.000 A 
ATOM     14  C   UNL     1       8.561  16.715  24.339  0.00  0.00    +0.000 A 
ATOM     15  F   UNL     1       8.146  17.695  25.153  0.00  0.00    +0.000 F 
ATOM     16  C   UNL     1       9.526  16.980  23.385  0.00  0.00    +0.000 A 
ATOM     17  C   UNL     1       9.952  15.956  22.531  0.00  0.00    +0.000 A 
ENDBRANCH   8  11
ENDBRANCH   1   4
BRANCH   2  18
ATOM     18  C   UNL     1       7.573   7.750  17.868  0.00  0.00    +0.000 A 
ATOM     19  C   UNL     1       7.911   6.710  18.752  0.00  0.00    +0.000 A 
ATOM     20  C   UNL     1       7.066   5.610  18.928  0.00  0.00    +0.000 A 
ATOM     21  C   UNL     1       5.847   5.544  18.247  0.00  0.00    +0.000 A 
ATOM     22  C   UNL     1       5.519   6.546  17.325  0.00  0.00    +0.000 A 
ATOM     23  C   UNL     1       6.370   7.650  17.154  0.00  0.00    +0.000 A 
BRANCH  21  24
ATOM     24  S   UNL     1       4.809   4.095  18.408  0.00  0.00    +0.000 S 
ATOM     25  O   UNL     1       4.782   3.463  17.106  0.00  0.00    +0.000 OA
ATOM     26  O   UNL     1       5.286   3.372  19.570  0.00  0.00    +0.000 OA
BRANCH  24  27
ATOM     27  N   UNL     1       3.248   4.630  18.744  0.00  0.00    +0.000 NA
ATOM     28  C   UNL     1       2.844   4.966  20.132  0.00  0.00    +0.000 C 
ATOM     29  C   UNL     1       2.163   3.766  20.797  0.00  0.00    +0.000 C 
ATOM     30  O   UNL     1       1.062   3.269  20.020  0.00  0.00    +0.000 OA
ATOM     31  C   UNL     1       1.442   2.942  18.674  0.00  0.00    +0.000 C 
ATOM     32  C   UNL     1       2.087   4.132  17.964  0.00  0.00    +0.000 C 
ENDBRANCH  24  27
ENDBRANCH  21  24
ENDBRANCH   2  18
TORSDOF 5
ENDMDL
MODEL 5
REMARK VINA RESULT:      -8.2      1.658      2.268
REMARK  Name = 
REMARK  5 active torsions:
REMARK  status: ('A' for Active; 'I' for Inactive)
REMARK    1  A    between atoms: C_2  and  C_3
REMARK    2  A    between atoms: C_4  and  C_5
REMARK    3  A    between atoms: C_8  and  S_9
REMARK    4  A    between atoms: S_9  and  N_12
REMARK    5  A    between atoms: N_23  and  C_24
REMARK                            x       y       z     vdW  Elec       q    Type
REMARK                         _______ _______ _______ _____ _____    ______ ____
ROOT
ATOM      1  C   UNL     1       1.288   6.473  20.635  0.00  0.00    +0.000 C 
ATOM      2  C   UNL     1       1.759   7.633  21.123  0.00  0.00    +0.000 C 
ENDROOT
BRANCH   1   4
ATOM      3  O   UNL     1       2.222   4.473  21.446  0.00  0.00    +0.000 OA
ATOM      4  C   UNL     1       2.173   5.282  20.525  0.00  0.00    +0.000 C 
ATOM      5  N   UNL     1       2.860   5.133  19.337  0.00  0.00    +0.000 N 
ATOM      6  C   UNL     1       3.005   6.161  18.296  0.00  0.00    +0.000 C 
ATOM      7  C   UNL     1       4.483   6.350  17.916  0.00  0.00    +0.000 C 
ATOM      8  N   UNL     1       5.068   5.062  17.518  0.00  0.00    +0.000 N 
ATOM      9  C   UNL     1       4.978   4.008  18.545  0.00  0.00    +0.000 C 
ATOM     10  C   UNL     1       3.516   3.849  19.027  0.00  0.00    +0.000 C 
BRANCH   8  11
ATOM     11  C   UNL     1       5.610   4.852  16.271  0.00  0.00    +0.000 A 
ATOM     12  C   UNL     1       6.898   5.297  15.936  0.00  0.00    +0.000 A 
ATOM     13  C   UNL     1       7.440   5.107  14.659  0.00  0.00    +0.000 A 
ATOM     14  C   UNL     1       6.696   4.450  13.693  0.00  0.00    +0.000 A 
ATOM     15  F   UNL     1       7.208   4.268  12.469  0.00  0.00    +0.000 F 
ATOM     16  C   UNL     1       5.428   3.981  13.981  0.00  0.00    +0.000 A 
ATOM     17  C   UNL     1       4.892   4.178  15.259  0.00  0.00    +0.000 A 
ENDBRANCH   8  11
ENDBRANCH   1   4
BRANCH   2  18
ATOM     18  C   UNL     1       0.924   8.815  21.409  0.00  0.00    +0.000 A 
ATOM     19  C   UNL     1       0.496   9.678  20.386  0.00  0.00    +0.000 A 
ATOM     20  C   UNL     1      -0.382  10.734  20.653  0.00  0.00    +0.000 A 
ATOM     21  C   UNL     1      -0.877  10.926  21.946  0.00  0.00    +0.000 A 
ATOM     22  C   UNL     1      -0.422  10.106  22.986  0.00  0.00    +0.000 A 
ATOM     23  C   UNL     1       0.459   9.047  22.711  0.00  0.00    +0.000 A 
BRANCH  21  24
ATOM     24  S   UNL     1      -1.931  12.328  22.301  0.00  0.00    +0.000 S 
ATOM     25  O   UNL     1      -2.434  12.796  21.027  0.00  0.00    +0.000 OA
ATOM     26  O   UNL     1      -2.843  11.906  23.345  0.00  0.00    +0.000 OA
BRANCH  24  27
ATOM     27  N   UNL     1      -0.953  13.542  22.935  0.00  0.00    +0.000 NA
ATOM     28  C   UNL     1      -1.489  14.504  23.931  0.00  0.00    +0.000 C 
ATOM     29  C   UNL     1      -1.968  15.782  23.237  0.00  0.00    +0.000 C 
ATOM     30  O   UNL     1      -0.946  16.369  22.417  0.00  0.00    +0.000 OA
ATOM     31  C   UNL     1      -0.419  15.447  21.450  0.00  0.00    +0.000 C 
ATOM     32  C   UNL     1       0.109  14.175  22.113  0.00  0.00    +0.000 C 
ENDBRANCH  24  27
ENDBRANCH  21  24
ENDBRANCH   2  18
TORSDOF 5
ENDMDL
MODEL 6
REMARK VINA RESULT:      -8.1      4.950     12.066
REMARK  Name = 
REMARK  5 active torsions:
REMARK  status: ('A' for Active; 'I' for Inactive)
REMARK    1  A    between atoms: C_2  and  C_3
REMARK    2  A    between atoms: C_4  and  C_5
REMARK    3  A    between atoms: C_8  and  S_9
REMARK    4  A    between atoms: S_9  and  N_12
REMARK    5  A    between atoms: N_23  and  C_24
REMARK                            x       y       z     vdW  Elec       q    Type
REMARK                         _______ _______ _______ _____ _____    ______ ____
ROOT
ATOM      1  C   UNL     1       1.682  10.479  19.079  0.00  0.00    +0.000 C 
ATOM      2  C   UNL     1       1.771   9.620  18.050  0.00  0.00    +0.000 C 
ENDROOT
BRANCH   1   4
ATOM      3  O   UNL     1       1.222  12.593  18.155  0.00  0.00    +0.000 OA
ATOM      4  C   UNL     1       0.882  11.728  18.957  0.00  0.00    +0.000 C 
ATOM      5  N   UNL     1      -0.253  11.812  19.738  0.00  0.00    +0.000 N 
ATOM      6  C   UNL     1      -0.594  10.917  20.854  0.00  0.00    +0.000 C 
ATOM      7  C   UNL     1      -0.932  11.725  22.118  0.00  0.00    +0.000 C 
ATOM      8  N   UNL     1      -2.002  12.689  21.826  0.00  0.00    +0.000 N 
ATOM      9  C   UNL     1      -1.691  13.632  20.736  0.00  0.00    +0.000 C 
ATOM     10  C   UNL     1      -1.252  12.862  19.467  0.00  0.00    +0.000 C 
BRANCH   8  11
ATOM     11  C   UNL     1      -3.206  12.676  22.489  0.00  0.00    +0.000 A 
ATOM     12  C   UNL     1      -4.423  12.899  21.826  0.00  0.00    +0.000 A 
ATOM     13  C   UNL     1      -5.647  12.912  22.506  0.00  0.00    +0.000 A 
ATOM     14  C   UNL     1      -5.672  12.687  23.872  0.00  0.00    +0.000 A 
ATOM     15  F   UNL     1      -6.840  12.702  24.528  0.00  0.00    +0.000 F 
ATOM     16  C   UNL     1      -4.500  12.449  24.566  0.00  0.00    +0.000 A 
ATOM     17  C   UNL     1      -3.280  12.441  23.880  0.00  0.00    +0.000 A 
ENDBRANCH   8  11
ENDBRANCH   1   4
BRANCH   2  18
ATOM     18  C   UNL     1       2.411   8.294  18.127  0.00  0.00    +0.000 A 
ATOM     19  C   UNL     1       3.238   7.815  17.096  0.00  0.00    +0.000 A 
ATOM     20  C   UNL     1       3.925   6.603  17.226  0.00  0.00    +0.000 A 
ATOM     21  C   UNL     1       3.824   5.862  18.407  0.00  0.00    +0.000 A 
ATOM     22  C   UNL     1       2.965   6.299  19.422  0.00  0.00    +0.000 A 
ATOM     23  C   UNL     1       2.279   7.517  19.287  0.00  0.00    +0.000 A 
BRANCH  21  24
ATOM     24  S   UNL     1       4.634   4.271  18.536  0.00  0.00    +0.000 S 
ATOM     25  O   UNL     1       4.457   3.830  19.903  0.00  0.00    +0.000 OA
ATOM     26  O   UNL     1       4.148   3.469  17.432  0.00  0.00    +0.000 OA
BRANCH  24  27
ATOM     27  N   UNL     1       6.281   4.526  18.297  0.00  0.00    +0.000 NA
ATOM     28  C   UNL     1       6.976   5.662  18.953  0.00  0.00    +0.000 C 
ATOM     29  C   UNL     1       7.043   6.867  18.011  0.00  0.00    +0.000 C 
ATOM     30  O   UNL     1       7.635   6.532  16.746  0.00  0.00    +0.000 OA
ATOM     31  C   UNL     1       6.971   5.434  16.101  0.00  0.00    +0.000 C 
ATOM     32  C   UNL     1       6.923   4.197  16.999  0.00  0.00    +0.000 C 
ENDBRANCH  24  27
ENDBRANCH  21  24
ENDBRANCH   2  18
TORSDOF 5
ENDMDL
MODEL 7
REMARK VINA RESULT:      -8.1      1.260      1.507
REMARK  Name = 
REMARK  5 active torsions:
REMARK  status: ('A' for Active; 'I' for Inactive)
REMARK    1  A    between atoms: C_2  and  C_3
REMARK    2  A    between atoms: C_4  and  C_5
REMARK    3  A    between atoms: C_8  and  S_9
REMARK    4  A    between atoms: S_9  and  N_12
REMARK    5  A    between atoms: N_23  and  C_24
REMARK                            x       y       z     vdW  Elec       q    Type
REMARK                         _______ _______ _______ _____ _____    ______ ____
ROOT
ATOM      1  C   UNL     1       2.212   6.945  20.120  0.00  0.00    +0.000 C 
ATOM      2  C   UNL     1       1.062   7.309  20.712  0.00  0.00    +0.000 C 
ENDROOT
BRANCH   1   4
ATOM      3  O   UNL     1       1.944   4.615  20.302  0.00  0.00    +0.000 OA
ATOM      4  C   UNL     1       2.414   5.546  19.655  0.00  0.00    +0.000 C 
ATOM      5  N   UNL     1       3.092   5.384  18.464  0.00  0.00    +0.000 N 
ATOM      6  C   UNL     1       3.852   6.429  17.761  0.00  0.00    +0.000 C 
ATOM      7  C   UNL     1       5.272   5.942  17.428  0.00  0.00    +0.000 C 
ATOM      8  N   UNL     1       5.206   4.688  16.664  0.00  0.00    +0.000 N 
ATOM      9  C   UNL     1       4.483   3.598  17.345  0.00  0.00    +0.000 C 
ATOM     10  C   UNL     1       3.078   4.076  17.785  0.00  0.00    +0.000 C 
BRANCH   8  11
ATOM     11  C   UNL     1       5.737   4.565  15.402  0.00  0.00    +0.000 A 
ATOM     12  C   UNL     1       5.105   3.813  14.399  0.00  0.00    +0.000 A 
ATOM     13  C   UNL     1       5.660   3.667  13.121  0.00  0.00    +0.000 A 
ATOM     14  C   UNL     1       6.861   4.288  12.823  0.00  0.00    +0.000 A 
ATOM     15  F   UNL     1       7.397   4.148  11.604  0.00  0.00    +0.000 F 
ATOM     16  C   UNL     1       7.513   5.050  13.774  0.00  0.00    +0.000 A 
ATOM     17  C   UNL     1       6.954   5.189  15.050  0.00  0.00    +0.000 A 
ENDBRANCH   8  11
ENDBRANCH   1   4
BRANCH   2  18
ATOM     18  C   UNL     1       0.714   8.698  21.067  0.00  0.00    +0.000 A 
ATOM     19  C   UNL     1       0.804   9.742  20.129  0.00  0.00    +0.000 A 
ATOM     20  C   UNL     1       0.370  11.033  20.443  0.00  0.00    +0.000 A 
ATOM     21  C   UNL     1      -0.196  11.300  21.693  0.00  0.00    +0.000 A 
ATOM     22  C   UNL     1      -0.247  10.284  22.656  0.00  0.00    +0.000 A 
ATOM     23  C   UNL     1       0.189   8.988  22.334  0.00  0.00    +0.000 A 
BRANCH  21  24
ATOM     24  S   UNL     1      -0.670  12.971  22.123  0.00  0.00    +0.000 S 
ATOM     25  O   UNL     1      -1.592  12.864  23.234  0.00  0.00    +0.000 OA
ATOM     26  O   UNL     1       0.559  13.728  22.254  0.00  0.00    +0.000 OA
BRANCH  24  27
ATOM     27  N   UNL     1      -1.524  13.602  20.816  0.00  0.00    +0.000 NA
ATOM     28  C   UNL     1      -1.721  15.067  20.675  0.00  0.00    +0.000 C 
ATOM     29  C   UNL     1      -3.069  15.485  21.267  0.00  0.00    +0.000 C 
ATOM     30  O   UNL     1      -4.161  14.739  20.707  0.00  0.00    +0.000 OA
ATOM     31  C   UNL     1      -3.982  13.320  20.838  0.00  0.00    +0.000 C 
ATOM     32  C   UNL     1      -2.662  12.859  20.219  0.00  0.00    +0.000 C 
ENDBRANCH  24  27
ENDBRANCH  21  24
ENDBRANCH   2  18
TORSDOF 5
ENDMDL
MODEL 8
REMARK VINA RESULT:      -8.1      1.192      1.687
REMARK  Name = 
REMARK  5 active torsions:
REMARK  status: ('A' for Active; 'I' for Inactive)
REMARK    1  A    between atoms: C_2  and  C_3
REMARK    2  A    between atoms: C_4  and  C_5
REMARK    3  A    between atoms: C_8  and  S_9
REMARK    4  A    between atoms: S_9  and  N_12
REMARK    5  A    between atoms: N_23  and  C_24
REMARK                            x       y       z     vdW  Elec       q    Type
REMARK                         _______ _______ _______ _____ _____    ______ ____
ROOT
ATOM      1  C   UNL     1       1.611   7.418  20.222  0.00  0.00    +0.000 C 
ATOM      2  C   UNL     1       1.091   7.872  21.374  0.00  0.00    +0.000 C 
ENDROOT
BRANCH   1   4
ATOM      3  O   UNL     1       2.259   5.350  21.136  0.00  0.00    +0.000 OA
ATOM      4  C   UNL     1       2.318   6.109  20.173  0.00  0.00    +0.000 C 
ATOM      5  N   UNL     1       2.967   5.803  18.994  0.00  0.00    +0.000 N 
ATOM      6  C   UNL     1       3.248   6.745  17.900  0.00  0.00    +0.000 C 
ATOM      7  C   UNL     1       4.734   6.703  17.510  0.00  0.00    +0.000 C 
ATOM      8  N   UNL     1       5.128   5.326  17.179  0.00  0.00    +0.000 N 
ATOM      9  C   UNL     1       4.898   4.350  18.261  0.00  0.00    +0.000 C 
ATOM     10  C   UNL     1       3.432   4.425  18.751  0.00  0.00    +0.000 C 
BRANCH   8  11
ATOM     11  C   UNL     1       5.625   4.978  15.945  0.00  0.00    +0.000 A 
ATOM     12  C   UNL     1       4.857   4.273  15.005  0.00  0.00    +0.000 A 
ATOM     13  C   UNL     1       5.372   3.895  13.759  0.00  0.00    +0.000 A 
ATOM     14  C   UNL     1       6.673   4.234  13.428  0.00  0.00    +0.000 A 
ATOM     15  F   UNL     1       7.172   3.872  12.238  0.00  0.00    +0.000 F 
ATOM     16  C   UNL     1       7.463   4.940  14.315  0.00  0.00    +0.000 A 
ATOM     17  C   UNL     1       6.942   5.310  15.561  0.00  0.00    +0.000 A 
ENDBRANCH   8  11
ENDBRANCH   1   4
BRANCH   2  18
ATOM     18  C   UNL     1       0.248   9.077  21.488  0.00  0.00    +0.000 A 
ATOM     19  C   UNL     1      -0.267   9.501  22.726  0.00  0.00    +0.000 A 
ATOM     20  C   UNL     1      -0.975  10.702  22.839  0.00  0.00    +0.000 A 
ATOM     21  C   UNL     1      -1.152  11.521  21.721  0.00  0.00    +0.000 A 
ATOM     22  C   UNL     1      -0.690  11.090  20.472  0.00  0.00    +0.000 A 
ATOM     23  C   UNL     1       0.022   9.884  20.363  0.00  0.00    +0.000 A 
BRANCH  21  24
ATOM     24  S   UNL     1      -2.132  13.013  21.852  0.00  0.00    +0.000 S 
ATOM     25  O   UNL     1      -1.404  14.046  21.146  0.00  0.00    +0.000 OA
ATOM     26  O   UNL     1      -3.481  12.658  21.456  0.00  0.00    +0.000 OA
BRANCH  24  27
ATOM     27  N   UNL     1      -2.173  13.445  23.478  0.00  0.00    +0.000 NA
ATOM     28  C   UNL     1      -3.451  13.438  24.233  0.00  0.00    +0.000 C 
ATOM     29  C   UNL     1      -4.077  14.836  24.241  0.00  0.00    +0.000 C 
ATOM     30  O   UNL     1      -3.167  15.833  24.732  0.00  0.00    +0.000 OA
ATOM     31  C   UNL     1      -1.926  15.849  24.009  0.00  0.00    +0.000 C 
ATOM     32  C   UNL     1      -1.251  14.477  24.017  0.00  0.00    +0.000 C 
ENDBRANCH  24  27
ENDBRANCH  21  24
ENDBRANCH   2  18
TORSDOF 5
ENDMDL
MODEL 9
REMARK VINA RESULT:      -8.0      5.220     11.598
REMARK  Name = 
REMARK  5 active torsions:
REMARK  status: ('A' for Active; 'I' for Inactive)
REMARK    1  A    between atoms: C_2  and  C_3
REMARK    2  A    between atoms: C_4  and  C_5
REMARK    3  A    between atoms: C_8  and  S_9
REMARK    4  A    between atoms: S_9  and  N_12
REMARK    5  A    between atoms: N_23  and  C_24
REMARK                            x       y       z     vdW  Elec       q    Type
REMARK                         _______ _______ _______ _____ _____    ______ ____
ROOT
ATOM      1  C   UNL     1       1.645  10.611  19.013  0.00  0.00    +0.000 C 
ATOM      2  C   UNL     1       1.623   9.567  18.168  0.00  0.00    +0.000 C 
ENDROOT
BRANCH   1   4
ATOM      3  O   UNL     1       0.944  12.566  17.910  0.00  0.00    +0.000 OA
ATOM      4  C   UNL     1       0.728  11.766  18.815  0.00  0.00    +0.000 C 
ATOM      5  N   UNL     1      -0.367  11.834  19.653  0.00  0.00    +0.000 N 
ATOM      6  C   UNL     1      -0.564  11.038  20.873  0.00  0.00    +0.000 C 
ATOM      7  C   UNL     1      -0.907  11.943  22.067  0.00  0.00    +0.000 C 
ATOM      8  N   UNL     1      -2.075  12.775  21.746  0.00  0.00    +0.000 N 
ATOM      9  C   UNL     1      -1.912  13.619  20.549  0.00  0.00    +0.000 C 
ATOM     10  C   UNL     1      -1.471  12.759  19.340  0.00  0.00    +0.000 C 
BRANCH   8  11
ATOM     11  C   UNL     1      -3.237  12.729  22.481  0.00  0.00    +0.000 A 
ATOM     12  C   UNL     1      -3.240  12.422  23.851  0.00  0.00    +0.000 A 
ATOM     13  C   UNL     1      -4.425  12.349  24.592  0.00  0.00    +0.000 A 
ATOM     14  C   UNL     1      -5.637  12.598  23.969  0.00  0.00    +0.000 A 
ATOM     15  F   UNL     1      -6.774  12.527  24.673  0.00  0.00    +0.000 F 
ATOM     16  C   UNL     1      -5.683  12.919  22.625  0.00  0.00    +0.000 A 
ATOM     17  C   UNL     1      -4.494  12.986  21.890  0.00  0.00    +0.000 A 
ENDBRANCH   8  11
ENDBRANCH   1   4
BRANCH   2  18
ATOM     18  C   UNL     1       2.382   8.318  18.369  0.00  0.00    +0.000 A 
ATOM     19  C   UNL     1       2.213   7.531  19.522  0.00  0.00    +0.000 A 
ATOM     20  C   UNL     1       2.857   6.297  19.654  0.00  0.00    +0.000 A 
ATOM     21  C   UNL     1       3.658   5.808  18.618  0.00  0.00    +0.000 A 
ATOM     22  C   UNL     1       3.878   6.602  17.485  0.00  0.00    +0.000 A 
ATOM     23  C   UNL     1       3.227   7.840  17.357  0.00  0.00    +0.000 A 
BRANCH  21  24
ATOM     24  S   UNL     1       4.549   4.271  18.825  0.00  0.00    +0.000 S 
ATOM     25  O   UNL     1       5.226   4.016  17.572  0.00  0.00    +0.000 OA
ATOM     26  O   UNL     1       5.301   4.391  20.059  0.00  0.00    +0.000 OA
BRANCH  24  27
ATOM     27  N   UNL     1       3.406   3.053  19.039  0.00  0.00    +0.000 NA
ATOM     28  C   UNL     1       2.305   2.867  18.062  0.00  0.00    +0.000 C 
ATOM     29  C   UNL     1       1.046   3.603  18.526  0.00  0.00    +0.000 C 
ATOM     30  O   UNL     1       0.656   3.223  19.855  0.00  0.00    +0.000 OA
ATOM     31  C   UNL     1       1.714   3.399  20.810  0.00  0.00    +0.000 C 
ATOM     32  C   UNL     1       2.976   2.641  20.399  0.00  0.00    +0.000 C 
ENDBRANCH  24  27
ENDBRANCH  21  24
ENDBRANCH   2  18
TORSDOF 5
ENDMDL
