MODEL 1
REMARK VINA RESULT:      -7.0      0.000      0.000
REMARK  Name = 
REMARK  7 active torsions:
REMARK  status: ('A' for Active; 'I' for Inactive)
REMARK    1  A    between atoms: C_1  and  C_2
REMARK    2  A    between atoms: C_2  and  C_3
REMARK    3  A    between atoms: C_6  and  C_7
REMARK    4  A    between atoms: C_7  and  C_9
REMARK    5  A    between atoms: C_12  and  O_13
REMARK    6  A    between atoms: O_13  and  C_14
REMARK    7  A    between atoms: N_17  and  C_18
REMARK                            x       y       z     vdW  Elec       q    Type
REMARK                         _______ _______ _______ _____ _____    ______ ____
ROOT
ATOM      1  C   UNL     1       5.611   4.914  18.945  0.00  0.00    +0.000 C 
ATOM      2  O   UNL     1       6.530   5.097  19.737  0.00  0.00    +0.000 OA
ENDROOT
BRANCH   1   6
ATOM      3  C   UNL     1       2.217   4.070  19.990  0.00  0.00    +0.000 A 
ATOM      4  N   UNL     1       2.088   5.378  19.929  0.00  0.00    +0.000 NA
ATOM      5  C   UNL     1       3.297   5.849  19.511  0.00  0.00    +0.000 A 
ATOM      6  C   UNL     1       4.220   4.830  19.348  0.00  0.00    +0.000 A 
ATOM      7  N   UNL     1       3.491   3.686  19.618  0.00  0.00    +0.000 N 
ATOM      8  C   UNL     1       3.957   2.320  19.570  0.00  0.00    +0.000 C 
BRANCH   3  10
ATOM      9  C   UNL     1       1.349   2.604  21.808  0.00  0.00    +0.000 C 
ATOM     10  C   UNL     1       1.131   3.130  20.398  0.00  0.00    +0.000 C 
ENDBRANCH   3  10
ENDBRANCH   1   6
BRANCH   1  11
ATOM     11  C   UNL     1       5.957   4.762  17.498  0.00  0.00    +0.000 A 
ATOM     12  C   UNL     1       4.978   4.325  16.600  0.00  0.00    +0.000 A 
ATOM     13  C   UNL     1       5.280   4.204  15.239  0.00  0.00    +0.000 A 
ATOM     14  C   UNL     1       6.553   4.527  14.761  0.00  0.00    +0.000 A 
ATOM     15  C   UNL     1       7.544   4.915  15.661  0.00  0.00    +0.000 A 
ATOM     16  C   UNL     1       7.251   5.019  17.025  0.00  0.00    +0.000 A 
BRANCH  14  17
ATOM     17  O   UNL     1       6.733   4.381  13.414  0.00  0.00    +0.000 OA
ATOM     18  C   UNL     1       5.826   3.491  12.768  0.00  0.00    +0.000 C 
ENDBRANCH  14  17
ENDBRANCH   1  11
TORSDOF 4
ENDMDL
MODEL 2
REMARK VINA RESULT:      -7.0      0.467      1.127
REMARK  Name = 
REMARK  7 active torsions:
REMARK  status: ('A' for Active; 'I' for Inactive)
REMARK    1  A    between atoms: C_1  and  C_2
REMARK    2  A    between atoms: C_2  and  C_3
REMARK    3  A    between atoms: C_6  and  C_7
REMARK    4  A    between atoms: C_7  and  C_9
REMARK    5  A    between atoms: C_12  and  O_13
REMARK    6  A    between atoms: O_13  and  C_14
REMARK    7  A    between atoms: N_17  and  C_18
REMARK                            x       y       z     vdW  Elec       q    Type
REMARK                         _______ _______ _______ _____ _____    ______ ____
ROOT
ATOM      1  C   UNL     1       5.572   5.145  18.978  0.00  0.00    +0.000 C 
ATOM      2  O   UNL     1       6.496   5.310  19.769  0.00  0.00    +0.000 OA
ENDROOT
BRANCH   1   6
ATOM      3  C   UNL     1       2.221   4.138  20.013  0.00  0.00    +0.000 A 
ATOM      4  N   UNL     1       2.050   5.442  20.025  0.00  0.00    +0.000 NA
ATOM      5  C   UNL     1       3.237   5.973  19.620  0.00  0.00    +0.000 A 
ATOM      6  C   UNL     1       4.190   4.995  19.391  0.00  0.00    +0.000 A 
ATOM      7  N   UNL     1       3.501   3.816  19.607  0.00  0.00    +0.000 N 
ATOM      8  C   UNL     1       4.009   2.470  19.479  0.00  0.00    +0.000 C 
BRANCH   3  10
ATOM      9  C   UNL     1       1.372   2.615  21.794  0.00  0.00    +0.000 C 
ATOM     10  C   UNL     1       1.170   3.142  20.382  0.00  0.00    +0.000 C 
ENDBRANCH   3  10
ENDBRANCH   1   6
BRANCH   1  11
ATOM     11  C   UNL     1       5.904   5.087  17.521  0.00  0.00    +0.000 A 
ATOM     12  C   UNL     1       7.183   4.683  17.124  0.00  0.00    +0.000 A 
ATOM     13  C   UNL     1       7.500   4.599  15.763  0.00  0.00    +0.000 A 
ATOM     14  C   UNL     1       6.543   4.903  14.790  0.00  0.00    +0.000 A 
ATOM     15  C   UNL     1       5.285   5.355  15.184  0.00  0.00    +0.000 A 
ATOM     16  C   UNL     1       4.971   5.458  16.543  0.00  0.00    +0.000 A 
BRANCH  14  17
ATOM     17  O   UNL     1       6.958   4.777  13.493  0.00  0.00    +0.000 OA
ATOM     18  C   UNL     1       6.398   3.680  12.776  0.00  0.00    +0.000 C 
ENDBRANCH  14  17
ENDBRANCH   1  11
TORSDOF 4
ENDMDL
MODEL 3
REMARK VINA RESULT:      -6.8      2.083      3.727
REMARK  Name = 
REMARK  7 active torsions:
REMARK  status: ('A' for Active; 'I' for Inactive)
REMARK    1  A    between atoms: C_1  and  C_2
REMARK    2  A    between atoms: C_2  and  C_3
REMARK    3  A    between atoms: C_6  and  C_7
REMARK    4  A    between atoms: C_7  and  C_9
REMARK    5  A    between atoms: C_12  and  O_13
REMARK    6  A    between atoms: O_13  and  C_14
REMARK    7  A    between atoms: N_17  and  C_18
REMARK                            x       y       z     vdW  Elec       q    Type
REMARK                         _______ _______ _______ _____ _____    ______ ____
ROOT
ATOM      1  C   UNL     1       4.930   4.099  16.588  0.00  0.00    +0.000 C 
ATOM      2  O   UNL     1       4.951   3.907  15.376  0.00  0.00    +0.000 OA
ENDROOT
BRANCH   1   6
ATOM      3  C   UNL     1       2.275   3.024  18.849  0.00  0.00    +0.000 A 
ATOM      4  N   UNL     1       2.920   1.882  18.741  0.00  0.00    +0.000 NA
ATOM      5  C   UNL     1       3.985   2.135  17.930  0.00  0.00    +0.000 A 
ATOM      6  C   UNL     1       3.992   3.445  17.480  0.00  0.00    +0.000 A 
ATOM      7  N   UNL     1       2.906   4.013  18.121  0.00  0.00    +0.000 N 
ATOM      8  C   UNL     1       2.458   5.383  18.033  0.00  0.00    +0.000 C 
BRANCH   3  10
ATOM      9  C   UNL     1       1.277   2.943  21.131  0.00  0.00    +0.000 C 
ATOM     10  C   UNL     1       1.034   3.222  19.656  0.00  0.00    +0.000 C 
ENDBRANCH   3  10
ENDBRANCH   1   6
BRANCH   1  11
ATOM     11  C   UNL     1       5.919   5.066  17.158  0.00  0.00    +0.000 A 
ATOM     12  C   UNL     1       5.991   6.362  16.636  0.00  0.00    +0.000 A 
ATOM     13  C   UNL     1       6.893   7.285  17.177  0.00  0.00    +0.000 A 
ATOM     14  C   UNL     1       7.719   6.929  18.247  0.00  0.00    +0.000 A 
ATOM     15  C   UNL     1       7.686   5.624  18.734  0.00  0.00    +0.000 A 
ATOM     16  C   UNL     1       6.798   4.693  18.184  0.00  0.00    +0.000 A 
BRANCH  14  17
ATOM     17  O   UNL     1       8.554   7.912  18.702  0.00  0.00    +0.000 OA
ATOM     18  C   UNL     1       8.351   9.201  18.127  0.00  0.00    +0.000 C 
ENDBRANCH  14  17
ENDBRANCH   1  11
TORSDOF 4
ENDMDL
MODEL 4
REMARK VINA RESULT:      -6.7      2.927      6.103
REMARK  Name = 
REMARK  7 active torsions:
REMARK  status: ('A' for Active; 'I' for Inactive)
REMARK    1  A    between atoms: C_1  and  C_2
REMARK    2  A    between atoms: C_2  and  C_3
REMARK    3  A    between atoms: C_6  and  C_7
REMARK    4  A    between atoms: C_7  and  C_9
REMARK    5  A    between atoms: C_12  and  O_13
REMARK    6  A    between atoms: O_13  and  C_14
REMARK    7  A    between atoms: N_17  and  C_18
REMARK                            x       y       z     vdW  Elec       q    Type
REMARK                         _______ _______ _______ _____ _____    ______ ____
ROOT
ATOM      1  C   UNL     1       5.229   4.092  16.681  0.00  0.00    +0.000 C 
ATOM      2  O   UNL     1       5.591   3.345  15.778  0.00  0.00    +0.000 OA
ENDROOT
BRANCH   1   6
ATOM      3  C   UNL     1       7.145   7.070  17.567  0.00  0.00    +0.000 A 
ATOM      4  N   UNL     1       6.182   7.648  16.881  0.00  0.00    +0.000 NA
ATOM      5  C   UNL     1       5.347   6.642  16.499  0.00  0.00    +0.000 A 
ATOM      6  C   UNL     1       5.808   5.403  16.908  0.00  0.00    +0.000 A 
ATOM      7  N   UNL     1       6.946   5.705  17.634  0.00  0.00    +0.000 N 
ATOM      8  C   UNL     1       7.817   4.779  18.319  0.00  0.00    +0.000 C 
BRANCH   3  10
ATOM      9  C   UNL     1       8.224   9.288  17.921  0.00  0.00    +0.000 C 
ATOM     10  C   UNL     1       8.292   7.793  18.192  0.00  0.00    +0.000 C 
ENDBRANCH   3  10
ENDBRANCH   1   6
BRANCH   1  11
ATOM     11  C   UNL     1       4.144   3.612  17.592  0.00  0.00    +0.000 A 
ATOM     12  C   UNL     1       4.454   3.285  18.916  0.00  0.00    +0.000 A 
ATOM     13  C   UNL     1       3.445   2.860  19.787  0.00  0.00    +0.000 A 
ATOM     14  C   UNL     1       2.120   2.768  19.350  0.00  0.00    +0.000 A 
ATOM     15  C   UNL     1       1.817   3.045  18.018  0.00  0.00    +0.000 A 
ATOM     16  C   UNL     1       2.827   3.453  17.140  0.00  0.00    +0.000 A 
BRANCH  14  17
ATOM     17  O   UNL     1       1.216   2.352  20.287  0.00  0.00    +0.000 OA
ATOM     18  C   UNL     1       1.550   2.658  21.638  0.00  0.00    +0.000 C 
ENDBRANCH  14  17
ENDBRANCH   1  11
TORSDOF 4
ENDMDL
MODEL 5
REMARK VINA RESULT:      -6.6      2.096      3.778
REMARK  Name = 
REMARK  7 active torsions:
REMARK  status: ('A' for Active; 'I' for Inactive)
REMARK    1  A    between atoms: C_1  and  C_2
REMARK    2  A    between atoms: C_2  and  C_3
REMARK    3  A    between atoms: C_6  and  C_7
REMARK    4  A    between atoms: C_7  and  C_9
REMARK    5  A    between atoms: C_12  and  O_13
REMARK    6  A    between atoms: O_13  and  C_14
REMARK    7  A    between atoms: N_17  and  C_18
REMARK                            x       y       z     vdW  Elec       q    Type
REMARK                         _______ _______ _______ _____ _____    ______ ____
ROOT
ATOM      1  C   UNL     1       4.927   4.048  16.588  0.00  0.00    +0.000 C 
ATOM      2  O   UNL     1       5.012   3.766  15.397  0.00  0.00    +0.000 OA
ENDROOT
BRANCH   1   6
ATOM      3  C   UNL     1       2.259   3.060  18.873  0.00  0.00    +0.000 A 
ATOM      4  N   UNL     1       2.858   1.894  18.750  0.00  0.00    +0.000 NA
ATOM      5  C   UNL     1       3.923   2.113  17.928  0.00  0.00    +0.000 A 
ATOM      6  C   UNL     1       3.975   3.424  17.487  0.00  0.00    +0.000 A 
ATOM      7  N   UNL     1       2.919   4.029  18.144  0.00  0.00    +0.000 N 
ATOM      8  C   UNL     1       2.523   5.416  18.071  0.00  0.00    +0.000 C 
BRANCH   3  10
ATOM      9  C   UNL     1       1.373   3.426  21.173  0.00  0.00    +0.000 C 
ATOM     10  C   UNL     1       1.036   3.300  19.696  0.00  0.00    +0.000 C 
ENDBRANCH   3  10
ENDBRANCH   1   6
BRANCH   1  11
ATOM     11  C   UNL     1       5.851   5.096  17.124  0.00  0.00    +0.000 A 
ATOM     12  C   UNL     1       6.785   4.750  18.106  0.00  0.00    +0.000 A 
ATOM     13  C   UNL     1       7.673   5.714  18.598  0.00  0.00    +0.000 A 
ATOM     14  C   UNL     1       7.646   7.022  18.107  0.00  0.00    +0.000 A 
ATOM     15  C   UNL     1       6.684   7.381  17.165  0.00  0.00    +0.000 A 
ATOM     16  C   UNL     1       5.782   6.425  16.685  0.00  0.00    +0.000 A 
BRANCH  14  17
ATOM     17  O   UNL     1       8.565   7.877  18.651  0.00  0.00    +0.000 OA
ATOM     18  C   UNL     1       8.430   9.243  18.268  0.00  0.00    +0.000 C 
ENDBRANCH  14  17
ENDBRANCH   1  11
TORSDOF 4
ENDMDL
MODEL 6
REMARK VINA RESULT:      -6.6      0.798      1.964
REMARK  Name = 
REMARK  7 active torsions:
REMARK  status: ('A' for Active; 'I' for Inactive)
REMARK    1  A    between atoms: C_1  and  C_2
REMARK    2  A    between atoms: C_2  and  C_3
REMARK    3  A    between atoms: C_6  and  C_7
REMARK    4  A    between atoms: C_7  and  C_9
REMARK    5  A    between atoms: C_12  and  O_13
REMARK    6  A    between atoms: O_13  and  C_14
REMARK    7  A    between atoms: N_17  and  C_18
REMARK                            x       y       z     vdW  Elec       q    Type
REMARK                         _______ _______ _______ _____ _____    ______ ____
ROOT
ATOM      1  C   UNL     1       5.771   4.616  18.905  0.00  0.00    +0.000 C 
ATOM      2  O   UNL     1       6.554   5.219  19.632  0.00  0.00    +0.000 OA
ENDROOT
BRANCH   1   6
ATOM      3  C   UNL     1       2.508   3.380  19.972  0.00  0.00    +0.000 A 
ATOM      4  N   UNL     1       3.234   2.331  20.297  0.00  0.00    +0.000 NA
ATOM      5  C   UNL     1       4.518   2.660  19.979  0.00  0.00    +0.000 A 
ATOM      6  C   UNL     1       4.602   3.916  19.403  0.00  0.00    +0.000 A 
ATOM      7  N   UNL     1       3.301   4.381  19.449  0.00  0.00    +0.000 N 
ATOM      8  C   UNL     1       2.815   5.665  19.000  0.00  0.00    +0.000 C 
BRANCH   3  10
ATOM      9  C   UNL     1       0.284   2.698  19.076  0.00  0.00    +0.000 C 
ATOM     10  C   UNL     1       1.028   3.473  20.152  0.00  0.00    +0.000 C 
ENDBRANCH   3  10
ENDBRANCH   1   6
BRANCH   1  11
ATOM     11  C   UNL     1       6.055   4.600  17.436  0.00  0.00    +0.000 A 
ATOM     12  C   UNL     1       7.091   5.392  16.929  0.00  0.00    +0.000 A 
ATOM     13  C   UNL     1       7.385   5.368  15.561  0.00  0.00    +0.000 A 
ATOM     14  C   UNL     1       6.659   4.548  14.692  0.00  0.00    +0.000 A 
ATOM     15  C   UNL     1       5.594   3.797  15.187  0.00  0.00    +0.000 A 
ATOM     16  C   UNL     1       5.286   3.833  16.551  0.00  0.00    +0.000 A 
BRANCH  14  17
ATOM     17  O   UNL     1       7.038   4.596  13.379  0.00  0.00    +0.000 OA
ATOM     18  C   UNL     1       6.379   3.671  12.519  0.00  0.00    +0.000 C 
ENDBRANCH  14  17
ENDBRANCH   1  11
TORSDOF 4
ENDMDL
MODEL 7
REMARK VINA RESULT:      -6.4      2.957      6.242
REMARK  Name = 
REMARK  7 active torsions:
REMARK  status: ('A' for Active; 'I' for Inactive)
REMARK    1  A    between atoms: C_1  and  C_2
REMARK    2  A    between atoms: C_2  and  C_3
REMARK    3  A    between atoms: C_6  and  C_7
REMARK    4  A    between atoms: C_7  and  C_9
REMARK    5  A    between atoms: C_12  and  O_13
REMARK    6  A    between atoms: O_13  and  C_14
REMARK    7  A    between atoms: N_17  and  C_18
REMARK                            x       y       z     vdW  Elec       q    Type
REMARK                         _______ _______ _______ _____ _____    ______ ____
ROOT
ATOM      1  C   UNL     1       5.402   4.073  17.054  0.00  0.00    +0.000 C 
ATOM      2  O   UNL     1       5.570   3.385  16.053  0.00  0.00    +0.000 OA
ENDROOT
BRANCH   1   6
ATOM      3  C   UNL     1       7.315   7.109  17.718  0.00  0.00    +0.000 A 
ATOM      4  N   UNL     1       8.028   6.264  18.431  0.00  0.00    +0.000 NA
ATOM      5  C   UNL     1       7.442   5.046  18.254  0.00  0.00    +0.000 A 
ATOM      6  C   UNL     1       6.314   5.127  17.456  0.00  0.00    +0.000 A 
ATOM      7  N   UNL     1       6.275   6.459  17.084  0.00  0.00    +0.000 N 
ATOM      8  C   UNL     1       5.309   7.098  16.220  0.00  0.00    +0.000 C 
BRANCH   3  10
ATOM      9  C   UNL     1       8.670   9.010  18.592  0.00  0.00    +0.000 C 
ATOM     10  C   UNL     1       7.597   8.572  17.607  0.00  0.00    +0.000 C 
ENDBRANCH   3  10
ENDBRANCH   1   6
BRANCH   1  11
ATOM     11  C   UNL     1       4.198   3.794  17.898  0.00  0.00    +0.000 A 
ATOM     12  C   UNL     1       4.363   3.187  19.147  0.00  0.00    +0.000 A 
ATOM     13  C   UNL     1       3.249   2.945  19.959  0.00  0.00    +0.000 A 
ATOM     14  C   UNL     1       1.969   3.316  19.540  0.00  0.00    +0.000 A 
ATOM     15  C   UNL     1       1.797   3.875  18.275  0.00  0.00    +0.000 A 
ATOM     16  C   UNL     1       2.906   4.102  17.452  0.00  0.00    +0.000 A 
BRANCH  14  17
ATOM     17  O   UNL     1       0.956   3.040  20.417  0.00  0.00    +0.000 OA
ATOM     18  C   UNL     1       1.369   2.635  21.719  0.00  0.00    +0.000 C 
ENDBRANCH  14  17
ENDBRANCH   1  11
TORSDOF 4
ENDMDL
MODEL 8
REMARK VINA RESULT:      -6.4      0.885      1.585
REMARK  Name = 
REMARK  7 active torsions:
REMARK  status: ('A' for Active; 'I' for Inactive)
REMARK    1  A    between atoms: C_1  and  C_2
REMARK    2  A    between atoms: C_2  and  C_3
REMARK    3  A    between atoms: C_6  and  C_7
REMARK    4  A    between atoms: C_7  and  C_9
REMARK    5  A    between atoms: C_12  and  O_13
REMARK    6  A    between atoms: O_13  and  C_14
REMARK    7  A    between atoms: N_17  and  C_18
REMARK                            x       y       z     vdW  Elec       q    Type
REMARK                         _______ _______ _______ _____ _____    ______ ____
ROOT
ATOM      1  C   UNL     1       5.567   5.124  18.187  0.00  0.00    +0.000 C 
ATOM      2  O   UNL     1       6.127   6.078  18.717  0.00  0.00    +0.000 OA
ENDROOT
BRANCH   1   6
ATOM      3  C   UNL     1       2.768   3.480  19.855  0.00  0.00    +0.000 A 
ATOM      4  N   UNL     1       3.651   2.508  19.941  0.00  0.00    +0.000 NA
ATOM      5  C   UNL     1       4.790   2.993  19.374  0.00  0.00    +0.000 A 
ATOM      6  C   UNL     1       4.616   4.275  18.880  0.00  0.00    +0.000 A 
ATOM      7  N   UNL     1       3.318   4.587  19.240  0.00  0.00    +0.000 N 
ATOM      8  C   UNL     1       2.617   5.826  18.996  0.00  0.00    +0.000 C 
BRANCH   3  10
ATOM      9  C   UNL     1       1.299   2.713  21.716  0.00  0.00    +0.000 C 
ATOM     10  C   UNL     1       1.365   3.397  20.360  0.00  0.00    +0.000 C 
ENDBRANCH   3  10
ENDBRANCH   1   6
BRANCH   1  11
ATOM     11  C   UNL     1       5.899   4.826  16.759  0.00  0.00    +0.000 A 
ATOM     12  C   UNL     1       4.932   4.234  15.939  0.00  0.00    +0.000 A 
ATOM     13  C   UNL     1       5.219   3.974  14.594  0.00  0.00    +0.000 A 
ATOM     14  C   UNL     1       6.463   4.313  14.054  0.00  0.00    +0.000 A 
ATOM     15  C   UNL     1       7.445   4.857  14.881  0.00  0.00    +0.000 A 
ATOM     16  C   UNL     1       7.168   5.101  16.231  0.00  0.00    +0.000 A 
BRANCH  14  17
ATOM     17  O   UNL     1       6.631   4.023  12.728  0.00  0.00    +0.000 OA
ATOM     18  C   UNL     1       5.699   3.093  12.183  0.00  0.00    +0.000 C 
ENDBRANCH  14  17
ENDBRANCH   1  11
TORSDOF 4
ENDMDL
MODEL 9
REMARK VINA RESULT:      -6.3      2.937      6.182
REMARK  Name = 
REMARK  7 active torsions:
REMARK  status: ('A' for Active; 'I' for Inactive)
REMARK    1  A    between atoms: C_1  and  C_2
REMARK    2  A    between atoms: C_2  and  C_3
REMARK    3  A    between atoms: C_6  and  C_7
REMARK    4  A    between atoms: C_7  and  C_9
REMARK    5  A    between atoms: C_12  and  O_13
REMARK    6  A    between atoms: O_13  and  C_14
REMARK    7  A    between atoms: N_17  and  C_18
REMARK                            x       y       z     vdW  Elec       q    Type
REMARK                         _______ _______ _______ _____ _____    ______ ____
ROOT
ATOM      1  C   UNL     1       5.309   4.059  16.851  0.00  0.00    +0.000 C 
ATOM      2  O   UNL     1       5.345   3.468  15.776  0.00  0.00    +0.000 OA
ENDROOT
BRANCH   1   6
ATOM      3  C   UNL     1       7.276   7.049  17.563  0.00  0.00    +0.000 A 
ATOM      4  N   UNL     1       8.101   6.147  18.048  0.00  0.00    +0.000 NA
ATOM      5  C   UNL     1       7.505   4.942  17.822  0.00  0.00    +0.000 A 
ATOM      6  C   UNL     1       6.264   5.084  17.227  0.00  0.00    +0.000 A 
ATOM      7  N   UNL     1       6.154   6.448  17.027  0.00  0.00    +0.000 N 
ATOM      8  C   UNL     1       5.058   7.156  16.408  0.00  0.00    +0.000 C 
BRANCH   3  10
ATOM      9  C   UNL     1       8.616   8.890  18.575  0.00  0.00    +0.000 C 
ATOM     10  C   UNL     1       7.523   8.522  17.584  0.00  0.00    +0.000 C 
ENDBRANCH   3  10
ENDBRANCH   1   6
BRANCH   1  11
ATOM     11  C   UNL     1       4.228   3.686  17.815  0.00  0.00    +0.000 A 
ATOM     12  C   UNL     1       2.889   3.864  17.448  0.00  0.00    +0.000 A 
ATOM     13  C   UNL     1       1.867   3.495  18.330  0.00  0.00    +0.000 A 
ATOM     14  C   UNL     1       2.169   2.936  19.575  0.00  0.00    +0.000 A 
ATOM     15  C   UNL     1       3.501   2.804  19.963  0.00  0.00    +0.000 A 
ATOM     16  C   UNL     1       4.526   3.189  19.091  0.00  0.00    +0.000 A 
BRANCH  14  17
ATOM     17  O   UNL     1       1.093   2.604  20.350  0.00  0.00    +0.000 OA
ATOM     18  C   UNL     1       1.302   2.693  21.757  0.00  0.00    +0.000 C 
ENDBRANCH  14  17
ENDBRANCH   1  11
TORSDOF 4
ENDMDL
