MODEL 1
REMARK VINA RESULT:      -7.5      0.000      0.000
REMARK  Name = 
REMARK  6 active torsions:
REMARK  status: ('A' for Active; 'I' for Inactive)
REMARK    1  A    between atoms: C_1  and  O_2
REMARK    2  A    between atoms: O_2  and  C_3
REMARK    3  A    between atoms: C_3  and  C_5
REMARK    4  A    between atoms: N_7  and  N_8
REMARK    5  A    between atoms: N_8  and  C_9
REMARK    6  A    between atoms: C_12  and  C_13
REMARK                            x       y       z     vdW  Elec       q    Type
REMARK                         _______ _______ _______ _____ _____    ______ ____
ROOT
ATOM      1  C   UNL     1      -0.633  10.441  19.325  0.00  0.00    +0.000 A 
ATOM      2  C   UNL     1       0.377   9.558  19.298  0.00  0.00    +0.000 A 
ATOM      3  N   UNL     1       0.931   8.997  20.430  0.00  0.00    +0.000 N 
ATOM      4  C   UNL     1       0.575   9.378  21.724  0.00  0.00    +0.000 A 
ATOM      5  O   UNL     1       1.108   8.924  22.735  0.00  0.00    +0.000 OA
ATOM      6  C   UNL     1      -0.484  10.426  21.820  0.00  0.00    +0.000 A 
ATOM      7  C   UNL     1      -0.822  10.936  23.084  0.00  0.00    +0.000 A 
ATOM      8  C   UNL     1      -1.770  11.953  23.194  0.00  0.00    +0.000 A 
ATOM      9  C   UNL     1      -2.403  12.429  22.054  0.00  0.00    +0.000 A 
ATOM     10  C   UNL     1      -2.077  11.915  20.795  0.00  0.00    +0.000 A 
ATOM     11  C   UNL     1      -1.088  10.925  20.649  0.00  0.00    +0.000 A 
ENDROOT
BRANCH   1  12
ATOM     12  C   UNL     1      -1.125  10.976  18.016  0.00  0.00    +0.000 C 
ATOM     13  O   UNL     1      -1.107  12.155  17.704  0.00  0.00    +0.000 OA
BRANCH  12  15
ATOM     14  C   UNL     1      -3.019   9.772  17.360  0.00  0.00    +0.000 C 
ATOM     15  O   UNL     1      -1.612   9.982  17.219  0.00  0.00    +0.000 OA
ENDBRANCH  12  15
ENDBRANCH   1  12
BRANCH   3  16
ATOM     16  N   UNL     1       2.154   8.281  20.339  0.00  0.00    +0.000 N 
ATOM     17  H   UNL     1       2.706   8.397  21.196  0.00  0.00    +0.000 HD
BRANCH  16  18
ATOM     18  C   UNL     1       2.108   6.907  19.982  0.00  0.00    +0.000 A 
ATOM     19  N   UNL     1       1.600   5.993  20.847  0.00  0.00    +0.000 NA
ATOM     20  C   UNL     1       1.423   4.723  20.416  0.00  0.00    +0.000 A 
ATOM     21  C   UNL     1       1.723   4.290  19.135  0.00  0.00    +0.000 A 
ATOM     22  C   UNL     1       2.288   5.220  18.259  0.00  0.00    +0.000 A 
ATOM     23  C   UNL     1       2.504   6.532  18.688  0.00  0.00    +0.000 A 
ATOM     24 CL   UNL     1       3.163   7.663  17.561  0.00  0.00    +0.000 Cl
BRANCH  21  25
ATOM     25  C   UNL     1       1.430   2.883  18.717  0.00  0.00    +0.000 C 
ATOM     26  F   UNL     1       2.068   2.513  17.573  0.00  0.00    +0.000 F 
ATOM     27  F   UNL     1       1.803   1.975  19.660  0.00  0.00    +0.000 F 
ATOM     28  F   UNL     1       0.105   2.673  18.495  0.00  0.00    +0.000 F 
ENDBRANCH  21  25
ENDBRANCH  16  18
ENDBRANCH   3  16
TORSDOF 5
ENDMDL
MODEL 2
REMARK VINA RESULT:      -7.3      4.147      7.580
REMARK  Name = 
REMARK  6 active torsions:
REMARK  status: ('A' for Active; 'I' for Inactive)
REMARK    1  A    between atoms: C_1  and  O_2
REMARK    2  A    between atoms: O_2  and  C_3
REMARK    3  A    between atoms: C_3  and  C_5
REMARK    4  A    between atoms: N_7  and  N_8
REMARK    5  A    between atoms: N_8  and  C_9
REMARK    6  A    between atoms: C_12  and  C_13
REMARK                            x       y       z     vdW  Elec       q    Type
REMARK                         _______ _______ _______ _____ _____    ______ ____
ROOT
ATOM      1  C   UNL     1       4.026   5.924  18.113  0.00  0.00    +0.000 A 
ATOM      2  C   UNL     1       3.664   6.887  18.975  0.00  0.00    +0.000 A 
ATOM      3  N   UNL     1       2.721   6.709  19.965  0.00  0.00    +0.000 N 
ATOM      4  C   UNL     1       1.963   5.546  20.099  0.00  0.00    +0.000 A 
ATOM      5  O   UNL     1       1.079   5.406  20.943  0.00  0.00    +0.000 OA
ATOM      6  C   UNL     1       2.256   4.467  19.110  0.00  0.00    +0.000 A 
ATOM      7  C   UNL     1       1.464   3.308  19.114  0.00  0.00    +0.000 A 
ATOM      8  C   UNL     1       1.685   2.309  18.165  0.00  0.00    +0.000 A 
ATOM      9  C   UNL     1       2.714   2.451  17.245  0.00  0.00    +0.000 A 
ATOM     10  C   UNL     1       3.513   3.600  17.246  0.00  0.00    +0.000 A 
ATOM     11  C   UNL     1       3.280   4.645  18.158  0.00  0.00    +0.000 A 
ENDROOT
BRANCH   1  12
ATOM     12  C   UNL     1       5.056   6.264  17.081  0.00  0.00    +0.000 C 
ATOM     13  O   UNL     1       4.802   6.537  15.919  0.00  0.00    +0.000 OA
BRANCH  12  15
ATOM     14  C   UNL     1       6.964   4.956  17.415  0.00  0.00    +0.000 C 
ATOM     15  O   UNL     1       6.318   6.219  17.596  0.00  0.00    +0.000 OA
ENDBRANCH  12  15
ENDBRANCH   1  12
BRANCH   3  16
ATOM     16  N   UNL     1       2.205   7.835  20.661  0.00  0.00    +0.000 N 
ATOM     17  H   UNL     1       2.964   8.373  21.094  0.00  0.00    +0.000 HD
BRANCH  16  18
ATOM     18  C   UNL     1       1.329   8.715  19.971  0.00  0.00    +0.000 A 
ATOM     19  N   UNL     1       1.477   8.918  18.637  0.00  0.00    +0.000 NA
ATOM     20  C   UNL     1       0.532   9.631  17.983  0.00  0.00    +0.000 A 
ATOM     21  C   UNL     1      -0.591  10.169  18.589  0.00  0.00    +0.000 A 
ATOM     22  C   UNL     1      -0.719   9.999  19.970  0.00  0.00    +0.000 A 
ATOM     23  C   UNL     1       0.256   9.287  20.672  0.00  0.00    +0.000 A 
ATOM     24 CL   UNL     1       0.038   9.059  22.370  0.00  0.00    +0.000 Cl
BRANCH  21  25
ATOM     25  C   UNL     1      -1.625  10.886  17.778  0.00  0.00    +0.000 C 
ATOM     26  F   UNL     1      -2.854  10.906  18.363  0.00  0.00    +0.000 F 
ATOM     27  F   UNL     1      -1.298  12.189  17.558  0.00  0.00    +0.000 F 
ATOM     28  F   UNL     1      -1.802  10.329  16.551  0.00  0.00    +0.000 F 
ENDBRANCH  21  25
ENDBRANCH  16  18
ENDBRANCH   3  16
TORSDOF 5
ENDMDL
MODEL 3
REMARK VINA RESULT:      -7.3      5.235      8.718
REMARK  Name = 
REMARK  6 active torsions:
REMARK  status: ('A' for Active; 'I' for Inactive)
REMARK    1  A    between atoms: C_1  and  O_2
REMARK    2  A    between atoms: O_2  and  C_3
REMARK    3  A    between atoms: C_3  and  C_5
REMARK    4  A    between atoms: N_7  and  N_8
REMARK    5  A    between atoms: N_8  and  C_9
REMARK    6  A    between atoms: C_12  and  C_13
REMARK                            x       y       z     vdW  Elec       q    Type
REMARK                         _______ _______ _______ _____ _____    ______ ____
ROOT
ATOM      1  C   UNL     1       6.403   5.772  17.464  0.00  0.00    +0.000 A 
ATOM      2  C   UNL     1       5.330   5.585  18.250  0.00  0.00    +0.000 A 
ATOM      3  N   UNL     1       4.292   4.733  17.933  0.00  0.00    +0.000 N 
ATOM      4  C   UNL     1       4.197   4.066  16.712  0.00  0.00    +0.000 A 
ATOM      5  O   UNL     1       3.244   3.353  16.403  0.00  0.00    +0.000 OA
ATOM      6  C   UNL     1       5.318   4.304  15.756  0.00  0.00    +0.000 A 
ATOM      7  C   UNL     1       5.243   3.751  14.468  0.00  0.00    +0.000 A 
ATOM      8  C   UNL     1       6.253   4.004  13.540  0.00  0.00    +0.000 A 
ATOM      9  C   UNL     1       7.349   4.770  13.910  0.00  0.00    +0.000 A 
ATOM     10  C   UNL     1       7.434   5.313  15.197  0.00  0.00    +0.000 A 
ATOM     11  C   UNL     1       6.405   5.117  16.136  0.00  0.00    +0.000 A 
ENDROOT
BRANCH   1  12
ATOM     12  C   UNL     1       7.447   6.738  17.932  0.00  0.00    +0.000 C 
ATOM     13  O   UNL     1       8.200   6.536  18.871  0.00  0.00    +0.000 OA
BRANCH  12  15
ATOM     14  C   UNL     1       8.037   8.998  17.853  0.00  0.00    +0.000 C 
ATOM     15  O   UNL     1       7.445   7.880  17.187  0.00  0.00    +0.000 OA
ENDBRANCH  12  15
ENDBRANCH   1  12
BRANCH   3  16
ATOM     16  N   UNL     1       3.083   4.785  18.675  0.00  0.00    +0.000 N 
ATOM     17  H   UNL     1       3.110   4.125  19.460  0.00  0.00    +0.000 HD
BRANCH  16  18
ATOM     18  C   UNL     1       2.622   6.050  19.131  0.00  0.00    +0.000 A 
ATOM     19  N   UNL     1       2.614   7.116  18.292  0.00  0.00    +0.000 NA
ATOM     20  C   UNL     1       2.021   8.259  18.704  0.00  0.00    +0.000 A 
ATOM     21  C   UNL     1       1.410   8.414  19.937  0.00  0.00    +0.000 A 
ATOM     22  C   UNL     1       1.458   7.331  20.819  0.00  0.00    +0.000 A 
ATOM     23  C   UNL     1       2.086   6.147  20.425  0.00  0.00    +0.000 A 
ATOM     24 CL   UNL     1       2.085   4.816  21.526  0.00  0.00    +0.000 Cl
BRANCH  21  25
ATOM     25  C   UNL     1       0.714   9.692  20.288  0.00  0.00    +0.000 C 
ATOM     26  F   UNL     1      -0.559   9.765  19.811  0.00  0.00    +0.000 F 
ATOM     27  F   UNL     1       0.616   9.875  21.634  0.00  0.00    +0.000 F 
ATOM     28  F   UNL     1       1.360  10.786  19.805  0.00  0.00    +0.000 F 
ENDBRANCH  21  25
ENDBRANCH  16  18
ENDBRANCH   3  16
TORSDOF 5
ENDMDL
MODEL 4
REMARK VINA RESULT:      -7.2      4.331      7.983
REMARK  Name = 
REMARK  6 active torsions:
REMARK  status: ('A' for Active; 'I' for Inactive)
REMARK    1  A    between atoms: C_1  and  O_2
REMARK    2  A    between atoms: O_2  and  C_3
REMARK    3  A    between atoms: C_3  and  C_5
REMARK    4  A    between atoms: N_7  and  N_8
REMARK    5  A    between atoms: N_8  and  C_9
REMARK    6  A    between atoms: C_12  and  C_13
REMARK                            x       y       z     vdW  Elec       q    Type
REMARK                         _______ _______ _______ _____ _____    ______ ____
ROOT
ATOM      1  C   UNL     1       2.311   4.446  18.840  0.00  0.00    +0.000 A 
ATOM      2  C   UNL     1       1.969   5.574  19.483  0.00  0.00    +0.000 A 
ATOM      3  N   UNL     1       2.428   6.824  19.125  0.00  0.00    +0.000 N 
ATOM      4  C   UNL     1       3.384   7.033  18.131  0.00  0.00    +0.000 A 
ATOM      5  O   UNL     1       3.840   8.140  17.850  0.00  0.00    +0.000 OA
ATOM      6  C   UNL     1       3.872   5.804  17.438  0.00  0.00    +0.000 A 
ATOM      7  C   UNL     1       4.909   5.920  16.499  0.00  0.00    +0.000 A 
ATOM      8  C   UNL     1       5.418   4.780  15.877  0.00  0.00    +0.000 A 
ATOM      9  C   UNL     1       4.868   3.538  16.163  0.00  0.00    +0.000 A 
ATOM     10  C   UNL     1       3.827   3.420  17.089  0.00  0.00    +0.000 A 
ATOM     11  C   UNL     1       3.329   4.547  17.769  0.00  0.00    +0.000 A 
ENDROOT
BRANCH   1  12
ATOM     12  C   UNL     1       1.743   3.157  19.347  0.00  0.00    +0.000 C 
ATOM     13  O   UNL     1       0.788   2.583  18.851  0.00  0.00    +0.000 OA
BRANCH  12  15
ATOM     14  C   UNL     1       1.604   2.616  21.617  0.00  0.00    +0.000 C 
ATOM     15  O   UNL     1       2.417   2.708  20.445  0.00  0.00    +0.000 OA
ENDBRANCH  12  15
ENDBRANCH   1  12
BRANCH   3  16
ATOM     16  N   UNL     1       2.236   7.925  20.001  0.00  0.00    +0.000 N 
ATOM     17  H   UNL     1       3.127   8.396  20.193  0.00  0.00    +0.000 HD
BRANCH  16  18
ATOM     18  C   UNL     1       1.248   8.890  19.669  0.00  0.00    +0.000 A 
ATOM     19  N   UNL     1       1.013   9.209  18.371  0.00  0.00    +0.000 NA
ATOM     20  C   UNL     1      -0.040  10.006  18.081  0.00  0.00    +0.000 A 
ATOM     21  C   UNL     1      -0.907  10.521  19.030  0.00  0.00    +0.000 A 
ATOM     22  C   UNL     1      -0.639  10.230  20.370  0.00  0.00    +0.000 A 
ATOM     23  C   UNL     1       0.457   9.428  20.697  0.00  0.00    +0.000 A 
ATOM     24 CL   UNL     1       0.729   9.055  22.362  0.00  0.00    +0.000 Cl
BRANCH  21  25
ATOM     25  C   UNL     1      -2.091  11.339  18.617  0.00  0.00    +0.000 C 
ATOM     26  F   UNL     1      -1.844  12.153  17.555  0.00  0.00    +0.000 F 
ATOM     27  F   UNL     1      -3.152  10.567  18.254  0.00  0.00    +0.000 F 
ATOM     28  F   UNL     1      -2.537  12.147  19.615  0.00  0.00    +0.000 F 
ENDBRANCH  21  25
ENDBRANCH  16  18
ENDBRANCH   3  16
TORSDOF 5
ENDMDL
MODEL 5
REMARK VINA RESULT:      -7.2      5.186      8.663
REMARK  Name = 
REMARK  6 active torsions:
REMARK  status: ('A' for Active; 'I' for Inactive)
REMARK    1  A    between atoms: C_1  and  O_2
REMARK    2  A    between atoms: O_2  and  C_3
REMARK    3  A    between atoms: C_3  and  C_5
REMARK    4  A    between atoms: N_7  and  N_8
REMARK    5  A    between atoms: N_8  and  C_9
REMARK    6  A    between atoms: C_12  and  C_13
REMARK                            x       y       z     vdW  Elec       q    Type
REMARK                         _______ _______ _______ _____ _____    ______ ____
ROOT
ATOM      1  C   UNL     1       6.550   5.582  17.607  0.00  0.00    +0.000 A 
ATOM      2  C   UNL     1       5.597   5.233  18.486  0.00  0.00    +0.000 A 
ATOM      3  N   UNL     1       4.613   4.305  18.216  0.00  0.00    +0.000 N 
ATOM      4  C   UNL     1       4.438   3.719  16.962  0.00  0.00    +0.000 A 
ATOM      5  O   UNL     1       3.526   2.937  16.700  0.00  0.00    +0.000 OA
ATOM      6  C   UNL     1       5.415   4.137  15.912  0.00  0.00    +0.000 A 
ATOM      7  C   UNL     1       5.242   3.672  14.599  0.00  0.00    +0.000 A 
ATOM      8  C   UNL     1       6.110   4.091  13.591  0.00  0.00    +0.000 A 
ATOM      9  C   UNL     1       7.166   4.936  13.901  0.00  0.00    +0.000 A 
ATOM     10  C   UNL     1       7.348   5.392  15.211  0.00  0.00    +0.000 A 
ATOM     11  C   UNL     1       6.458   5.027  16.237  0.00  0.00    +0.000 A 
ENDROOT
BRANCH   1  12
ATOM     12  C   UNL     1       7.547   6.613  18.036  0.00  0.00    +0.000 C 
ATOM     13  O   UNL     1       8.255   6.516  19.025  0.00  0.00    +0.000 OA
BRANCH  12  15
ATOM     14  C   UNL     1       7.978   8.900  17.815  0.00  0.00    +0.000 C 
ATOM     15  O   UNL     1       7.559   7.683  17.191  0.00  0.00    +0.000 OA
ENDBRANCH  12  15
ENDBRANCH   1  12
BRANCH   3  16
ATOM     16  N   UNL     1       3.499   4.182  19.087  0.00  0.00    +0.000 N 
ATOM     17  H   UNL     1       3.711   3.542  19.860  0.00  0.00    +0.000 HD
BRANCH  16  18
ATOM     18  C   UNL     1       2.903   5.367  19.597  0.00  0.00    +0.000 A 
ATOM     19  N   UNL     1       3.047   6.543  18.935  0.00  0.00    +0.000 NA
ATOM     20  C   UNL     1       2.338   7.614  19.357  0.00  0.00    +0.000 A 
ATOM     21  C   UNL     1       1.460   7.589  20.427  0.00  0.00    +0.000 A 
ATOM     22  C   UNL     1       1.345   6.390  21.136  0.00  0.00    +0.000 A 
ATOM     23  C   UNL     1       2.086   5.276  20.735  0.00  0.00    +0.000 A 
ATOM     24 CL   UNL     1       1.883   3.801  21.610  0.00  0.00    +0.000 Cl
BRANCH  21  25
ATOM     25  C   UNL     1       0.659   8.802  20.785  0.00  0.00    +0.000 C 
ATOM     26  F   UNL     1       1.365   9.730  21.487  0.00  0.00    +0.000 F 
ATOM     27  F   UNL     1       0.183   9.450  19.687  0.00  0.00    +0.000 F 
ATOM     28  F   UNL     1      -0.427   8.502  21.545  0.00  0.00    +0.000 F 
ENDBRANCH  21  25
ENDBRANCH  16  18
ENDBRANCH   3  16
TORSDOF 5
ENDMDL
MODEL 6
REMARK VINA RESULT:      -7.1      4.135      7.696
REMARK  Name = 
REMARK  6 active torsions:
REMARK  status: ('A' for Active; 'I' for Inactive)
REMARK    1  A    between atoms: C_1  and  O_2
REMARK    2  A    between atoms: O_2  and  C_3
REMARK    3  A    between atoms: C_3  and  C_5
REMARK    4  A    between atoms: N_7  and  N_8
REMARK    5  A    between atoms: N_8  and  C_9
REMARK    6  A    between atoms: C_12  and  C_13
REMARK                            x       y       z     vdW  Elec       q    Type
REMARK                         _______ _______ _______ _____ _____    ______ ____
ROOT
ATOM      1  C   UNL     1       2.195   5.763  19.693  0.00  0.00    +0.000 A 
ATOM      2  C   UNL     1       1.692   6.988  19.916  0.00  0.00    +0.000 A 
ATOM      3  N   UNL     1       1.937   8.073  19.100  0.00  0.00    +0.000 N 
ATOM      4  C   UNL     1       2.823   8.036  18.024  0.00  0.00    +0.000 A 
ATOM      5  O   UNL     1       3.089   9.017  17.331  0.00  0.00    +0.000 OA
ATOM      6  C   UNL     1       3.486   6.721  17.778  0.00  0.00    +0.000 A 
ATOM      7  C   UNL     1       4.468   6.631  16.780  0.00  0.00    +0.000 A 
ATOM      8  C   UNL     1       5.139   5.426  16.567  0.00  0.00    +0.000 A 
ATOM      9  C   UNL     1       4.801   4.311  17.320  0.00  0.00    +0.000 A 
ATOM     10  C   UNL     1       3.814   4.393  18.308  0.00  0.00    +0.000 A 
ATOM     11  C   UNL     1       3.158   5.608  18.578  0.00  0.00    +0.000 A 
ENDROOT
BRANCH   1  12
ATOM     12  C   UNL     1       1.853   4.682  20.671  0.00  0.00    +0.000 C 
ATOM     13  O   UNL     1       2.549   4.372  21.624  0.00  0.00    +0.000 OA
BRANCH  12  15
ATOM     14  C   UNL     1       0.835   2.850  19.637  0.00  0.00    +0.000 C 
ATOM     15  O   UNL     1       0.674   4.074  20.357  0.00  0.00    +0.000 OA
ENDBRANCH  12  15
ENDBRANCH   1  12
BRANCH   3  16
ATOM     16  N   UNL     1       1.591   9.379  19.538  0.00  0.00    +0.000 N 
ATOM     17  H   UNL     1       2.361  10.035  19.366  0.00  0.00    +0.000 HD
BRANCH  16  18
ATOM     18  C   UNL     1       0.371   9.945  19.082  0.00  0.00    +0.000 A 
ATOM     19  N   UNL     1      -0.121   9.617  17.861  0.00  0.00    +0.000 NA
ATOM     20  C   UNL     1      -1.359  10.044  17.525  0.00  0.00    +0.000 A 
ATOM     21  C   UNL     1      -2.170  10.798  18.356  0.00  0.00    +0.000 A 
ATOM     22  C   UNL     1      -1.647  11.174  19.595  0.00  0.00    +0.000 A 
ATOM     23  C   UNL     1      -0.361  10.765  19.956  0.00  0.00    +0.000 A 
ATOM     24 CL   UNL     1       0.232  11.213  21.515  0.00  0.00    +0.000 Cl
BRANCH  21  25
ATOM     25  C   UNL     1      -3.557  11.171  17.934  0.00  0.00    +0.000 C 
ATOM     26  F   UNL     1      -3.632  11.616  16.650  0.00  0.00    +0.000 F 
ATOM     27  F   UNL     1      -4.421  10.122  18.013  0.00  0.00    +0.000 F 
ATOM     28  F   UNL     1      -4.088  12.156  18.705  0.00  0.00    +0.000 F 
ENDBRANCH  21  25
ENDBRANCH  16  18
ENDBRANCH   3  16
TORSDOF 5
ENDMDL
MODEL 7
REMARK VINA RESULT:      -7.0      4.170      7.849
REMARK  Name = 
REMARK  6 active torsions:
REMARK  status: ('A' for Active; 'I' for Inactive)
REMARK    1  A    between atoms: C_1  and  O_2
REMARK    2  A    between atoms: O_2  and  C_3
REMARK    3  A    between atoms: C_3  and  C_5
REMARK    4  A    between atoms: N_7  and  N_8
REMARK    5  A    between atoms: N_8  and  C_9
REMARK    6  A    between atoms: C_12  and  C_13
REMARK                            x       y       z     vdW  Elec       q    Type
REMARK                         _______ _______ _______ _____ _____    ______ ____
ROOT
ATOM      1  C   UNL     1       2.451   4.897  19.256  0.00  0.00    +0.000 A 
ATOM      2  C   UNL     1       2.039   6.091  19.712  0.00  0.00    +0.000 A 
ATOM      3  N   UNL     1       2.351   7.289  19.104  0.00  0.00    +0.000 N 
ATOM      4  C   UNL     1       3.223   7.392  18.020  0.00  0.00    +0.000 A 
ATOM      5  O   UNL     1       3.550   8.463  17.513  0.00  0.00    +0.000 OA
ATOM      6  C   UNL     1       3.788   6.103  17.521  0.00  0.00    +0.000 A 
ATOM      7  C   UNL     1       4.752   6.133  16.502  0.00  0.00    +0.000 A 
ATOM      8  C   UNL     1       5.334   4.947  16.056  0.00  0.00    +0.000 A 
ATOM      9  C   UNL     1       4.926   3.736  16.599  0.00  0.00    +0.000 A 
ATOM     10  C   UNL     1       3.957   3.701  17.607  0.00  0.00    +0.000 A 
ATOM     11  C   UNL     1       3.391   4.887  18.110  0.00  0.00    +0.000 A 
ENDROOT
BRANCH   1  12
ATOM     12  C   UNL     1       2.044   3.680  20.026  0.00  0.00    +0.000 C 
ATOM     13  O   UNL     1       2.762   3.097  20.821  0.00  0.00    +0.000 OA
BRANCH  12  15
ATOM     14  C   UNL     1       0.716   2.213  18.781  0.00  0.00    +0.000 C 
ATOM     15  O   UNL     1       0.774   3.292  19.718  0.00  0.00    +0.000 OA
ENDBRANCH  12  15
ENDBRANCH   1  12
BRANCH   3  16
ATOM     16  N   UNL     1       2.103   8.511  19.782  0.00  0.00    +0.000 N 
ATOM     17  H   UNL     1       2.938   9.107  19.774  0.00  0.00    +0.000 HD
BRANCH  16  18
ATOM     18  C   UNL     1       0.967   9.277  19.404  0.00  0.00    +0.000 A 
ATOM     19  N   UNL     1       0.662   9.443  18.092  0.00  0.00    +0.000 NA
ATOM     20  C   UNL     1      -0.510  10.038  17.771  0.00  0.00    +0.000 A 
ATOM     21  C   UNL     1      -1.431  10.488  18.702  0.00  0.00    +0.000 A 
ATOM     22  C   UNL     1      -1.096  10.357  20.052  0.00  0.00    +0.000 A 
ATOM     23  C   UNL     1       0.119   9.769  20.409  0.00  0.00    +0.000 A 
ATOM     24 CL   UNL     1       0.476   9.585  22.089  0.00  0.00    +0.000 Cl
BRANCH  21  25
ATOM     25  C   UNL     1      -2.737  11.071  18.261  0.00  0.00    +0.000 C 
ATOM     26  F   UNL     1      -3.676  10.132  17.959  0.00  0.00    +0.000 F 
ATOM     27  F   UNL     1      -3.299  11.863  19.216  0.00  0.00    +0.000 F 
ATOM     28  F   UNL     1      -2.612  11.848  17.153  0.00  0.00    +0.000 F 
ENDBRANCH  21  25
ENDBRANCH  16  18
ENDBRANCH   3  16
TORSDOF 5
ENDMDL
MODEL 8
REMARK VINA RESULT:      -6.9      5.258      7.626
REMARK  Name = 
REMARK  6 active torsions:
REMARK  status: ('A' for Active; 'I' for Inactive)
REMARK    1  A    between atoms: C_1  and  O_2
REMARK    2  A    between atoms: O_2  and  C_3
REMARK    3  A    between atoms: C_3  and  C_5
REMARK    4  A    between atoms: N_7  and  N_8
REMARK    5  A    between atoms: N_8  and  C_9
REMARK    6  A    between atoms: C_12  and  C_13
REMARK                            x       y       z     vdW  Elec       q    Type
REMARK                         _______ _______ _______ _____ _____    ______ ____
ROOT
ATOM      1  C   UNL     1       2.699   6.327  18.790  0.00  0.00    +0.000 A 
ATOM      2  C   UNL     1       3.701   6.389  17.899  0.00  0.00    +0.000 A 
ATOM      3  N   UNL     1       4.300   5.276  17.347  0.00  0.00    +0.000 N 
ATOM      4  C   UNL     1       4.004   3.972  17.745  0.00  0.00    +0.000 A 
ATOM      5  O   UNL     1       4.577   2.980  17.298  0.00  0.00    +0.000 OA
ATOM      6  C   UNL     1       2.957   3.841  18.801  0.00  0.00    +0.000 A 
ATOM      7  C   UNL     1       2.677   2.570  19.328  0.00  0.00    +0.000 A 
ATOM      8  C   UNL     1       1.742   2.430  20.352  0.00  0.00    +0.000 A 
ATOM      9  C   UNL     1       1.062   3.546  20.819  0.00  0.00    +0.000 A 
ATOM     10  C   UNL     1       1.330   4.813  20.289  0.00  0.00    +0.000 A 
ATOM     11  C   UNL     1       2.305   4.990  19.291  0.00  0.00    +0.000 A 
ENDROOT
BRANCH   1  12
ATOM     12  C   UNL     1       2.153   7.620  19.313  0.00  0.00    +0.000 C 
ATOM     13  O   UNL     1       1.973   7.862  20.495  0.00  0.00    +0.000 OA
BRANCH  12  15
ATOM     14  C   UNL     1       1.311   9.728  18.755  0.00  0.00    +0.000 C 
ATOM     15  O   UNL     1       1.866   8.490  18.303  0.00  0.00    +0.000 OA
ENDBRANCH  12  15
ENDBRANCH   1  12
BRANCH   3  16
ATOM     16  N   UNL     1       5.513   5.412  16.622  0.00  0.00    +0.000 N 
ATOM     17  H   UNL     1       5.331   5.451  15.614  0.00  0.00    +0.000 HD
BRANCH  16  18
ATOM     18  C   UNL     1       6.407   6.454  16.987  0.00  0.00    +0.000 A 
ATOM     19  N   UNL     1       6.171   7.728  16.585  0.00  0.00    +0.000 NA
ATOM     20  C   UNL     1       6.947   8.718  17.081  0.00  0.00    +0.000 A 
ATOM     21  C   UNL     1       7.974   8.517  17.988  0.00  0.00    +0.000 A 
ATOM     22  C   UNL     1       8.246   7.200  18.367  0.00  0.00    +0.000 A 
ATOM     23  C   UNL     1       7.475   6.157  17.850  0.00  0.00    +0.000 A 
ATOM     24 CL   UNL     1       7.813   4.548  18.379  0.00  0.00    +0.000 Cl
BRANCH  21  25
ATOM     25  C   UNL     1       8.740   9.677  18.542  0.00  0.00    +0.000 C 
ATOM     26  F   UNL     1       9.690  10.156  17.693  0.00  0.00    +0.000 F 
ATOM     27  F   UNL     1       7.936  10.736  18.835  0.00  0.00    +0.000 F 
ATOM     28  F   UNL     1       9.389   9.367  19.696  0.00  0.00    +0.000 F 
ENDBRANCH  21  25
ENDBRANCH  16  18
ENDBRANCH   3  16
TORSDOF 5
ENDMDL
MODEL 9
REMARK VINA RESULT:      -6.9      4.921      7.277
REMARK  Name = 
REMARK  6 active torsions:
REMARK  status: ('A' for Active; 'I' for Inactive)
REMARK    1  A    between atoms: C_1  and  O_2
REMARK    2  A    between atoms: O_2  and  C_3
REMARK    3  A    between atoms: C_3  and  C_5
REMARK    4  A    between atoms: N_7  and  N_8
REMARK    5  A    between atoms: N_8  and  C_9
REMARK    6  A    between atoms: C_12  and  C_13
REMARK                            x       y       z     vdW  Elec       q    Type
REMARK                         _______ _______ _______ _____ _____    ______ ____
ROOT
ATOM      1  C   UNL     1       2.951   5.938  19.151  0.00  0.00    +0.000 A 
ATOM      2  C   UNL     1       4.116   5.855  18.490  0.00  0.00    +0.000 A 
ATOM      3  N   UNL     1       4.859   4.697  18.395  0.00  0.00    +0.000 N 
ATOM      4  C   UNL     1       4.533   3.522  19.072  0.00  0.00    +0.000 A 
ATOM      5  O   UNL     1       5.224   2.505  19.037  0.00  0.00    +0.000 OA
ATOM      6  C   UNL     1       3.292   3.577  19.900  0.00  0.00    +0.000 A 
ATOM      7  C   UNL     1       2.954   2.470  20.693  0.00  0.00    +0.000 A 
ATOM      8  C   UNL     1       1.828   2.517  21.515  0.00  0.00    +0.000 A 
ATOM      9  C   UNL     1       1.025   3.649  21.514  0.00  0.00    +0.000 A 
ATOM     10  C   UNL     1       1.352   4.751  20.716  0.00  0.00    +0.000 A 
ATOM     11  C   UNL     1       2.510   4.749  19.917  0.00  0.00    +0.000 A 
ENDROOT
BRANCH   1  12
ATOM     12  C   UNL     1       2.260   7.266  19.180  0.00  0.00    +0.000 C 
ATOM     13  O   UNL     1       1.965   7.865  20.201  0.00  0.00    +0.000 OA
BRANCH  12  15
ATOM     14  C   UNL     1       2.011   9.142  17.809  0.00  0.00    +0.000 C 
ATOM     15  O   UNL     1       1.987   7.718  17.923  0.00  0.00    +0.000 OA
ENDBRANCH  12  15
ENDBRANCH   1  12
BRANCH   3  16
ATOM     16  N   UNL     1       6.192   4.749  17.909  0.00  0.00    +0.000 N 
ATOM     17  H   UNL     1       6.809   4.161  18.479  0.00  0.00    +0.000 HD
BRANCH  16  18
ATOM     18  C   UNL     1       6.422   4.488  16.531  0.00  0.00    +0.000 A 
ATOM     19  N   UNL     1       5.941   3.355  15.961  0.00  0.00    +0.000 NA
ATOM     20  C   UNL     1       6.036   3.214  14.620  0.00  0.00    +0.000 A 
ATOM     21  C   UNL     1       6.592   4.164  13.779  0.00  0.00    +0.000 A 
ATOM     22  C   UNL     1       7.127   5.311  14.370  0.00  0.00    +0.000 A 
ATOM     23  C   UNL     1       7.064   5.468  15.756  0.00  0.00    +0.000 A 
ATOM     24 CL   UNL     1       7.696   6.921  16.445  0.00  0.00    +0.000 Cl
BRANCH  21  25
ATOM     25  C   UNL     1       6.594   3.961  12.296  0.00  0.00    +0.000 C 
ATOM     26  F   UNL     1       7.115   2.763  11.913  0.00  0.00    +0.000 F 
ATOM     27  F   UNL     1       5.341   4.007  11.766  0.00  0.00    +0.000 F 
ATOM     28  F   UNL     1       7.315   4.910  11.642  0.00  0.00    +0.000 F 
ENDBRANCH  21  25
ENDBRANCH  16  18
ENDBRANCH   3  16
TORSDOF 5
ENDMDL
