MODEL 1
REMARK VINA RESULT:      -8.8      0.000      0.000
REMARK  Name = 
REMARK  7 active torsions:
REMARK  status: ('A' for Active; 'I' for Inactive)
REMARK    1  A    between atoms: C_1  and  C_2
REMARK    2  A    between atoms: C_2  and  C_3
REMARK    3  A    between atoms: C_2  and  N_18
REMARK    4  A    between atoms: C_3  and  N_4
REMARK    5  A    between atoms: C_7  and  C_8
REMARK    6  A    between atoms: C_11  and  C_12
REMARK    7  A    between atoms: N_18  and  C_19
REMARK                            x       y       z     vdW  Elec       q    Type
REMARK                         _______ _______ _______ _____ _____    ______ ____
ROOT
ATOM      1  C   UNL     1       5.766   5.817  16.271  0.00  0.00    +0.000 C 
ENDROOT
BRANCH   1   2
ATOM      2  N   UNL     1       6.769   6.421  17.121  0.00  0.00    +0.000 N 
ATOM      3  C   UNL     1       7.448   5.807  18.132  0.00  0.00    +0.000 A 
ATOM      4  C   UNL     1       8.183   6.792  18.742  0.00  0.00    +0.000 A 
ATOM      5  C   UNL     1       7.886   7.986  18.031  0.00  0.00    +0.000 A 
ATOM      6  N   UNL     1       7.016   7.740  17.042  0.00  0.00    +0.000 NA
BRANCH   5   7
ATOM      7  C   UNL     1       8.394   9.331  18.291  0.00  0.00    +0.000 A 
ATOM      8  C   UNL     1       9.423   9.539  19.220  0.00  0.00    +0.000 A 
ATOM      9  C   UNL     1       9.931  10.822  19.441  0.00  0.00    +0.000 A 
ATOM     10  C   UNL     1       9.412  11.920  18.739  0.00  0.00    +0.000 A 
ATOM     11  C   UNL     1       8.373  11.717  17.826  0.00  0.00    +0.000 A 
ATOM     12 CL   UNL     1       7.669  13.018  16.932  0.00  0.00    +0.000 Cl
ATOM     13  C   UNL     1       7.868  10.432  17.604  0.00  0.00    +0.000 A 
BRANCH  10  14
ATOM     14  C   UNL     1       9.968  13.216  18.978  0.00  0.00    +0.000 C 
ATOM     15  N   UNL     1      10.433  14.260  19.192  0.00  0.00    +0.000 NA
ENDBRANCH  10  14
ENDBRANCH   5   7
ENDBRANCH   1   2
BRANCH   1  17
ATOM     16  C   UNL     1       5.675   4.318  14.202  0.00  0.00    +0.000 C 
ATOM     17  C   UNL     1       6.129   4.456  15.655  0.00  0.00    +0.000 C 
BRANCH  17  18
ATOM     18  N   UNL     1       5.612   3.335  16.454  0.00  0.00    +0.000 N 
ATOM     19  H   UNL     1       6.351   2.741  16.838  0.00  0.00    +0.000 HD
BRANCH  18  20
ATOM     20  C   UNL     1       4.488   3.470  17.266  0.00  0.00    +0.000 A 
ATOM     21  C   UNL     1       3.256   3.900  16.768  0.00  0.00    +0.000 A 
ATOM     22  C   UNL     1       2.137   4.002  17.590  0.00  0.00    +0.000 A 
ATOM     23  C   UNL     1       2.216   3.626  18.932  0.00  0.00    +0.000 A 
ATOM     24  C   UNL     1       1.096   3.709  19.767  0.00  0.00    +0.000 A 
ATOM     25  C   UNL     1       1.188   3.286  21.084  0.00  0.00    +0.000 A 
ATOM     26  C   UNL     1       2.407   2.801  21.520  0.00  0.00    +0.000 A 
ATOM     27  N   UNL     1       3.515   2.727  20.745  0.00  0.00    +0.000 NA
ATOM     28  C   UNL     1       3.425   3.133  19.461  0.00  0.00    +0.000 A 
ATOM     29  C   UNL     1       4.533   3.065  18.612  0.00  0.00    +0.000 A 
ENDBRANCH  18  20
ENDBRANCH  17  18
ENDBRANCH   1  17
TORSDOF 6
ENDMDL
MODEL 2
REMARK VINA RESULT:      -8.6      1.406      1.975
REMARK  Name = 
REMARK  7 active torsions:
REMARK  status: ('A' for Active; 'I' for Inactive)
REMARK    1  A    between atoms: C_1  and  C_2
REMARK    2  A    between atoms: C_2  and  C_3
REMARK    3  A    between atoms: C_2  and  N_18
REMARK    4  A    between atoms: C_3  and  N_4
REMARK    5  A    between atoms: C_7  and  C_8
REMARK    6  A    between atoms: C_11  and  C_12
REMARK    7  A    between atoms: N_18  and  C_19
REMARK                            x       y       z     vdW  Elec       q    Type
REMARK                         _______ _______ _______ _____ _____    ______ ____
ROOT
ATOM      1  C   UNL     1       6.046   6.334  16.400  0.00  0.00    +0.000 C 
ENDROOT
BRANCH   1   2
ATOM      2  N   UNL     1       7.028   7.004  17.225  0.00  0.00    +0.000 N 
ATOM      3  C   UNL     1       7.692   6.465  18.288  0.00  0.00    +0.000 A 
ATOM      4  C   UNL     1       8.409   7.496  18.843  0.00  0.00    +0.000 A 
ATOM      5  C   UNL     1       8.116   8.637  18.047  0.00  0.00    +0.000 A 
ATOM      6  N   UNL     1       7.267   8.317  17.061  0.00  0.00    +0.000 NA
BRANCH   5   7
ATOM      7  C   UNL     1       8.609  10.001  18.224  0.00  0.00    +0.000 A 
ATOM      8  C   UNL     1       8.079  11.055  17.467  0.00  0.00    +0.000 A 
ATOM      9  C   UNL     1       8.526  12.364  17.662  0.00  0.00    +0.000 A 
ATOM     10  C   UNL     1       9.520  12.638  18.615  0.00  0.00    +0.000 A 
ATOM     11  C   UNL     1      10.063  11.585  19.356  0.00  0.00    +0.000 A 
ATOM     12 CL   UNL     1      11.299  11.837  20.538  0.00  0.00    +0.000 Cl
ATOM     13  C   UNL     1       9.611  10.276  19.161  0.00  0.00    +0.000 A 
BRANCH  10  14
ATOM     14  C   UNL     1       9.943  13.992  18.800  0.00  0.00    +0.000 C 
ATOM     15  N   UNL     1      10.310  15.084  18.951  0.00  0.00    +0.000 NA
ENDBRANCH  10  14
ENDBRANCH   5   7
ENDBRANCH   1   2
BRANCH   1  17
ATOM     16  C   UNL     1       7.028   4.906  14.521  0.00  0.00    +0.000 C 
ATOM     17  C   UNL     1       6.413   4.920  15.920  0.00  0.00    +0.000 C 
BRANCH  17  18
ATOM     18  N   UNL     1       5.264   4.005  15.975  0.00  0.00    +0.000 N 
ATOM     19  H   UNL     1       5.355   3.206  15.343  0.00  0.00    +0.000 HD
BRANCH  18  20
ATOM     20  C   UNL     1       4.599   3.733  17.170  0.00  0.00    +0.000 A 
ATOM     21  C   UNL     1       5.242   3.787  18.409  0.00  0.00    +0.000 A 
ATOM     22  C   UNL     1       4.554   3.540  19.594  0.00  0.00    +0.000 A 
ATOM     23  C   UNL     1       3.183   3.280  19.568  0.00  0.00    +0.000 A 
ATOM     24  C   UNL     1       2.475   3.044  20.752  0.00  0.00    +0.000 A 
ATOM     25  C   UNL     1       1.106   2.834  20.703  0.00  0.00    +0.000 A 
ATOM     26  C   UNL     1       0.494   2.858  19.463  0.00  0.00    +0.000 A 
ATOM     27  N   UNL     1       1.153   3.062  18.298  0.00  0.00    +0.000 NA
ATOM     28  C   UNL     1       2.485   3.273  18.344  0.00  0.00    +0.000 A 
ATOM     29  C   UNL     1       3.212   3.503  17.173  0.00  0.00    +0.000 A 
ENDBRANCH  18  20
ENDBRANCH  17  18
ENDBRANCH   1  17
TORSDOF 6
ENDMDL
MODEL 3
REMARK VINA RESULT:      -8.4      1.386      1.750
REMARK  Name = 
REMARK  7 active torsions:
REMARK  status: ('A' for Active; 'I' for Inactive)
REMARK    1  A    between atoms: C_1  and  C_2
REMARK    2  A    between atoms: C_2  and  C_3
REMARK    3  A    between atoms: C_2  and  N_18
REMARK    4  A    between atoms: C_3  and  N_4
REMARK    5  A    between atoms: C_7  and  C_8
REMARK    6  A    between atoms: C_11  and  C_12
REMARK    7  A    between atoms: N_18  and  C_19
REMARK                            x       y       z     vdW  Elec       q    Type
REMARK                         _______ _______ _______ _____ _____    ______ ____
ROOT
ATOM      1  C   UNL     1       6.147   6.689  16.485  0.00  0.00    +0.000 C 
ENDROOT
BRANCH   1   2
ATOM      2  N   UNL     1       7.145   7.341  17.305  0.00  0.00    +0.000 N 
ATOM      3  C   UNL     1       7.781   6.802  18.385  0.00  0.00    +0.000 A 
ATOM      4  C   UNL     1       8.529   7.819  18.925  0.00  0.00    +0.000 A 
ATOM      5  C   UNL     1       8.284   8.952  18.103  0.00  0.00    +0.000 A 
ATOM      6  N   UNL     1       7.433   8.641  17.115  0.00  0.00    +0.000 NA
BRANCH   5   7
ATOM      7  C   UNL     1       8.823  10.301  18.255  0.00  0.00    +0.000 A 
ATOM      8  C   UNL     1       8.175  11.399  17.673  0.00  0.00    +0.000 A 
ATOM      9  C   UNL     1       8.674  12.692  17.849  0.00  0.00    +0.000 A 
ATOM     10  C   UNL     1       9.835  12.907  18.606  0.00  0.00    +0.000 A 
ATOM     11  C   UNL     1      10.493  11.811  19.170  0.00  0.00    +0.000 A 
ATOM     12 CL   UNL     1      11.937  11.989  20.105  0.00  0.00    +0.000 Cl
ATOM     13  C   UNL     1       9.991  10.517  18.996  0.00  0.00    +0.000 A 
BRANCH  10  14
ATOM     14  C   UNL     1      10.308  14.246  18.779  0.00  0.00    +0.000 C 
ATOM     15  N   UNL     1      10.667  15.343  18.916  0.00  0.00    +0.000 NA
ENDBRANCH  10  14
ENDBRANCH   5   7
ENDBRANCH   1   2
BRANCH   1  17
ATOM     16  C   UNL     1       6.977   4.368  15.809  0.00  0.00    +0.000 C 
ATOM     17  C   UNL     1       6.003   5.170  16.671  0.00  0.00    +0.000 C 
BRANCH  17  18
ATOM     18  N   UNL     1       4.625   4.715  16.432  0.00  0.00    +0.000 N 
ATOM     19  H   UNL     1       4.545   4.074  15.640  0.00  0.00    +0.000 HD
BRANCH  18  20
ATOM     20  C   UNL     1       3.744   4.461  17.483  0.00  0.00    +0.000 A 
ATOM     21  C   UNL     1       2.422   4.908  17.471  0.00  0.00    +0.000 A 
ATOM     22  C   UNL     1       1.549   4.620  18.517  0.00  0.00    +0.000 A 
ATOM     23  C   UNL     1       1.973   3.828  19.586  0.00  0.00    +0.000 A 
ATOM     24  C   UNL     1       1.104   3.518  20.638  0.00  0.00    +0.000 A 
ATOM     25  C   UNL     1       1.535   2.693  21.664  0.00  0.00    +0.000 A 
ATOM     26  C   UNL     1       2.830   2.213  21.604  0.00  0.00    +0.000 A 
ATOM     27  N   UNL     1       3.703   2.511  20.612  0.00  0.00    +0.000 NA
ATOM     28  C   UNL     1       3.282   3.309  19.609  0.00  0.00    +0.000 A 
ATOM     29  C   UNL     1       4.137   3.638  18.553  0.00  0.00    +0.000 A 
ENDBRANCH  18  20
ENDBRANCH  17  18
ENDBRANCH   1  17
TORSDOF 6
ENDMDL
MODEL 4
REMARK VINA RESULT:      -8.2      1.566      1.887
REMARK  Name = 
REMARK  7 active torsions:
REMARK  status: ('A' for Active; 'I' for Inactive)
REMARK    1  A    between atoms: C_1  and  C_2
REMARK    2  A    between atoms: C_2  and  C_3
REMARK    3  A    between atoms: C_2  and  N_18
REMARK    4  A    between atoms: C_3  and  N_4
REMARK    5  A    between atoms: C_7  and  C_8
REMARK    6  A    between atoms: C_11  and  C_12
REMARK    7  A    between atoms: N_18  and  C_19
REMARK                            x       y       z     vdW  Elec       q    Type
REMARK                         _______ _______ _______ _____ _____    ______ ____
ROOT
ATOM      1  C   UNL     1       7.077   4.787  16.263  0.00  0.00    +0.000 C 
ENDROOT
BRANCH   1   2
ATOM      2  N   UNL     1       7.559   5.708  17.271  0.00  0.00    +0.000 N 
ATOM      3  C   UNL     1       7.727   5.437  18.597  0.00  0.00    +0.000 A 
ATOM      4  C   UNL     1       8.065   6.631  19.183  0.00  0.00    +0.000 A 
ATOM      5  C   UNL     1       8.076   7.584  18.129  0.00  0.00    +0.000 A 
ATOM      6  N   UNL     1       7.762   7.001  16.964  0.00  0.00    +0.000 NA
BRANCH   5   7
ATOM      7  C   UNL     1       8.356   9.015  18.220  0.00  0.00    +0.000 A 
ATOM      8  C   UNL     1       7.768   9.917  17.322  0.00  0.00    +0.000 A 
ATOM      9  C   UNL     1       8.009  11.288  17.433  0.00  0.00    +0.000 A 
ATOM     10  C   UNL     1       8.852  11.780  18.441  0.00  0.00    +0.000 A 
ATOM     11  C   UNL     1       9.455  10.880  19.325  0.00  0.00    +0.000 A 
ATOM     12 CL   UNL     1      10.516  11.404  20.585  0.00  0.00    +0.000 Cl
ATOM     13  C   UNL     1       9.209   9.508  19.215  0.00  0.00    +0.000 A 
BRANCH  10  14
ATOM     14  C   UNL     1       9.064  13.192  18.535  0.00  0.00    +0.000 C 
ATOM     15  N   UNL     1       9.221  14.339  18.633  0.00  0.00    +0.000 NA
ENDBRANCH  10  14
ENDBRANCH   5   7
ENDBRANCH   1   2
BRANCH   1  17
ATOM     16  C   UNL     1       5.521   5.287  14.298  0.00  0.00    +0.000 C 
ATOM     17  C   UNL     1       5.628   4.993  15.793  0.00  0.00    +0.000 C 
BRANCH  17  18
ATOM     18  N   UNL     1       4.943   6.041  16.564  0.00  0.00    +0.000 N 
ATOM     19  H   UNL     1       4.691   6.855  15.999  0.00  0.00    +0.000 HD
BRANCH  18  20
ATOM     20  C   UNL     1       4.043   5.733  17.583  0.00  0.00    +0.000 A 
ATOM     21  C   UNL     1       3.133   6.668  18.081  0.00  0.00    +0.000 A 
ATOM     22  C   UNL     1       2.222   6.332  19.080  0.00  0.00    +0.000 A 
ATOM     23  C   UNL     1       2.171   5.027  19.572  0.00  0.00    +0.000 A 
ATOM     24  C   UNL     1       1.251   4.671  20.565  0.00  0.00    +0.000 A 
ATOM     25  C   UNL     1       1.188   3.358  21.004  0.00  0.00    +0.000 A 
ATOM     26  C   UNL     1       2.059   2.447  20.435  0.00  0.00    +0.000 A 
ATOM     27  N   UNL     1       2.974   2.762  19.489  0.00  0.00    +0.000 NA
ATOM     28  C   UNL     1       3.032   4.039  19.056  0.00  0.00    +0.000 A 
ATOM     29  C   UNL     1       3.948   4.417  18.070  0.00  0.00    +0.000 A 
ENDBRANCH  18  20
ENDBRANCH  17  18
ENDBRANCH   1  17
TORSDOF 6
ENDMDL
MODEL 5
REMARK VINA RESULT:      -8.2      3.856      6.583
REMARK  Name = 
REMARK  7 active torsions:
REMARK  status: ('A' for Active; 'I' for Inactive)
REMARK    1  A    between atoms: C_1  and  C_2
REMARK    2  A    between atoms: C_2  and  C_3
REMARK    3  A    between atoms: C_2  and  N_18
REMARK    4  A    between atoms: C_3  and  N_4
REMARK    5  A    between atoms: C_7  and  C_8
REMARK    6  A    between atoms: C_11  and  C_12
REMARK    7  A    between atoms: N_18  and  C_19
REMARK                            x       y       z     vdW  Elec       q    Type
REMARK                         _______ _______ _______ _____ _____    ______ ____
ROOT
ATOM      1  C   UNL     1       4.098   3.319  19.555  0.00  0.00    +0.000 C 
ENDROOT
BRANCH   1   2
ATOM      2  N   UNL     1       3.145   4.317  19.992  0.00  0.00    +0.000 N 
ATOM      3  C   UNL     1       2.046   4.099  20.770  0.00  0.00    +0.000 A 
ATOM      4  C   UNL     1       1.372   5.294  20.810  0.00  0.00    +0.000 A 
ATOM      5  C   UNL     1       2.140   6.192  20.020  0.00  0.00    +0.000 A 
ATOM      6  N   UNL     1       3.222   5.576  19.526  0.00  0.00    +0.000 NA
BRANCH   5   7
ATOM      7  C   UNL     1       1.850   7.593  19.721  0.00  0.00    +0.000 A 
ATOM      8  C   UNL     1       2.151   8.131  18.462  0.00  0.00    +0.000 A 
ATOM      9  C   UNL     1       1.840   9.461  18.167  0.00  0.00    +0.000 A 
ATOM     10  C   UNL     1       1.230  10.277  19.132  0.00  0.00    +0.000 A 
ATOM     11  C   UNL     1       0.948   9.747  20.394  0.00  0.00    +0.000 A 
ATOM     12 CL   UNL     1       0.210  10.690  21.641  0.00  0.00    +0.000 Cl
ATOM     13  C   UNL     1       1.256   8.414  20.686  0.00  0.00    +0.000 A 
BRANCH  10  14
ATOM     14  C   UNL     1       0.912  11.629  18.789  0.00  0.00    +0.000 C 
ATOM     15  N   UNL     1       0.646  12.731  18.535  0.00  0.00    +0.000 NA
ENDBRANCH  10  14
ENDBRANCH   5   7
ENDBRANCH   1   2
BRANCH   1  17
ATOM     16  C   UNL     1       3.702   1.122  18.311  0.00  0.00    +0.000 C 
ATOM     17  C   UNL     1       3.802   2.643  18.206  0.00  0.00    +0.000 C 
BRANCH  17  18
ATOM     18  N   UNL     1       4.785   3.015  17.178  0.00  0.00    +0.000 N 
ATOM     19  H   UNL     1       4.588   2.600  16.265  0.00  0.00    +0.000 HD
BRANCH  18  20
ATOM     20  C   UNL     1       5.353   4.288  17.133  0.00  0.00    +0.000 A 
ATOM     21  C   UNL     1       4.842   5.304  16.323  0.00  0.00    +0.000 A 
ATOM     22  C   UNL     1       5.406   6.577  16.313  0.00  0.00    +0.000 A 
ATOM     23  C   UNL     1       6.476   6.876  17.159  0.00  0.00    +0.000 A 
ATOM     24  C   UNL     1       7.044   8.155  17.171  0.00  0.00    +0.000 A 
ATOM     25  C   UNL     1       8.075   8.440  18.052  0.00  0.00    +0.000 A 
ATOM     26  C   UNL     1       8.506   7.426  18.888  0.00  0.00    +0.000 A 
ATOM     27  N   UNL     1       7.993   6.173  18.886  0.00  0.00    +0.000 NA
ATOM     28  C   UNL     1       6.985   5.896  18.033  0.00  0.00    +0.000 A 
ATOM     29  C   UNL     1       6.408   4.624  18.000  0.00  0.00    +0.000 A 
ENDBRANCH  18  20
ENDBRANCH  17  18
ENDBRANCH   1  17
TORSDOF 6
ENDMDL
MODEL 6
REMARK VINA RESULT:      -7.9      8.440     10.453
REMARK  Name = 
REMARK  7 active torsions:
REMARK  status: ('A' for Active; 'I' for Inactive)
REMARK    1  A    between atoms: C_1  and  C_2
REMARK    2  A    between atoms: C_2  and  C_3
REMARK    3  A    between atoms: C_2  and  N_18
REMARK    4  A    between atoms: C_3  and  N_4
REMARK    5  A    between atoms: C_7  and  C_8
REMARK    6  A    between atoms: C_11  and  C_12
REMARK    7  A    between atoms: N_18  and  C_19
REMARK                            x       y       z     vdW  Elec       q    Type
REMARK                         _______ _______ _______ _____ _____    ______ ____
ROOT
ATOM      1  C   UNL     1       0.638  10.066  20.350  0.00  0.00    +0.000 C 
ENDROOT
BRANCH   1   2
ATOM      2  N   UNL     1      -0.110  11.192  20.867  0.00  0.00    +0.000 N 
ATOM      3  C   UNL     1       0.383  12.437  21.131  0.00  0.00    +0.000 A 
ATOM      4  C   UNL     1      -0.642  13.126  21.730  0.00  0.00    +0.000 A 
ATOM      5  C   UNL     1      -1.730  12.215  21.793  0.00  0.00    +0.000 A 
ATOM      6  N   UNL     1      -1.386  11.034  21.261  0.00  0.00    +0.000 NA
BRANCH   5   7
ATOM      7  C   UNL     1      -3.057  12.444  22.360  0.00  0.00    +0.000 A 
ATOM      8  C   UNL     1      -3.253  12.432  23.748  0.00  0.00    +0.000 A 
ATOM      9  C   UNL     1      -4.515  12.686  24.289  0.00  0.00    +0.000 A 
ATOM     10  C   UNL     1      -5.607  12.949  23.447  0.00  0.00    +0.000 A 
ATOM     11  C   UNL     1      -5.417  12.941  22.062  0.00  0.00    +0.000 A 
ATOM     12 CL   UNL     1      -6.713  13.242  20.957  0.00  0.00    +0.000 Cl
ATOM     13  C   UNL     1      -4.152  12.690  21.523  0.00  0.00    +0.000 A 
BRANCH  10  14
ATOM     14  C   UNL     1      -6.882  13.221  24.036  0.00  0.00    +0.000 C 
ATOM     15  N   UNL     1      -7.916  13.467  24.505  0.00  0.00    +0.000 NA
ENDBRANCH  10  14
ENDBRANCH   5   7
ENDBRANCH   1   2
BRANCH   1  17
ATOM     16  C   UNL     1       0.805   9.291  22.780  0.00  0.00    +0.000 C 
ATOM     17  C   UNL     1       0.826   8.879  21.309  0.00  0.00    +0.000 C 
BRANCH  17  18
ATOM     18  N   UNL     1       2.052   8.123  21.013  0.00  0.00    +0.000 N 
ATOM     19  H   UNL     1       2.675   8.037  21.819  0.00  0.00    +0.000 HD
BRANCH  18  20
ATOM     20  C   UNL     1       2.047   7.024  20.156  0.00  0.00    +0.000 A 
ATOM     21  C   UNL     1       2.524   7.099  18.845  0.00  0.00    +0.000 A 
ATOM     22  C   UNL     1       2.537   5.982  18.013  0.00  0.00    +0.000 A 
ATOM     23  C   UNL     1       2.114   4.743  18.497  0.00  0.00    +0.000 A 
ATOM     24  C   UNL     1       2.135   3.609  17.677  0.00  0.00    +0.000 A 
ATOM     25  C   UNL     1       1.753   2.380  18.194  0.00  0.00    +0.000 A 
ATOM     26  C   UNL     1       1.355   2.335  19.517  0.00  0.00    +0.000 A 
ATOM     27  N   UNL     1       1.302   3.416  20.331  0.00  0.00    +0.000 NA
ATOM     28  C   UNL     1       1.680   4.611  19.830  0.00  0.00    +0.000 A 
ATOM     29  C   UNL     1       1.659   5.758  20.629  0.00  0.00    +0.000 A 
ENDBRANCH  18  20
ENDBRANCH  17  18
ENDBRANCH   1  17
TORSDOF 6
ENDMDL
MODEL 7
REMARK VINA RESULT:      -7.9      4.518      6.936
REMARK  Name = 
REMARK  7 active torsions:
REMARK  status: ('A' for Active; 'I' for Inactive)
REMARK    1  A    between atoms: C_1  and  C_2
REMARK    2  A    between atoms: C_2  and  C_3
REMARK    3  A    between atoms: C_2  and  N_18
REMARK    4  A    between atoms: C_3  and  N_4
REMARK    5  A    between atoms: C_7  and  C_8
REMARK    6  A    between atoms: C_11  and  C_12
REMARK    7  A    between atoms: N_18  and  C_19
REMARK                            x       y       z     vdW  Elec       q    Type
REMARK                         _______ _______ _______ _____ _____    ______ ____
ROOT
ATOM      1  C   UNL     1       2.278   3.038  18.195  0.00  0.00    +0.000 C 
ENDROOT
BRANCH   1   2
ATOM      2  N   UNL     1       2.273   4.222  19.028  0.00  0.00    +0.000 N 
ATOM      3  C   UNL     1       2.292   4.249  20.392  0.00  0.00    +0.000 A 
ATOM      4  C   UNL     1       2.137   5.567  20.742  0.00  0.00    +0.000 A 
ATOM      5  C   UNL     1       2.028   6.278  19.516  0.00  0.00    +0.000 A 
ATOM      6  N   UNL     1       2.112   5.437  18.476  0.00  0.00    +0.000 NA
BRANCH   5   7
ATOM      7  C   UNL     1       1.829   7.713  19.329  0.00  0.00    +0.000 A 
ATOM      8  C   UNL     1       2.154   8.326  18.111  0.00  0.00    +0.000 A 
ATOM      9  C   UNL     1       1.931   9.692  17.923  0.00  0.00    +0.000 A 
ATOM     10  C   UNL     1       1.384  10.470  18.955  0.00  0.00    +0.000 A 
ATOM     11  C   UNL     1       1.077   9.863  20.176  0.00  0.00    +0.000 A 
ATOM     12 CL   UNL     1       0.413  10.754  21.501  0.00  0.00    +0.000 Cl
ATOM     13  C   UNL     1       1.298   8.495  20.362  0.00  0.00    +0.000 A 
BRANCH  10  14
ATOM     14  C   UNL     1       1.153  11.862  18.721  0.00  0.00    +0.000 C 
ATOM     15  N   UNL     1       0.964  12.997  18.556  0.00  0.00    +0.000 NA
ENDBRANCH  10  14
ENDBRANCH   5   7
ENDBRANCH   1   2
BRANCH   1  17
ATOM     16  C   UNL     1       4.035   1.206  18.489  0.00  0.00    +0.000 C 
ATOM     17  C   UNL     1       3.660   2.506  17.781  0.00  0.00    +0.000 C 
BRANCH  17  18
ATOM     18  N   UNL     1       4.717   3.510  17.976  0.00  0.00    +0.000 N 
ATOM     19  H   UNL     1       5.245   3.375  18.841  0.00  0.00    +0.000 HD
BRANCH  18  20
ATOM     20  C   UNL     1       5.460   4.009  16.907  0.00  0.00    +0.000 A 
ATOM     21  C   UNL     1       6.490   4.936  17.084  0.00  0.00    +0.000 A 
ATOM     22  C   UNL     1       7.240   5.401  16.007  0.00  0.00    +0.000 A 
ATOM     23  C   UNL     1       7.004   4.907  14.723  0.00  0.00    +0.000 A 
ATOM     24  C   UNL     1       7.759   5.354  13.633  0.00  0.00    +0.000 A 
ATOM     25  C   UNL     1       7.537   4.814  12.375  0.00  0.00    +0.000 A 
ATOM     26  C   UNL     1       6.555   3.848  12.254  0.00  0.00    +0.000 A 
ATOM     27  N   UNL     1       5.793   3.409  13.284  0.00  0.00    +0.000 NA
ATOM     28  C   UNL     1       6.013   3.929  14.509  0.00  0.00    +0.000 A 
ATOM     29  C   UNL     1       5.265   3.502  15.610  0.00  0.00    +0.000 A 
ENDBRANCH  18  20
ENDBRANCH  17  18
ENDBRANCH   1  17
TORSDOF 6
ENDMDL
MODEL 8
REMARK VINA RESULT:      -7.8      1.808      2.311
REMARK  Name = 
REMARK  7 active torsions:
REMARK  status: ('A' for Active; 'I' for Inactive)
REMARK    1  A    between atoms: C_1  and  C_2
REMARK    2  A    between atoms: C_2  and  C_3
REMARK    3  A    between atoms: C_2  and  N_18
REMARK    4  A    between atoms: C_3  and  N_4
REMARK    5  A    between atoms: C_7  and  C_8
REMARK    6  A    between atoms: C_11  and  C_12
REMARK    7  A    between atoms: N_18  and  C_19
REMARK                            x       y       z     vdW  Elec       q    Type
REMARK                         _______ _______ _______ _____ _____    ______ ____
ROOT
ATOM      1  C   UNL     1       8.168   6.047  18.960  0.00  0.00    +0.000 C 
ENDROOT
BRANCH   1   2
ATOM      2  N   UNL     1       8.137   7.435  18.553  0.00  0.00    +0.000 N 
ATOM      3  C   UNL     1       7.425   7.956  17.512  0.00  0.00    +0.000 A 
ATOM      4  C   UNL     1       7.807   9.272  17.419  0.00  0.00    +0.000 A 
ATOM      5  C   UNL     1       8.765   9.466  18.450  0.00  0.00    +0.000 A 
ATOM      6  N   UNL     1       8.956   8.329  19.135  0.00  0.00    +0.000 NA
BRANCH   5   7
ATOM      7  C   UNL     1       9.498  10.688  18.772  0.00  0.00    +0.000 A 
ATOM      8  C   UNL     1       9.674  11.086  20.104  0.00  0.00    +0.000 A 
ATOM      9  C   UNL     1      10.406  12.235  20.411  0.00  0.00    +0.000 A 
ATOM     10  C   UNL     1      10.968  13.012  19.386  0.00  0.00    +0.000 A 
ATOM     11  C   UNL     1      10.776  12.627  18.056  0.00  0.00    +0.000 A 
ATOM     12 CL   UNL     1      11.423  13.536  16.735  0.00  0.00    +0.000 Cl
ATOM     13  C   UNL     1      10.047  11.474  17.751  0.00  0.00    +0.000 A 
BRANCH  10  14
ATOM     14  C   UNL     1      11.725  14.174  19.737  0.00  0.00    +0.000 C 
ATOM     15  N   UNL     1      12.333  15.128  20.000  0.00  0.00    +0.000 NA
ENDBRANCH  10  14
ENDBRANCH   5   7
ENDBRANCH   1   2
BRANCH   1  17
ATOM     16  C   UNL     1       7.594   4.449  17.050  0.00  0.00    +0.000 C 
ATOM     17  C   UNL     1       7.108   5.130  18.327  0.00  0.00    +0.000 C 
BRANCH  17  18
ATOM     18  N   UNL     1       5.847   5.843  18.072  0.00  0.00    +0.000 N 
ATOM     19  H   UNL     1       5.745   6.143  17.100  0.00  0.00    +0.000 HD
BRANCH  18  20
ATOM     20  C   UNL     1       4.658   5.479  18.701  0.00  0.00    +0.000 A 
ATOM     21  C   UNL     1       3.497   6.248  18.602  0.00  0.00    +0.000 A 
ATOM     22  C   UNL     1       2.310   5.852  19.215  0.00  0.00    +0.000 A 
ATOM     23  C   UNL     1       2.248   4.640  19.905  0.00  0.00    +0.000 A 
ATOM     24  C   UNL     1       1.059   4.222  20.513  0.00  0.00    +0.000 A 
ATOM     25  C   UNL     1       1.010   2.993  21.153  0.00  0.00    +0.000 A 
ATOM     26  C   UNL     1       2.163   2.229  21.168  0.00  0.00    +0.000 A 
ATOM     27  N   UNL     1       3.334   2.614  20.608  0.00  0.00    +0.000 NA
ATOM     28  C   UNL     1       3.381   3.807  19.979  0.00  0.00    +0.000 A 
ATOM     29  C   UNL     1       4.560   4.247  19.372  0.00  0.00    +0.000 A 
ENDBRANCH  18  20
ENDBRANCH  17  18
ENDBRANCH   1  17
TORSDOF 6
ENDMDL
MODEL 9
REMARK VINA RESULT:      -7.8      5.346      7.338
REMARK  Name = 
REMARK  7 active torsions:
REMARK  status: ('A' for Active; 'I' for Inactive)
REMARK    1  A    between atoms: C_1  and  C_2
REMARK    2  A    between atoms: C_2  and  C_3
REMARK    3  A    between atoms: C_2  and  N_18
REMARK    4  A    between atoms: C_3  and  N_4
REMARK    5  A    between atoms: C_7  and  C_8
REMARK    6  A    between atoms: C_11  and  C_12
REMARK    7  A    between atoms: N_18  and  C_19
REMARK                            x       y       z     vdW  Elec       q    Type
REMARK                         _______ _______ _______ _____ _____    ______ ____
ROOT
ATOM      1  C   UNL     1       2.276   5.211  20.802  0.00  0.00    +0.000 C 
ENDROOT
BRANCH   1   2
ATOM      2  N   UNL     1       2.052   6.455  20.097  0.00  0.00    +0.000 N 
ATOM      3  C   UNL     1       2.560   6.795  18.877  0.00  0.00    +0.000 A 
ATOM      4  C   UNL     1       2.201   8.104  18.673  0.00  0.00    +0.000 A 
ATOM      5  C   UNL     1       1.472   8.485  19.832  0.00  0.00    +0.000 A 
ATOM      6  N   UNL     1       1.392   7.462  20.694  0.00  0.00    +0.000 NA
BRANCH   5   7
ATOM      7  C   UNL     1       0.882   9.788  20.129  0.00  0.00    +0.000 A 
ATOM      8  C   UNL     1       1.006  10.851  19.224  0.00  0.00    +0.000 A 
ATOM      9  C   UNL     1       0.411  12.086  19.494  0.00  0.00    +0.000 A 
ATOM     10  C   UNL     1      -0.312  12.279  20.681  0.00  0.00    +0.000 A 
ATOM     11  C   UNL     1      -0.419  11.226  21.593  0.00  0.00    +0.000 A 
ATOM     12 CL   UNL     1      -1.281  11.388  23.084  0.00  0.00    +0.000 Cl
ATOM     13  C   UNL     1       0.174   9.990  21.319  0.00  0.00    +0.000 A 
BRANCH  10  14
ATOM     14  C   UNL     1      -0.922  13.552  20.917  0.00  0.00    +0.000 C 
ATOM     15  N   UNL     1      -1.395  14.594  21.118  0.00  0.00    +0.000 NA
ENDBRANCH  10  14
ENDBRANCH   5   7
ENDBRANCH   1   2
BRANCH   1  17
ATOM     16  C   UNL     1       1.268   2.882  20.502  0.00  0.00    +0.000 C 
ATOM     17  C   UNL     1       2.231   3.931  19.951  0.00  0.00    +0.000 C 
BRANCH  17  18
ATOM     18  N   UNL     1       3.567   3.345  19.769  0.00  0.00    +0.000 N 
ATOM     19  H   UNL     1       3.575   2.327  19.861  0.00  0.00    +0.000 HD
BRANCH  18  20
ATOM     20  C   UNL     1       4.472   3.856  18.840  0.00  0.00    +0.000 A 
ATOM     21  C   UNL     1       5.617   4.559  19.224  0.00  0.00    +0.000 A 
ATOM     22  C   UNL     1       6.524   5.037  18.282  0.00  0.00    +0.000 A 
ATOM     23  C   UNL     1       6.327   4.778  16.924  0.00  0.00    +0.000 A 
ATOM     24  C   UNL     1       7.237   5.240  15.967  0.00  0.00    +0.000 A 
ATOM     25  C   UNL     1       7.044   4.931  14.630  0.00  0.00    +0.000 A 
ATOM     26  C   UNL     1       5.936   4.173  14.298  0.00  0.00    +0.000 A 
ATOM     27  N   UNL     1       5.025   3.729  15.196  0.00  0.00    +0.000 NA
ATOM     28  C   UNL     1       5.216   4.024  16.499  0.00  0.00    +0.000 A 
ATOM     29  C   UNL     1       4.315   3.579  17.470  0.00  0.00    +0.000 A 
ENDBRANCH  18  20
ENDBRANCH  17  18
ENDBRANCH   1  17
TORSDOF 6
ENDMDL
