MODEL 1
REMARK VINA RESULT:      -8.7      0.000      0.000
REMARK  Name = 
REMARK  6 active torsions:
REMARK  status: ('A' for Active; 'I' for Inactive)
REMARK    1  A    between atoms: C_5  and  C_6
REMARK    2  A    between atoms: C_6  and  N_7
REMARK    3  A    between atoms: C_11  and  C_12
REMARK    4  A    between atoms: C_12  and  C_13
REMARK    5  A    between atoms: C_12  and  N_20
REMARK    6  A    between atoms: N_23  and  C_24
REMARK                            x       y       z     vdW  Elec       q    Type
REMARK                         _______ _______ _______ _____ _____    ______ ____
ROOT
ATOM      1  C   UNL     1       3.396   5.542  18.324  0.00  0.00    +0.000 C 
ENDROOT
BRANCH   1   2
ATOM      2  C   UNL     1       2.490   4.443  18.941  0.00  0.00    +0.000 A 
ATOM      3  C   UNL     1       2.761   3.880  20.208  0.00  0.00    +0.000 A 
ATOM      4  C   UNL     1       2.029   2.787  20.697  0.00  0.00    +0.000 A 
ATOM      5  C   UNL     1       0.985   2.258  19.949  0.00  0.00    +0.000 A 
ATOM      6  C   UNL     1       0.633   2.862  18.745  0.00  0.00    +0.000 A 
ATOM      7  C   UNL     1       1.361   3.954  18.268  0.00  0.00    +0.000 A 
ATOM      8  F   UNL     1       0.937   4.539  17.139  0.00  0.00    +0.000 F 
ENDBRANCH   1   2
BRANCH   1   9
ATOM      9  N   UNL     1       3.021   6.891  18.845  0.00  0.00    +0.000 NA
ATOM     10  C   UNL     1       2.211   6.901  20.076  0.00  0.00    +0.000 C 
ATOM     11  C   UNL     1       1.920   8.355  20.576  0.00  0.00    +0.000 C 
ATOM     12  N   UNL     1       1.480   9.347  19.580  0.00  0.00    +0.000 NA
ATOM     13  C   UNL     1       2.302   9.203  18.359  0.00  0.00    +0.000 C 
ATOM     14  C   UNL     1       2.364   7.756  17.842  0.00  0.00    +0.000 C 
BRANCH  12  15
ATOM     15  C   UNL     1       0.044   9.507  19.267  0.00  0.00    +0.000 C 
ATOM     16  C   UNL     1      -0.972   9.797  20.382  0.00  0.00    +0.000 C 
ATOM     17  C   UNL     1      -1.046  11.244  20.858  0.00  0.00    +0.000 C 
ATOM     18  C   UNL     1      -1.074  12.268  19.728  0.00  0.00    +0.000 C 
ATOM     19  C   UNL     1      -0.100  11.986  18.589  0.00  0.00    +0.000 C 
ATOM     20  C   UNL     1      -0.125  10.535  18.129  0.00  0.00    +0.000 C 
ENDBRANCH  12  15
ENDBRANCH   1   9
BRANCH   1  25
ATOM     21  N   UNL     1       5.696   4.544  17.671  0.00  0.00    +0.000 N 
ATOM     22  N   UNL     1       6.944   4.513  18.190  0.00  0.00    +0.000 NA
ATOM     23  N   UNL     1       6.878   5.195  19.319  0.00  0.00    +0.000 NA
ATOM     24  N   UNL     1       5.611   5.647  19.540  0.00  0.00    +0.000 NA
ATOM     25  C   UNL     1       4.875   5.264  18.508  0.00  0.00    +0.000 A 
BRANCH  21  26
ATOM     26  C   UNL     1       5.390   3.677  16.550  0.00  0.00    +0.000 C 
BRANCH  26  31
ATOM     27  F   UNL     1       7.550   4.677  11.419  0.00  0.00    +0.000 F 
ATOM     28  C   UNL     1       7.002   4.519  12.631  0.00  0.00    +0.000 A 
ATOM     29  C   UNL     1       7.565   5.155  13.730  0.00  0.00    +0.000 A 
ATOM     30  C   UNL     1       7.028   4.946  15.007  0.00  0.00    +0.000 A 
ATOM     31  C   UNL     1       5.916   4.101  15.192  0.00  0.00    +0.000 A 
ATOM     32  C   UNL     1       5.350   3.490  14.056  0.00  0.00    +0.000 A 
ATOM     33  C   UNL     1       5.892   3.701  12.779  0.00  0.00    +0.000 A 
ENDBRANCH  26  31
ENDBRANCH  21  26
ENDBRANCH   1  25
TORSDOF 6
ENDMDL
MODEL 2
REMARK VINA RESULT:      -8.4      0.882      1.218
REMARK  Name = 
REMARK  6 active torsions:
REMARK  status: ('A' for Active; 'I' for Inactive)
REMARK    1  A    between atoms: C_5  and  C_6
REMARK    2  A    between atoms: C_6  and  N_7
REMARK    3  A    between atoms: C_11  and  C_12
REMARK    4  A    between atoms: C_12  and  C_13
REMARK    5  A    between atoms: C_12  and  N_20
REMARK    6  A    between atoms: N_23  and  C_24
REMARK                            x       y       z     vdW  Elec       q    Type
REMARK                         _______ _______ _______ _____ _____    ______ ____
ROOT
ATOM      1  C   UNL     1       3.165   5.894  18.517  0.00  0.00    +0.000 C 
ENDROOT
BRANCH   1   2
ATOM      2  C   UNL     1       2.357   4.855  19.339  0.00  0.00    +0.000 A 
ATOM      3  C   UNL     1       2.561   4.682  20.726  0.00  0.00    +0.000 A 
ATOM      4  C   UNL     1       1.936   3.645  21.436  0.00  0.00    +0.000 A 
ATOM      5  C   UNL     1       1.065   2.782  20.784  0.00  0.00    +0.000 A 
ATOM      6  C   UNL     1       0.768   2.997  19.441  0.00  0.00    +0.000 A 
ATOM      7  C   UNL     1       1.387   4.036  18.743  0.00  0.00    +0.000 A 
ATOM      8  F   UNL     1       1.014   4.240  17.471  0.00  0.00    +0.000 F 
ENDBRANCH   1   2
BRANCH   1   9
ATOM      9  N   UNL     1       2.785   7.285  18.902  0.00  0.00    +0.000 NA
ATOM     10  C   UNL     1       1.996   7.416  20.140  0.00  0.00    +0.000 C 
ATOM     11  C   UNL     1       1.696   8.911  20.492  0.00  0.00    +0.000 C 
ATOM     12  N   UNL     1       1.229   9.790  19.406  0.00  0.00    +0.000 NA
ATOM     13  C   UNL     1       2.031   9.528  18.192  0.00  0.00    +0.000 C 
ATOM     14  C   UNL     1       2.100   8.036  17.827  0.00  0.00    +0.000 C 
BRANCH  12  15
ATOM     15  C   UNL     1      -0.214   9.903  19.105  0.00  0.00    +0.000 C 
ATOM     16  C   UNL     1      -1.233  10.135  20.231  0.00  0.00    +0.000 C 
ATOM     17  C   UNL     1      -1.357  11.568  20.735  0.00  0.00    +0.000 C 
ATOM     18  C   UNL     1      -1.430  12.612  19.625  0.00  0.00    +0.000 C 
ATOM     19  C   UNL     1      -0.454  12.388  18.476  0.00  0.00    +0.000 C 
ATOM     20  C   UNL     1      -0.428  10.946  17.988  0.00  0.00    +0.000 C 
ENDBRANCH  12  15
ENDBRANCH   1   9
BRANCH   1  25
ATOM     21  N   UNL     1       5.607   6.024  17.663  0.00  0.00    +0.000 N 
ATOM     22  N   UNL     1       6.831   5.658  18.105  0.00  0.00    +0.000 NA
ATOM     23  N   UNL     1       6.632   5.101  19.286  0.00  0.00    +0.000 NA
ATOM     24  N   UNL     1       5.305   5.090  19.599  0.00  0.00    +0.000 NA
ATOM     25  C   UNL     1       4.664   5.681  18.603  0.00  0.00    +0.000 A 
BRANCH  21  26
ATOM     26  C   UNL     1       5.469   6.447  16.283  0.00  0.00    +0.000 C 
BRANCH  26  31
ATOM     27  F   UNL     1       6.895   3.166  11.902  0.00  0.00    +0.000 F 
ATOM     28  C   UNL     1       6.574   3.875  12.991  0.00  0.00    +0.000 A 
ATOM     29  C   UNL     1       5.351   3.665  13.616  0.00  0.00    +0.000 A 
ATOM     30  C   UNL     1       4.990   4.445  14.721  0.00  0.00    +0.000 A 
ATOM     31  C   UNL     1       5.855   5.441  15.215  0.00  0.00    +0.000 A 
ATOM     32  C   UNL     1       7.100   5.615  14.578  0.00  0.00    +0.000 A 
ATOM     33  C   UNL     1       7.457   4.832  13.470  0.00  0.00    +0.000 A 
ENDBRANCH  26  31
ENDBRANCH  21  26
ENDBRANCH   1  25
TORSDOF 6
ENDMDL
MODEL 3
REMARK VINA RESULT:      -8.0      1.135      1.608
REMARK  Name = 
REMARK  6 active torsions:
REMARK  status: ('A' for Active; 'I' for Inactive)
REMARK    1  A    between atoms: C_5  and  C_6
REMARK    2  A    between atoms: C_6  and  N_7
REMARK    3  A    between atoms: C_11  and  C_12
REMARK    4  A    between atoms: C_12  and  C_13
REMARK    5  A    between atoms: C_12  and  N_20
REMARK    6  A    between atoms: N_23  and  C_24
REMARK                            x       y       z     vdW  Elec       q    Type
REMARK                         _______ _______ _______ _____ _____    ______ ____
ROOT
ATOM      1  C   UNL     1       3.099   5.819  18.217  0.00  0.00    +0.000 C 
ENDROOT
BRANCH   1   2
ATOM      2  C   UNL     1       2.182   4.691  18.762  0.00  0.00    +0.000 A 
ATOM      3  C   UNL     1       1.639   4.738  20.065  0.00  0.00    +0.000 A 
ATOM      4  C   UNL     1       0.933   3.652  20.606  0.00  0.00    +0.000 A 
ATOM      5  C   UNL     1       0.720   2.512  19.842  0.00  0.00    +0.000 A 
ATOM      6  C   UNL     1       1.156   2.484  18.520  0.00  0.00    +0.000 A 
ATOM      7  C   UNL     1       1.850   3.571  17.987  0.00  0.00    +0.000 A 
ATOM      8  F   UNL     1       2.187   3.519  16.690  0.00  0.00    +0.000 F 
ENDBRANCH   1   2
BRANCH   1   9
ATOM      9  N   UNL     1       2.750   7.131  18.837  0.00  0.00    +0.000 NA
ATOM     10  C   UNL     1       2.502   7.109  20.290  0.00  0.00    +0.000 C 
ATOM     11  C   UNL     1       2.203   8.537  20.857  0.00  0.00    +0.000 C 
ATOM     12  N   UNL     1       1.253   9.384  20.116  0.00  0.00    +0.000 NA
ATOM     13  C   UNL     1       1.536   9.276  18.669  0.00  0.00    +0.000 C 
ATOM     14  C   UNL     1       1.620   7.822  18.178  0.00  0.00    +0.000 C 
BRANCH  12  15
ATOM     15  C   UNL     1      -0.195   9.312  20.404  0.00  0.00    +0.000 C 
ATOM     16  C   UNL     1      -0.702   8.690  21.715  0.00  0.00    +0.000 C 
ATOM     17  C   UNL     1      -0.631   9.582  22.949  0.00  0.00    +0.000 C 
ATOM     18  C   UNL     1      -1.133  11.004  22.716  0.00  0.00    +0.000 C 
ATOM     19  C   UNL     1      -0.675  11.634  21.406  0.00  0.00    +0.000 C 
ATOM     20  C   UNL     1      -0.831  10.704  20.210  0.00  0.00    +0.000 C 
ENDBRANCH  12  15
ENDBRANCH   1   9
BRANCH   1  25
ATOM     21  N   UNL     1       5.585   5.825  17.489  0.00  0.00    +0.000 N 
ATOM     22  N   UNL     1       6.760   5.363  17.974  0.00  0.00    +0.000 NA
ATOM     23  N   UNL     1       6.465   4.772  19.118  0.00  0.00    +0.000 NA
ATOM     24  N   UNL     1       5.126   4.834  19.366  0.00  0.00    +0.000 NA
ATOM     25  C   UNL     1       4.575   5.506  18.367  0.00  0.00    +0.000 A 
BRANCH  21  26
ATOM     26  C   UNL     1       5.544   6.312  16.124  0.00  0.00    +0.000 C 
BRANCH  26  31
ATOM     27  F   UNL     1       6.963   3.126  11.671  0.00  0.00    +0.000 F 
ATOM     28  C   UNL     1       6.643   3.811  12.776  0.00  0.00    +0.000 A 
ATOM     29  C   UNL     1       5.414   3.599  13.387  0.00  0.00    +0.000 A 
ATOM     30  C   UNL     1       5.054   4.355  14.509  0.00  0.00    +0.000 A 
ATOM     31  C   UNL     1       5.927   5.328  15.034  0.00  0.00    +0.000 A 
ATOM     32  C   UNL     1       7.178   5.504  14.410  0.00  0.00    +0.000 A 
ATOM     33  C   UNL     1       7.533   4.745  13.284  0.00  0.00    +0.000 A 
ENDBRANCH  26  31
ENDBRANCH  21  26
ENDBRANCH   1  25
TORSDOF 6
ENDMDL
MODEL 4
REMARK VINA RESULT:      -8.0      0.834      1.116
REMARK  Name = 
REMARK  6 active torsions:
REMARK  status: ('A' for Active; 'I' for Inactive)
REMARK    1  A    between atoms: C_5  and  C_6
REMARK    2  A    between atoms: C_6  and  N_7
REMARK    3  A    between atoms: C_11  and  C_12
REMARK    4  A    between atoms: C_12  and  C_13
REMARK    5  A    between atoms: C_12  and  N_20
REMARK    6  A    between atoms: N_23  and  C_24
REMARK                            x       y       z     vdW  Elec       q    Type
REMARK                         _______ _______ _______ _____ _____    ______ ____
ROOT
ATOM      1  C   UNL     1       3.186   5.642  18.295  0.00  0.00    +0.000 C 
ENDROOT
BRANCH   1   2
ATOM      2  C   UNL     1       2.225   4.556  18.849  0.00  0.00    +0.000 A 
ATOM      3  C   UNL     1       1.771   4.577  20.187  0.00  0.00    +0.000 A 
ATOM      4  C   UNL     1       1.023   3.518  20.724  0.00  0.00    +0.000 A 
ATOM      5  C   UNL     1       0.681   2.433  19.927  0.00  0.00    +0.000 A 
ATOM      6  C   UNL     1       1.029   2.439  18.580  0.00  0.00    +0.000 A 
ATOM      7  C   UNL     1       1.765   3.500  18.049  0.00  0.00    +0.000 A 
ATOM      8  F   UNL     1       2.015   3.487  16.732  0.00  0.00    +0.000 F 
ENDBRANCH   1   2
BRANCH   1   9
ATOM      9  N   UNL     1       2.841   6.985  18.848  0.00  0.00    +0.000 NA
ATOM     10  C   UNL     1       2.562   7.033  20.294  0.00  0.00    +0.000 C 
ATOM     11  C   UNL     1       2.270   8.488  20.789  0.00  0.00    +0.000 C 
ATOM     12  N   UNL     1       1.346   9.311  19.991  0.00  0.00    +0.000 NA
ATOM     13  C   UNL     1       1.658   9.135  18.556  0.00  0.00    +0.000 C 
ATOM     14  C   UNL     1       1.733   7.658  18.134  0.00  0.00    +0.000 C 
BRANCH  12  15
ATOM     15  C   UNL     1      -0.108   9.270  20.251  0.00  0.00    +0.000 C 
ATOM     16  C   UNL     1      -0.654   8.635  21.539  0.00  0.00    +0.000 C 
ATOM     17  C   UNL     1      -0.584   9.500  22.793  0.00  0.00    +0.000 C 
ATOM     18  C   UNL     1      -1.047  10.938  22.581  0.00  0.00    +0.000 C 
ATOM     19  C   UNL     1      -0.549  11.583  21.292  0.00  0.00    +0.000 C 
ATOM     20  C   UNL     1      -0.705  10.682  20.075  0.00  0.00    +0.000 C 
ENDBRANCH  12  15
ENDBRANCH   1   9
BRANCH   1  25
ATOM     21  N   UNL     1       5.465   4.570  17.688  0.00  0.00    +0.000 N 
ATOM     22  N   UNL     1       6.697   4.487  18.239  0.00  0.00    +0.000 NA
ATOM     23  N   UNL     1       6.626   5.155  19.376  0.00  0.00    +0.000 NA
ATOM     24  N   UNL     1       5.370   5.649  19.570  0.00  0.00    +0.000 NA
ATOM     25  C   UNL     1       4.648   5.308  18.514  0.00  0.00    +0.000 A 
BRANCH  21  26
ATOM     26  C   UNL     1       5.159   3.730  16.547  0.00  0.00    +0.000 C 
BRANCH  26  31
ATOM     27  F   UNL     1       7.603   4.655  11.531  0.00  0.00    +0.000 F 
ATOM     28  C   UNL     1       6.989   4.516  12.713  0.00  0.00    +0.000 A 
ATOM     29  C   UNL     1       7.504   5.151  13.836  0.00  0.00    +0.000 A 
ATOM     30  C   UNL     1       6.897   4.961  15.084  0.00  0.00    +0.000 A 
ATOM     31  C   UNL     1       5.762   4.135  15.215  0.00  0.00    +0.000 A 
ATOM     32  C   UNL     1       5.246   3.524  14.055  0.00  0.00    +0.000 A 
ATOM     33  C   UNL     1       5.859   3.717  12.807  0.00  0.00    +0.000 A 
ENDBRANCH  26  31
ENDBRANCH  21  26
ENDBRANCH   1  25
TORSDOF 6
ENDMDL
MODEL 5
REMARK VINA RESULT:      -7.9      2.639      8.446
REMARK  Name = 
REMARK  6 active torsions:
REMARK  status: ('A' for Active; 'I' for Inactive)
REMARK    1  A    between atoms: C_5  and  C_6
REMARK    2  A    between atoms: C_6  and  N_7
REMARK    3  A    between atoms: C_11  and  C_12
REMARK    4  A    between atoms: C_12  and  C_13
REMARK    5  A    between atoms: C_12  and  N_20
REMARK    6  A    between atoms: N_23  and  C_24
REMARK                            x       y       z     vdW  Elec       q    Type
REMARK                         _______ _______ _______ _____ _____    ______ ____
ROOT
ATOM      1  C   UNL     1       3.001   6.534  19.582  0.00  0.00    +0.000 C 
ENDROOT
BRANCH   1   2
ATOM      2  C   UNL     1       2.305   5.168  19.342  0.00  0.00    +0.000 A 
ATOM      3  C   UNL     1       2.028   4.692  18.041  0.00  0.00    +0.000 A 
ATOM      4  C   UNL     1       1.270   3.530  17.831  0.00  0.00    +0.000 A 
ATOM      5  C   UNL     1       0.805   2.797  18.915  0.00  0.00    +0.000 A 
ATOM      6  C   UNL     1       1.153   3.189  20.204  0.00  0.00    +0.000 A 
ATOM      7  C   UNL     1       1.915   4.342  20.406  0.00  0.00    +0.000 A 
ATOM      8  F   UNL     1       2.279   4.635  21.663  0.00  0.00    +0.000 F 
ENDBRANCH   1   2
BRANCH   1   9
ATOM      9  N   UNL     1       4.375   6.538  18.996  0.00  0.00    +0.000 NA
ATOM     10  C   UNL     1       4.451   6.764  17.541  0.00  0.00    +0.000 C 
ATOM     11  C   UNL     1       5.929   6.811  17.030  0.00  0.00    +0.000 C 
ATOM     12  N   UNL     1       6.853   5.768  17.508  0.00  0.00    +0.000 NA
ATOM     13  C   UNL     1       6.644   5.563  18.957  0.00  0.00    +0.000 C 
ATOM     14  C   UNL     1       5.169   5.335  19.326  0.00  0.00    +0.000 C 
BRANCH  12  15
ATOM     15  C   UNL     1       6.976   4.487  16.779  0.00  0.00    +0.000 C 
ATOM     16  C   UNL     1       5.769   3.546  16.644  0.00  0.00    +0.000 C 
ATOM     17  C   UNL     1       4.752   3.912  15.569  0.00  0.00    +0.000 C 
ATOM     18  C   UNL     1       5.375   4.298  14.231  0.00  0.00    +0.000 C 
ATOM     19  C   UNL     1       6.596   5.204  14.336  0.00  0.00    +0.000 C 
ATOM     20  C   UNL     1       7.594   4.742  15.388  0.00  0.00    +0.000 C 
ENDBRANCH  12  15
ENDBRANCH   1   9
BRANCH   1  25
ATOM     21  N   UNL     1       1.509   8.634  19.859  0.00  0.00    +0.000 N 
ATOM     22  N   UNL     1       0.888   9.520  19.049  0.00  0.00    +0.000 NA
ATOM     23  N   UNL     1       1.174   9.139  17.817  0.00  0.00    +0.000 NA
ATOM     24  N   UNL     1       1.952   8.019  17.824  0.00  0.00    +0.000 NA
ATOM     25  C   UNL     1       2.182   7.711  19.091  0.00  0.00    +0.000 A 
BRANCH  21  26
ATOM     26  C   UNL     1       1.186   8.643  21.273  0.00  0.00    +0.000 C 
BRANCH  26  31
ATOM     27  F   UNL     1      -1.916  13.035  23.029  0.00  0.00    +0.000 F 
ATOM     28  C   UNL     1      -1.115  12.027  22.660  0.00  0.00    +0.000 A 
ATOM     29  C   UNL     1      -0.130  12.242  21.706  0.00  0.00    +0.000 A 
ATOM     30  C   UNL     1       0.671  11.175  21.278  0.00  0.00    +0.000 A 
ATOM     31  C   UNL     1       0.494   9.882  21.809  0.00  0.00    +0.000 A 
ATOM     32  C   UNL     1      -0.496   9.698  22.795  0.00  0.00    +0.000 A 
ATOM     33  C   UNL     1      -1.297  10.770  23.219  0.00  0.00    +0.000 A 
ENDBRANCH  26  31
ENDBRANCH  21  26
ENDBRANCH   1  25
TORSDOF 6
ENDMDL
MODEL 6
REMARK VINA RESULT:      -7.9      3.531      6.939
REMARK  Name = 
REMARK  6 active torsions:
REMARK  status: ('A' for Active; 'I' for Inactive)
REMARK    1  A    between atoms: C_5  and  C_6
REMARK    2  A    between atoms: C_6  and  N_7
REMARK    3  A    between atoms: C_11  and  C_12
REMARK    4  A    between atoms: C_12  and  C_13
REMARK    5  A    between atoms: C_12  and  N_20
REMARK    6  A    between atoms: N_23  and  C_24
REMARK                            x       y       z     vdW  Elec       q    Type
REMARK                         _______ _______ _______ _____ _____    ______ ____
ROOT
ATOM      1  C   UNL     1       0.086  10.995  18.679  0.00  0.00    +0.000 C 
ENDROOT
BRANCH   1   2
ATOM      2  C   UNL     1      -1.436  10.985  18.376  0.00  0.00    +0.000 A 
ATOM      3  C   UNL     1      -2.321  11.906  18.982  0.00  0.00    +0.000 A 
ATOM      4  C   UNL     1      -3.711  11.802  18.821  0.00  0.00    +0.000 A 
ATOM      5  C   UNL     1      -4.246  10.801  18.021  0.00  0.00    +0.000 A 
ATOM      6  C   UNL     1      -3.390   9.947  17.332  0.00  0.00    +0.000 A 
ATOM      7  C   UNL     1      -2.007  10.061  17.490  0.00  0.00    +0.000 A 
ATOM      8  F   UNL     1      -1.228   9.258  16.751  0.00  0.00    +0.000 F 
ENDBRANCH   1   2
BRANCH   1   9
ATOM      9  N   UNL     1       0.509  12.317  19.227  0.00  0.00    +0.000 NA
ATOM     10  C   UNL     1       1.061  13.270  18.248  0.00  0.00    +0.000 C 
ATOM     11  C   UNL     1       1.420  14.645  18.904  0.00  0.00    +0.000 C 
ATOM     12  N   UNL     1       2.158  14.625  20.178  0.00  0.00    +0.000 NA
ATOM     13  C   UNL     1       1.577  13.587  21.057  0.00  0.00    +0.000 C 
ATOM     14  C   UNL     1       1.446  12.220  20.367  0.00  0.00    +0.000 C 
BRANCH  12  15
ATOM     15  C   UNL     1       3.636  14.595  20.187  0.00  0.00    +0.000 C 
ATOM     16  C   UNL     1       4.433  14.992  18.935  0.00  0.00    +0.000 C 
ATOM     17  C   UNL     1       4.593  16.489  18.691  0.00  0.00    +0.000 C 
ATOM     18  C   UNL     1       4.979  17.282  19.936  0.00  0.00    +0.000 C 
ATOM     19  C   UNL     1       4.229  16.885  21.202  0.00  0.00    +0.000 C 
ATOM     20  C   UNL     1       4.162  15.378  21.408  0.00  0.00    +0.000 C 
ENDBRANCH  12  15
ENDBRANCH   1   9
BRANCH   1  25
ATOM     21  N   UNL     1       1.514   8.935  19.335  0.00  0.00    +0.000 N 
ATOM     22  N   UNL     1       1.585   8.070  20.372  0.00  0.00    +0.000 NA
ATOM     23  N   UNL     1       0.650   8.455  21.222  0.00  0.00    +0.000 NA
ATOM     24  N   UNL     1      -0.027   9.536  20.742  0.00  0.00    +0.000 NA
ATOM     25  C   UNL     1       0.519   9.854  19.578  0.00  0.00    +0.000 A 
BRANCH  21  26
ATOM     26  C   UNL     1       2.255   8.628  18.127  0.00  0.00    +0.000 C 
BRANCH  26  31
ATOM     27  F   UNL     1       4.314   3.477  17.024  0.00  0.00    +0.000 F 
ATOM     28  C   UNL     1       3.836   4.679  17.370  0.00  0.00    +0.000 A 
ATOM     29  C   UNL     1       2.537   4.793  17.849  0.00  0.00    +0.000 A 
ATOM     30  C   UNL     1       2.016   6.056  18.157  0.00  0.00    +0.000 A 
ATOM     31  C   UNL     1       2.796   7.218  17.994  0.00  0.00    +0.000 A 
ATOM     32  C   UNL     1       4.119   7.070  17.532  0.00  0.00    +0.000 A 
ATOM     33  C   UNL     1       4.636   5.803  17.223  0.00  0.00    +0.000 A 
ENDBRANCH  26  31
ENDBRANCH  21  26
ENDBRANCH   1  25
TORSDOF 6
ENDMDL
MODEL 7
REMARK VINA RESULT:      -7.7      3.457      6.902
REMARK  Name = 
REMARK  6 active torsions:
REMARK  status: ('A' for Active; 'I' for Inactive)
REMARK    1  A    between atoms: C_5  and  C_6
REMARK    2  A    between atoms: C_6  and  N_7
REMARK    3  A    between atoms: C_11  and  C_12
REMARK    4  A    between atoms: C_12  and  C_13
REMARK    5  A    between atoms: C_12  and  N_20
REMARK    6  A    between atoms: N_23  and  C_24
REMARK                            x       y       z     vdW  Elec       q    Type
REMARK                         _______ _______ _______ _____ _____    ______ ____
ROOT
ATOM      1  C   UNL     1       0.057  10.991  18.739  0.00  0.00    +0.000 C 
ENDROOT
BRANCH   1   2
ATOM      2  C   UNL     1      -1.389  10.775  18.216  0.00  0.00    +0.000 A 
ATOM      3  C   UNL     1      -1.659   9.972  17.085  0.00  0.00    +0.000 A 
ATOM      4  C   UNL     1      -2.945   9.897  16.528  0.00  0.00    +0.000 A 
ATOM      5  C   UNL     1      -3.997  10.591  17.113  0.00  0.00    +0.000 A 
ATOM      6  C   UNL     1      -3.776  11.304  18.287  0.00  0.00    +0.000 A 
ATOM      7  C   UNL     1      -2.496  11.368  18.840  0.00  0.00    +0.000 A 
ATOM      8  F   UNL     1      -2.353  12.012  20.007  0.00  0.00    +0.000 F 
ENDBRANCH   1   2
BRANCH   1   9
ATOM      9  N   UNL     1       0.182  12.315  19.416  0.00  0.00    +0.000 NA
ATOM     10  C   UNL     1       0.194  13.491  18.528  0.00  0.00    +0.000 C 
ATOM     11  C   UNL     1       0.269  14.833  19.331  0.00  0.00    +0.000 C 
ATOM     12  N   UNL     1       1.246  14.921  20.429  0.00  0.00    +0.000 NA
ATOM     13  C   UNL     1       1.210  13.667  21.210  0.00  0.00    +0.000 C 
ATOM     14  C   UNL     1       1.337  12.409  20.335  0.00  0.00    +0.000 C 
BRANCH  12  15
ATOM     15  C   UNL     1       2.629  15.371  20.164  0.00  0.00    +0.000 C 
ATOM     16  C   UNL     1       3.482  14.685  19.086  0.00  0.00    +0.000 C 
ATOM     17  C   UNL     1       3.206  15.107  17.647  0.00  0.00    +0.000 C 
ATOM     18  C   UNL     1       3.082  16.615  17.456  0.00  0.00    +0.000 C 
ATOM     19  C   UNL     1       2.271  17.329  18.531  0.00  0.00    +0.000 C 
ATOM     20  C   UNL     1       2.643  16.898  19.944  0.00  0.00    +0.000 C 
ENDBRANCH  12  15
ENDBRANCH   1   9
BRANCH   1  25
ATOM     21  N   UNL     1       1.472   8.899  19.314  0.00  0.00    +0.000 N 
ATOM     22  N   UNL     1       1.621   8.064  20.367  0.00  0.00    +0.000 NA
ATOM     23  N   UNL     1       0.793   8.509  21.295  0.00  0.00    +0.000 NA
ATOM     24  N   UNL     1       0.108   9.600  20.851  0.00  0.00    +0.000 NA
ATOM     25  C   UNL     1       0.541   9.862  19.627  0.00  0.00    +0.000 A 
BRANCH  21  26
ATOM     26  C   UNL     1       2.072   8.528  18.047  0.00  0.00    +0.000 C 
BRANCH  26  31
ATOM     27  F   UNL     1       4.586   3.539  17.162  0.00  0.00    +0.000 F 
ATOM     28  C   UNL     1       3.995   4.705  17.457  0.00  0.00    +0.000 A 
ATOM     29  C   UNL     1       2.663   4.723  17.848  0.00  0.00    +0.000 A 
ATOM     30  C   UNL     1       2.028   5.945  18.102  0.00  0.00    +0.000 A 
ATOM     31  C   UNL     1       2.727   7.162  17.972  0.00  0.00    +0.000 A 
ATOM     32  C   UNL     1       4.085   7.111  17.600  0.00  0.00    +0.000 A 
ATOM     33  C   UNL     1       4.716   5.884  17.345  0.00  0.00    +0.000 A 
ENDBRANCH  26  31
ENDBRANCH  21  26
ENDBRANCH   1  25
TORSDOF 6
ENDMDL
MODEL 8
REMARK VINA RESULT:      -7.7      0.814      1.165
REMARK  Name = 
REMARK  6 active torsions:
REMARK  status: ('A' for Active; 'I' for Inactive)
REMARK    1  A    between atoms: C_5  and  C_6
REMARK    2  A    between atoms: C_6  and  N_7
REMARK    3  A    between atoms: C_11  and  C_12
REMARK    4  A    between atoms: C_12  and  C_13
REMARK    5  A    between atoms: C_12  and  N_20
REMARK    6  A    between atoms: N_23  and  C_24
REMARK                            x       y       z     vdW  Elec       q    Type
REMARK                         _______ _______ _______ _____ _____    ______ ____
ROOT
ATOM      1  C   UNL     1       3.433   5.598  18.220  0.00  0.00    +0.000 C 
ENDROOT
BRANCH   1   2
ATOM      2  C   UNL     1       2.504   4.460  18.724  0.00  0.00    +0.000 A 
ATOM      3  C   UNL     1       1.435   3.971  17.941  0.00  0.00    +0.000 A 
ATOM      4  C   UNL     1       0.511   3.049  18.456  0.00  0.00    +0.000 A 
ATOM      5  C   UNL     1       0.658   2.566  19.750  0.00  0.00    +0.000 A 
ATOM      6  C   UNL     1       1.762   2.954  20.503  0.00  0.00    +0.000 A 
ATOM      7  C   UNL     1       2.681   3.866  19.982  0.00  0.00    +0.000 A 
ATOM      8  F   UNL     1       3.762   4.153  20.722  0.00  0.00    +0.000 F 
ENDBRANCH   1   2
BRANCH   1   9
ATOM      9  N   UNL     1       3.042   6.907  18.823  0.00  0.00    +0.000 NA
ATOM     10  C   UNL     1       2.180   6.832  20.016  0.00  0.00    +0.000 C 
ATOM     11  C   UNL     1       1.874   8.247  20.610  0.00  0.00    +0.000 C 
ATOM     12  N   UNL     1       1.481   9.313  19.673  0.00  0.00    +0.000 NA
ATOM     13  C   UNL     1       2.353   9.254  18.480  0.00  0.00    +0.000 C 
ATOM     14  C   UNL     1       2.431   7.849  17.861  0.00  0.00    +0.000 C 
BRANCH  12  15
ATOM     15  C   UNL     1       0.060   9.506  19.312  0.00  0.00    +0.000 C 
ATOM     16  C   UNL     1      -0.989   9.798  20.396  0.00  0.00    +0.000 C 
ATOM     17  C   UNL     1      -1.053  11.238  20.894  0.00  0.00    +0.000 C 
ATOM     18  C   UNL     1      -1.021  12.281  19.781  0.00  0.00    +0.000 C 
ATOM     19  C   UNL     1      -0.014  11.999  18.672  0.00  0.00    +0.000 C 
ATOM     20  C   UNL     1      -0.049  10.556  18.187  0.00  0.00    +0.000 C 
ENDBRANCH  12  15
ENDBRANCH   1   9
BRANCH   1  25
ATOM     21  N   UNL     1       5.728   4.555  17.626  0.00  0.00    +0.000 N 
ATOM     22  N   UNL     1       6.967   4.515  18.167  0.00  0.00    +0.000 NA
ATOM     23  N   UNL     1       6.892   5.218  19.283  0.00  0.00    +0.000 NA
ATOM     24  N   UNL     1       5.628   5.692  19.473  0.00  0.00    +0.000 NA
ATOM     25  C   UNL     1       4.904   5.302  18.435  0.00  0.00    +0.000 A 
BRANCH  21  26
ATOM     26  C   UNL     1       5.430   3.672  16.515  0.00  0.00    +0.000 C 
BRANCH  26  31
ATOM     27  F   UNL     1       7.546   4.651  11.362  0.00  0.00    +0.000 F 
ATOM     28  C   UNL     1       7.008   4.498  12.579  0.00  0.00    +0.000 A 
ATOM     29  C   UNL     1       7.571   5.149  13.669  0.00  0.00    +0.000 A 
ATOM     30  C   UNL     1       7.045   4.945  14.950  0.00  0.00    +0.000 A 
ATOM     31  C   UNL     1       5.942   4.090  15.150  0.00  0.00    +0.000 A 
ATOM     32  C   UNL     1       5.375   3.464  14.023  0.00  0.00    +0.000 A 
ATOM     33  C   UNL     1       5.907   3.670  12.741  0.00  0.00    +0.000 A 
ENDBRANCH  26  31
ENDBRANCH  21  26
ENDBRANCH   1  25
TORSDOF 6
ENDMDL
MODEL 9
REMARK VINA RESULT:      -7.7      3.706      6.945
REMARK  Name = 
REMARK  6 active torsions:
REMARK  status: ('A' for Active; 'I' for Inactive)
REMARK    1  A    between atoms: C_5  and  C_6
REMARK    2  A    between atoms: C_6  and  N_7
REMARK    3  A    between atoms: C_11  and  C_12
REMARK    4  A    between atoms: C_12  and  C_13
REMARK    5  A    between atoms: C_12  and  N_20
REMARK    6  A    between atoms: N_23  and  C_24
REMARK                            x       y       z     vdW  Elec       q    Type
REMARK                         _______ _______ _______ _____ _____    ______ ____
ROOT
ATOM      1  C   UNL     1       0.218  10.811  18.628  0.00  0.00    +0.000 C 
ENDROOT
BRANCH   1   2
ATOM      2  C   UNL     1      -1.280  10.728  18.229  0.00  0.00    +0.000 A 
ATOM      3  C   UNL     1      -1.724   9.895  17.178  0.00  0.00    +0.000 A 
ATOM      4  C   UNL     1      -3.052   9.932  16.725  0.00  0.00    +0.000 A 
ATOM      5  C   UNL     1      -3.973  10.773  17.336  0.00  0.00    +0.000 A 
ATOM      6  C   UNL     1      -3.583  11.526  18.440  0.00  0.00    +0.000 A 
ATOM      7  C   UNL     1      -2.262  11.478  18.891  0.00  0.00    +0.000 A 
ATOM      8  F   UNL     1      -1.957  12.170  19.998  0.00  0.00    +0.000 F 
ENDBRANCH   1   2
BRANCH   1   9
ATOM      9  N   UNL     1       0.540  12.152  19.200  0.00  0.00    +0.000 NA
ATOM     10  C   UNL     1       1.130  13.124  18.263  0.00  0.00    +0.000 C 
ATOM     11  C   UNL     1       1.377  14.515  18.938  0.00  0.00    +0.000 C 
ATOM     12  N   UNL     1       2.009  14.529  20.268  0.00  0.00    +0.000 NA
ATOM     13  C   UNL     1       1.403  13.470  21.103  0.00  0.00    +0.000 C 
ATOM     14  C   UNL     1       1.385  12.096  20.413  0.00  0.00    +0.000 C 
BRANCH  12  15
ATOM     15  C   UNL     1       3.482  14.561  20.395  0.00  0.00    +0.000 C 
ATOM     16  C   UNL     1       4.346  15.230  19.316  0.00  0.00    +0.000 C 
ATOM     17  C   UNL     1       4.437  16.751  19.379  0.00  0.00    +0.000 C 
ATOM     18  C   UNL     1       4.681  17.299  20.781  0.00  0.00    +0.000 C 
ATOM     19  C   UNL     1       3.863  16.630  21.879  0.00  0.00    +0.000 C 
ATOM     20  C   UNL     1       3.868  15.110  21.785  0.00  0.00    +0.000 C 
ENDBRANCH  12  15
ENDBRANCH   1   9
BRANCH   1  25
ATOM     21  N   UNL     1       1.631   8.756  19.330  0.00  0.00    +0.000 N 
ATOM     22  N   UNL     1       1.703   7.919  20.390  0.00  0.00    +0.000 NA
ATOM     23  N   UNL     1       0.779   8.336  21.236  0.00  0.00    +0.000 NA
ATOM     24  N   UNL     1       0.108   9.411  20.732  0.00  0.00    +0.000 NA
ATOM     25  C   UNL     1       0.647   9.691  19.556  0.00  0.00    +0.000 A 
BRANCH  21  26
ATOM     26  C   UNL     1       2.359   8.408  18.125  0.00  0.00    +0.000 C 
BRANCH  26  31
ATOM     27  F   UNL     1       4.176   3.164  17.039  0.00  0.00    +0.000 F 
ATOM     28  C   UNL     1       3.749   4.386  17.381  0.00  0.00    +0.000 A 
ATOM     29  C   UNL     1       2.432   4.569  17.784  0.00  0.00    +0.000 A 
ATOM     30  C   UNL     1       1.968   5.854  18.087  0.00  0.00    +0.000 A 
ATOM     31  C   UNL     1       2.824   6.970  17.995  0.00  0.00    +0.000 A 
ATOM     32  C   UNL     1       4.161   6.752  17.609  0.00  0.00    +0.000 A 
ATOM     33  C   UNL     1       4.621   5.462  17.305  0.00  0.00    +0.000 A 
ENDBRANCH  26  31
ENDBRANCH  21  26
ENDBRANCH   1  25
TORSDOF 6
ENDMDL
