MODEL 1
REMARK VINA RESULT:      -7.4      0.000      0.000
REMARK  Name = 
REMARK  12 active torsions:
REMARK  status: ('A' for Active; 'I' for Inactive)
REMARK    1  A    between atoms: C_1  and  N_2
REMARK    2  A    between atoms: N_2  and  C_3
REMARK    3  A    between atoms: N_2  and  C_4
REMARK    4  A    between atoms: C_4  and  C_5
REMARK    5  A    between atoms: C_5  and  C_6
REMARK    6  A    between atoms: C_6  and  N_7
REMARK    7  A    between atoms: C_8  and  S_9
REMARK    8  A    between atoms: S_9  and  C_10
REMARK    9  A    between atoms: C_10  and  C_11
REMARK   10  A    between atoms: N_13  and  C_14
REMARK   11  A    between atoms: C_18  and  C_19
REMARK   12  A    between atoms: C_27  and  C_28
REMARK                            x       y       z     vdW  Elec       q    Type
REMARK                         _______ _______ _______ _____ _____    ______ ____
ROOT
ATOM      1  N   UNL     1       4.688   5.946  18.153  0.00  0.00    +0.000 N 
ATOM      2  C   UNL     1       6.060   6.129  18.191  0.00  0.00    +0.000 A 
ATOM      3  N   UNL     1       6.596   5.196  18.936  0.00  0.00    +0.000 NA
ATOM      4  N   UNL     1       5.581   4.361  19.357  0.00  0.00    +0.000 NA
ATOM      5  C   UNL     1       4.416   4.793  18.885  0.00  0.00    +0.000 A 
ENDROOT
BRANCH   5   6
ATOM      6  C   UNL     1       3.121   4.083  19.100  0.00  0.00    +0.000 A 
ATOM      7  C   UNL     1       2.524   3.189  18.204  0.00  0.00    +0.000 A 
ATOM      8  C   UNL     1       1.287   2.618  18.498  0.00  0.00    +0.000 A 
ATOM      9  N   UNL     1       0.609   2.853  19.626  0.00  0.00    +0.000 NA
ATOM     10  C   UNL     1       1.182   3.713  20.492  0.00  0.00    +0.000 A 
ATOM     11  C   UNL     1       2.405   4.341  20.273  0.00  0.00    +0.000 A 
ENDBRANCH   5   6
BRANCH   1  12
ATOM     12  C   UNL     1       3.726   6.769  17.455  0.00  0.00    +0.000 C 
BRANCH  12  13
ATOM     13  C   UNL     1       2.924   7.689  18.377  0.00  0.00    +0.000 C 
BRANCH  13  14
ATOM     14  C   UNL     1       1.740   8.348  17.683  0.00  0.00    +0.000 C 
BRANCH  14  16
ATOM     15  C   UNL     1       1.170   9.155  19.847  0.00  0.00    +0.000 C 
ATOM     16  N   UNL     1       1.220   9.505  18.424  0.00  0.00    +0.000 NA
ATOM     17  C   UNL     1       2.023  10.710  18.226  0.00  0.00    +0.000 C 
ENDBRANCH  14  16
ENDBRANCH  13  14
ENDBRANCH  12  13
ENDBRANCH   1  12
BRANCH   2  18
ATOM     18  S   UNL     1       6.915   7.396  17.338  0.00  0.00    +0.000 S 
BRANCH  18  19
ATOM     19  C   UNL     1       8.385   7.731  18.368  0.00  0.00    +0.000 C 
BRANCH  19  20
ATOM     20  C   UNL     1       8.567   9.243  18.593  0.00  0.00    +0.000 C 
ATOM     21  O   UNL     1       8.030  10.049  17.832  0.00  0.00    +0.000 OA
ATOM     22  N   UNL     1       9.295   9.643  19.712  0.00  0.00    +0.000 N 
ATOM     23  H   UNL     1       9.306   9.060  20.540  0.00  0.00    +0.000 HD
BRANCH  22  24
ATOM     24  C   UNL     1       9.799  10.941  19.829  0.00  0.00    +0.000 A 
ATOM     25  S   UNL     1      10.797  11.512  18.561  0.00  0.00    +0.000 S 
ATOM     26  C   UNL     1      10.959  13.068  19.284  0.00  0.00    +0.000 A 
ATOM     27  C   UNL     1      10.140  13.194  20.378  0.00  0.00    +0.000 A 
ATOM     28  C   UNL     1       9.583  11.923  20.768  0.00  0.00    +0.000 A 
ATOM     29  C   UNL     1       9.824  14.492  21.031  0.00  0.00    +0.000 C 
ATOM     30  C   UNL     1      10.576  15.706  20.502  0.00  0.00    +0.000 C 
ATOM     31  C   UNL     1      11.627  15.526  19.399  0.00  0.00    +0.000 C 
ATOM     32  C   UNL     1      11.823  14.152  18.727  0.00  0.00    +0.000 C 
BRANCH  28  33
ATOM     33  C   UNL     1       8.726  11.791  21.902  0.00  0.00    +0.000 C 
ATOM     34  N   UNL     1       8.071  11.616  22.833  0.00  0.00    +0.000 NA
ENDBRANCH  28  33
ENDBRANCH  22  24
ENDBRANCH  19  20
ENDBRANCH  18  19
ENDBRANCH   2  18
TORSDOF 10
ENDMDL
MODEL 2
REMARK VINA RESULT:      -7.3      6.005      9.231
REMARK  Name = 
REMARK  12 active torsions:
REMARK  status: ('A' for Active; 'I' for Inactive)
REMARK    1  A    between atoms: C_1  and  N_2
REMARK    2  A    between atoms: N_2  and  C_3
REMARK    3  A    between atoms: N_2  and  C_4
REMARK    4  A    between atoms: C_4  and  C_5
REMARK    5  A    between atoms: C_5  and  C_6
REMARK    6  A    between atoms: C_6  and  N_7
REMARK    7  A    between atoms: C_8  and  S_9
REMARK    8  A    between atoms: S_9  and  C_10
REMARK    9  A    between atoms: C_10  and  C_11
REMARK   10  A    between atoms: N_13  and  C_14
REMARK   11  A    between atoms: C_18  and  C_19
REMARK   12  A    between atoms: C_27  and  C_28
REMARK                            x       y       z     vdW  Elec       q    Type
REMARK                         _______ _______ _______ _____ _____    ______ ____
ROOT
ATOM      1  N   UNL     1       3.707   5.910  18.852  0.00  0.00    +0.000 N 
ATOM      2  C   UNL     1       2.690   6.779  19.210  0.00  0.00    +0.000 A 
ATOM      3  N   UNL     1       2.624   7.746  18.330  0.00  0.00    +0.000 NA
ATOM      4  N   UNL     1       3.570   7.493  17.358  0.00  0.00    +0.000 NA
ATOM      5  C   UNL     1       4.232   6.379  17.650  0.00  0.00    +0.000 A 
ENDROOT
BRANCH   5   6
ATOM      6  C   UNL     1       5.282   5.783  16.772  0.00  0.00    +0.000 A 
ATOM      7  C   UNL     1       6.664   5.922  16.946  0.00  0.00    +0.000 A 
ATOM      8  C   UNL     1       7.549   5.352  16.032  0.00  0.00    +0.000 A 
ATOM      9  N   UNL     1       7.162   4.637  14.971  0.00  0.00    +0.000 NA
ATOM     10  C   UNL     1       5.832   4.500  14.801  0.00  0.00    +0.000 A 
ATOM     11  C   UNL     1       4.878   5.048  15.653  0.00  0.00    +0.000 A 
ENDBRANCH   5   6
BRANCH   1  12
ATOM     12  C   UNL     1       4.119   4.722  19.566  0.00  0.00    +0.000 C 
BRANCH  12  13
ATOM     13  C   UNL     1       3.678   3.421  18.893  0.00  0.00    +0.000 C 
BRANCH  13  14
ATOM     14  C   UNL     1       3.229   2.356  19.886  0.00  0.00    +0.000 C 
BRANCH  14  16
ATOM     15  C   UNL     1       1.370   2.829  21.291  0.00  0.00    +0.000 C 
ATOM     16  N   UNL     1       1.768   2.263  19.998  0.00  0.00    +0.000 NA
ATOM     17  C   UNL     1       1.073   2.948  18.910  0.00  0.00    +0.000 C 
ENDBRANCH  14  16
ENDBRANCH  13  14
ENDBRANCH  12  13
ENDBRANCH   1  12
BRANCH   2  18
ATOM     18  S   UNL     1       1.653   6.570  20.604  0.00  0.00    +0.000 S 
BRANCH  18  19
ATOM     19  C   UNL     1       1.609   8.217  21.393  0.00  0.00    +0.000 C 
BRANCH  19  20
ATOM     20  C   UNL     1       0.329   8.979  21.007  0.00  0.00    +0.000 C 
ATOM     21  O   UNL     1      -0.734   8.730  21.578  0.00  0.00    +0.000 OA
ATOM     22  N   UNL     1       0.445   9.987  20.051  0.00  0.00    +0.000 N 
ATOM     23  H   UNL     1       1.316  10.494  19.957  0.00  0.00    +0.000 HD
BRANCH  22  24
ATOM     24  C   UNL     1      -0.676  10.501  19.393  0.00  0.00    +0.000 A 
ATOM     25  S   UNL     1      -1.050   9.849  17.856  0.00  0.00    +0.000 S 
ATOM     26  C   UNL     1      -2.471  10.813  17.706  0.00  0.00    +0.000 A 
ATOM     27  C   UNL     1      -2.735  11.491  18.869  0.00  0.00    +0.000 A 
ATOM     28  C   UNL     1      -1.624  11.417  19.785  0.00  0.00    +0.000 A 
ATOM     29  C   UNL     1      -4.030  12.160  19.163  0.00  0.00    +0.000 C 
ATOM     30  C   UNL     1      -5.044  12.178  18.027  0.00  0.00    +0.000 C 
ATOM     31  C   UNL     1      -4.670  11.576  16.666  0.00  0.00    +0.000 C 
ATOM     32  C   UNL     1      -3.333  10.830  16.486  0.00  0.00    +0.000 C 
BRANCH  28  33
ATOM     33  C   UNL     1      -1.646  12.076  21.052  0.00  0.00    +0.000 C 
ATOM     34  N   UNL     1      -1.645  12.674  22.035  0.00  0.00    +0.000 NA
ENDBRANCH  28  33
ENDBRANCH  22  24
ENDBRANCH  19  20
ENDBRANCH  18  19
ENDBRANCH   2  18
TORSDOF 10
ENDMDL
MODEL 3
REMARK VINA RESULT:      -7.1      5.372      7.301
REMARK  Name = 
REMARK  12 active torsions:
REMARK  status: ('A' for Active; 'I' for Inactive)
REMARK    1  A    between atoms: C_1  and  N_2
REMARK    2  A    between atoms: N_2  and  C_3
REMARK    3  A    between atoms: N_2  and  C_4
REMARK    4  A    between atoms: C_4  and  C_5
REMARK    5  A    between atoms: C_5  and  C_6
REMARK    6  A    between atoms: C_6  and  N_7
REMARK    7  A    between atoms: C_8  and  S_9
REMARK    8  A    between atoms: S_9  and  C_10
REMARK    9  A    between atoms: C_10  and  C_11
REMARK   10  A    between atoms: N_13  and  C_14
REMARK   11  A    between atoms: C_18  and  C_19
REMARK   12  A    between atoms: C_27  and  C_28
REMARK                            x       y       z     vdW  Elec       q    Type
REMARK                         _______ _______ _______ _____ _____    ______ ____
ROOT
ATOM      1  N   UNL     1       2.667   6.823  19.412  0.00  0.00    +0.000 N 
ATOM      2  C   UNL     1       1.872   7.921  19.698  0.00  0.00    +0.000 A 
ATOM      3  N   UNL     1       1.923   8.759  18.694  0.00  0.00    +0.000 NA
ATOM      4  N   UNL     1       2.717   8.195  17.717  0.00  0.00    +0.000 NA
ATOM      5  C   UNL     1       3.171   7.016  18.129  0.00  0.00    +0.000 A 
ENDROOT
BRANCH   5   6
ATOM      6  C   UNL     1       4.008   6.110  17.287  0.00  0.00    +0.000 A 
ATOM      7  C   UNL     1       5.034   6.516  16.426  0.00  0.00    +0.000 A 
ATOM      8  C   UNL     1       5.720   5.577  15.658  0.00  0.00    +0.000 A 
ATOM      9  N   UNL     1       5.476   4.263  15.697  0.00  0.00    +0.000 NA
ATOM     10  C   UNL     1       4.489   3.868  16.527  0.00  0.00    +0.000 A 
ATOM     11  C   UNL     1       3.742   4.737  17.317  0.00  0.00    +0.000 A 
ENDBRANCH   5   6
BRANCH   1  12
ATOM     12  C   UNL     1       2.897   5.679  20.265  0.00  0.00    +0.000 C 
BRANCH  12  13
ATOM     13  C   UNL     1       1.609   4.997  20.733  0.00  0.00    +0.000 C 
BRANCH  13  14
ATOM     14  C   UNL     1       1.087   3.961  19.745  0.00  0.00    +0.000 C 
BRANCH  14  16
ATOM     15  C   UNL     1       2.484   2.075  19.363  0.00  0.00    +0.000 C 
ATOM     16  N   UNL     1       1.367   2.582  20.166  0.00  0.00    +0.000 NA
ATOM     17  C   UNL     1       1.679   2.479  21.590  0.00  0.00    +0.000 C 
ENDBRANCH  14  16
ENDBRANCH  13  14
ENDBRANCH  12  13
ENDBRANCH   1  12
BRANCH   2  18
ATOM     18  S   UNL     1       0.933   8.110  21.163  0.00  0.00    +0.000 S 
BRANCH  18  19
ATOM     19  C   UNL     1      -0.169   9.526  20.822  0.00  0.00    +0.000 C 
BRANCH  19  20
ATOM     20  C   UNL     1       0.643  10.815  20.602  0.00  0.00    +0.000 C 
ATOM     21  O   UNL     1       1.268  11.318  21.537  0.00  0.00    +0.000 OA
ATOM     22  N   UNL     1       0.690  11.333  19.309  0.00  0.00    +0.000 N 
ATOM     23  H   UNL     1       0.610  10.711  18.514  0.00  0.00    +0.000 HD
BRANCH  22  24
ATOM     24  C   UNL     1       1.103  12.646  19.063  0.00  0.00    +0.000 A 
ATOM     25  S   UNL     1       2.563  12.859  18.197  0.00  0.00    +0.000 S 
ATOM     26  C   UNL     1       2.404  14.575  18.198  0.00  0.00    +0.000 A 
ATOM     27  C   UNL     1       1.188  14.960  18.703  0.00  0.00    +0.000 A 
ATOM     28  C   UNL     1       0.504  13.855  19.327  0.00  0.00    +0.000 A 
ATOM     29  C   UNL     1       0.628  16.331  18.563  0.00  0.00    +0.000 C 
ATOM     30  C   UNL     1       1.549  17.365  17.927  0.00  0.00    +0.000 C 
ATOM     31  C   UNL     1       2.977  16.968  17.532  0.00  0.00    +0.000 C 
ATOM     32  C   UNL     1       3.436  15.501  17.640  0.00  0.00    +0.000 C 
BRANCH  28  33
ATOM     33  C   UNL     1      -0.767  14.015  19.958  0.00  0.00    +0.000 C 
ATOM     34  N   UNL     1      -1.814  14.188  20.405  0.00  0.00    +0.000 NA
ENDBRANCH  28  33
ENDBRANCH  22  24
ENDBRANCH  19  20
ENDBRANCH  18  19
ENDBRANCH   2  18
TORSDOF 10
ENDMDL
MODEL 4
REMARK VINA RESULT:      -7.0      1.213      1.439
REMARK  Name = 
REMARK  12 active torsions:
REMARK  status: ('A' for Active; 'I' for Inactive)
REMARK    1  A    between atoms: C_1  and  N_2
REMARK    2  A    between atoms: N_2  and  C_3
REMARK    3  A    between atoms: N_2  and  C_4
REMARK    4  A    between atoms: C_4  and  C_5
REMARK    5  A    between atoms: C_5  and  C_6
REMARK    6  A    between atoms: C_6  and  N_7
REMARK    7  A    between atoms: C_8  and  S_9
REMARK    8  A    between atoms: S_9  and  C_10
REMARK    9  A    between atoms: C_10  and  C_11
REMARK   10  A    between atoms: N_13  and  C_14
REMARK   11  A    between atoms: C_18  and  C_19
REMARK   12  A    between atoms: C_27  and  C_28
REMARK                            x       y       z     vdW  Elec       q    Type
REMARK                         _______ _______ _______ _____ _____    ______ ____
ROOT
ATOM      1  N   UNL     1       5.486   5.868  17.924  0.00  0.00    +0.000 N 
ATOM      2  C   UNL     1       6.768   6.307  18.210  0.00  0.00    +0.000 A 
ATOM      3  N   UNL     1       7.301   5.514  19.106  0.00  0.00    +0.000 NA
ATOM      4  N   UNL     1       6.387   4.518  19.381  0.00  0.00    +0.000 NA
ATOM      5  C   UNL     1       5.283   4.709  18.668  0.00  0.00    +0.000 A 
ENDROOT
BRANCH   5   6
ATOM      6  C   UNL     1       4.118   3.775  18.679  0.00  0.00    +0.000 A 
ATOM      7  C   UNL     1       3.732   2.941  17.624  0.00  0.00    +0.000 A 
ATOM      8  C   UNL     1       2.597   2.141  17.737  0.00  0.00    +0.000 A 
ATOM      9  N   UNL     1       1.828   2.093  18.830  0.00  0.00    +0.000 NA
ATOM     10  C   UNL     1       2.196   2.895  19.849  0.00  0.00    +0.000 A 
ATOM     11  C   UNL     1       3.304   3.737  19.816  0.00  0.00    +0.000 A 
ENDBRANCH   5   6
BRANCH   1  12
ATOM     12  C   UNL     1       4.553   6.473  17.001  0.00  0.00    +0.000 C 
BRANCH  12  13
ATOM     13  C   UNL     1       3.131   6.584  17.553  0.00  0.00    +0.000 C 
BRANCH  13  14
ATOM     14  C   UNL     1       3.023   7.526  18.746  0.00  0.00    +0.000 C 
BRANCH  14  16
ATOM     15  C   UNL     1       1.441   8.650  20.120  0.00  0.00    +0.000 C 
ATOM     16  N   UNL     1       1.787   8.318  18.734  0.00  0.00    +0.000 NA
ATOM     17  C   UNL     1       1.904   9.536  17.935  0.00  0.00    +0.000 C 
ENDBRANCH  14  16
ENDBRANCH  13  14
ENDBRANCH  12  13
ENDBRANCH   1  12
BRANCH   2  18
ATOM     18  S   UNL     1       7.537   7.684  17.452  0.00  0.00    +0.000 S 
BRANCH  18  19
ATOM     19  C   UNL     1       8.624   8.373  18.748  0.00  0.00    +0.000 C 
BRANCH  19  20
ATOM     20  C   UNL     1       8.799   9.892  18.569  0.00  0.00    +0.000 C 
ATOM     21  O   UNL     1       8.102  10.503  17.757  0.00  0.00    +0.000 OA
ATOM     22  N   UNL     1       9.715  10.535  19.399  0.00  0.00    +0.000 N 
ATOM     23  H   UNL     1       9.903  10.167  20.323  0.00  0.00    +0.000 HD
BRANCH  22  24
ATOM     24  C   UNL     1      10.192  11.816  19.105  0.00  0.00    +0.000 A 
ATOM     25  S   UNL     1      11.353  11.953  17.855  0.00  0.00    +0.000 S 
ATOM     26  C   UNL     1      11.406  13.671  17.986  0.00  0.00    +0.000 A 
ATOM     27  C   UNL     1      10.443  14.132  18.848  0.00  0.00    +0.000 A 
ATOM     28  C   UNL     1       9.844  13.054  19.594  0.00  0.00    +0.000 A 
ATOM     29  C   UNL     1      10.034  15.559  18.947  0.00  0.00    +0.000 C 
ATOM     30  C   UNL     1      10.847  16.544  18.117  0.00  0.00    +0.000 C 
ATOM     31  C   UNL     1      12.040  16.041  17.296  0.00  0.00    +0.000 C 
ATOM     32  C   UNL     1      12.333  14.532  17.192  0.00  0.00    +0.000 C 
BRANCH  28  33
ATOM     33  C   UNL     1       8.840  13.287  20.582  0.00  0.00    +0.000 C 
ATOM     34  N   UNL     1       7.996  13.526  21.327  0.00  0.00    +0.000 NA
ENDBRANCH  28  33
ENDBRANCH  22  24
ENDBRANCH  19  20
ENDBRANCH  18  19
ENDBRANCH   2  18
TORSDOF 10
ENDMDL
MODEL 5
REMARK VINA RESULT:      -7.0      5.291      7.354
REMARK  Name = 
REMARK  12 active torsions:
REMARK  status: ('A' for Active; 'I' for Inactive)
REMARK    1  A    between atoms: C_1  and  N_2
REMARK    2  A    between atoms: N_2  and  C_3
REMARK    3  A    between atoms: N_2  and  C_4
REMARK    4  A    between atoms: C_4  and  C_5
REMARK    5  A    between atoms: C_5  and  C_6
REMARK    6  A    between atoms: C_6  and  N_7
REMARK    7  A    between atoms: C_8  and  S_9
REMARK    8  A    between atoms: S_9  and  C_10
REMARK    9  A    between atoms: C_10  and  C_11
REMARK   10  A    between atoms: N_13  and  C_14
REMARK   11  A    between atoms: C_18  and  C_19
REMARK   12  A    between atoms: C_27  and  C_28
REMARK                            x       y       z     vdW  Elec       q    Type
REMARK                         _______ _______ _______ _____ _____    ______ ____
ROOT
ATOM      1  N   UNL     1       2.738   6.744  19.504  0.00  0.00    +0.000 N 
ATOM      2  C   UNL     1       1.894   7.822  19.715  0.00  0.00    +0.000 A 
ATOM      3  N   UNL     1       1.974   8.634  18.692  0.00  0.00    +0.000 NA
ATOM      4  N   UNL     1       2.837   8.070  17.775  0.00  0.00    +0.000 NA
ATOM      5  C   UNL     1       3.305   6.918  18.244  0.00  0.00    +0.000 A 
ENDROOT
BRANCH   5   6
ATOM      6  C   UNL     1       4.214   6.018  17.475  0.00  0.00    +0.000 A 
ATOM      7  C   UNL     1       3.880   4.753  16.979  0.00  0.00    +0.000 A 
ATOM      8  C   UNL     1       4.831   3.986  16.309  0.00  0.00    +0.000 A 
ATOM      9  N   UNL     1       6.084   4.392  16.077  0.00  0.00    +0.000 NA
ATOM     10  C   UNL     1       6.409   5.611  16.552  0.00  0.00    +0.000 A 
ATOM     11  C   UNL     1       5.529   6.437  17.245  0.00  0.00    +0.000 A 
ENDBRANCH   5   6
BRANCH   1  12
ATOM     12  C   UNL     1       2.957   5.630  20.399  0.00  0.00    +0.000 C 
BRANCH  12  13
ATOM     13  C   UNL     1       1.834   4.591  20.368  0.00  0.00    +0.000 C 
BRANCH  13  14
ATOM     14  C   UNL     1       2.328   3.169  20.602  0.00  0.00    +0.000 C 
BRANCH  14  16
ATOM     15  C   UNL     1       4.464   2.162  20.318  0.00  0.00    +0.000 C 
ATOM     16  N   UNL     1       3.320   2.742  19.606  0.00  0.00    +0.000 NA
ATOM     17  C   UNL     1       2.780   1.781  18.647  0.00  0.00    +0.000 C 
ENDBRANCH  14  16
ENDBRANCH  13  14
ENDBRANCH  12  13
ENDBRANCH   1  12
BRANCH   2  18
ATOM     18  S   UNL     1       0.873   8.019  21.122  0.00  0.00    +0.000 S 
BRANCH  18  19
ATOM     19  C   UNL     1      -0.217   9.424  20.704  0.00  0.00    +0.000 C 
BRANCH  19  20
ATOM     20  C   UNL     1       0.598  10.717  20.520  0.00  0.00    +0.000 C 
ATOM     21  O   UNL     1       1.219  11.196  21.470  0.00  0.00    +0.000 OA
ATOM     22  N   UNL     1       0.650  11.267  19.240  0.00  0.00    +0.000 N 
ATOM     23  H   UNL     1       0.573  10.665  18.430  0.00  0.00    +0.000 HD
BRANCH  22  24
ATOM     24  C   UNL     1       1.066  12.585  19.029  0.00  0.00    +0.000 A 
ATOM     25  S   UNL     1       2.539  12.817  18.189  0.00  0.00    +0.000 S 
ATOM     26  C   UNL     1       2.379  14.533  18.224  0.00  0.00    +0.000 A 
ATOM     27  C   UNL     1       1.155  14.906  18.720  0.00  0.00    +0.000 A 
ATOM     28  C   UNL     1       0.463  13.788  19.311  0.00  0.00    +0.000 A 
ATOM     29  C   UNL     1       0.597  16.280  18.601  0.00  0.00    +0.000 C 
ATOM     30  C   UNL     1       1.526  17.327  18.002  0.00  0.00    +0.000 C 
ATOM     31  C   UNL     1       2.960  16.940  17.619  0.00  0.00    +0.000 C 
ATOM     32  C   UNL     1       3.418  15.470  17.702  0.00  0.00    +0.000 C 
BRANCH  28  33
ATOM     33  C   UNL     1      -0.817  13.934  19.926  0.00  0.00    +0.000 C 
ATOM     34  N   UNL     1      -1.877  13.997  20.372  0.00  0.00    +0.000 NA
ENDBRANCH  28  33
ENDBRANCH  22  24
ENDBRANCH  19  20
ENDBRANCH  18  19
ENDBRANCH   2  18
TORSDOF 10
ENDMDL
MODEL 6
REMARK VINA RESULT:      -7.0      5.359     10.010
REMARK  Name = 
REMARK  12 active torsions:
REMARK  status: ('A' for Active; 'I' for Inactive)
REMARK    1  A    between atoms: C_1  and  N_2
REMARK    2  A    between atoms: N_2  and  C_3
REMARK    3  A    between atoms: N_2  and  C_4
REMARK    4  A    between atoms: C_4  and  C_5
REMARK    5  A    between atoms: C_5  and  C_6
REMARK    6  A    between atoms: C_6  and  N_7
REMARK    7  A    between atoms: C_8  and  S_9
REMARK    8  A    between atoms: S_9  and  C_10
REMARK    9  A    between atoms: C_10  and  C_11
REMARK   10  A    between atoms: N_13  and  C_14
REMARK   11  A    between atoms: C_18  and  C_19
REMARK   12  A    between atoms: C_27  and  C_28
REMARK                            x       y       z     vdW  Elec       q    Type
REMARK                         _______ _______ _______ _____ _____    ______ ____
ROOT
ATOM      1  N   UNL     1       2.417   7.257  18.589  0.00  0.00    +0.000 N 
ATOM      2  C   UNL     1       1.860   8.407  19.123  0.00  0.00    +0.000 A 
ATOM      3  N   UNL     1       1.498   8.171  20.359  0.00  0.00    +0.000 NA
ATOM      4  N   UNL     1       1.860   6.875  20.663  0.00  0.00    +0.000 NA
ATOM      5  C   UNL     1       2.428   6.305  19.606  0.00  0.00    +0.000 A 
ENDROOT
BRANCH   5   6
ATOM      6  C   UNL     1       2.994   4.924  19.613  0.00  0.00    +0.000 A 
ATOM      7  C   UNL     1       4.349   4.599  19.482  0.00  0.00    +0.000 A 
ATOM      8  C   UNL     1       4.754   3.265  19.461  0.00  0.00    +0.000 A 
ATOM      9  N   UNL     1       3.914   2.232  19.583  0.00  0.00    +0.000 NA
ATOM     10  C   UNL     1       2.608   2.541  19.710  0.00  0.00    +0.000 A 
ATOM     11  C   UNL     1       2.114   3.843  19.724  0.00  0.00    +0.000 A 
ENDBRANCH   5   6
BRANCH   1  12
ATOM     12  C   UNL     1       2.928   7.089  17.247  0.00  0.00    +0.000 C 
BRANCH  12  13
ATOM     13  C   UNL     1       4.449   7.225  17.151  0.00  0.00    +0.000 C 
BRANCH  13  14
ATOM     14  C   UNL     1       5.077   6.242  16.170  0.00  0.00    +0.000 C 
BRANCH  14  16
ATOM     15  C   UNL     1       6.950   7.044  17.397  0.00  0.00    +0.000 C 
ATOM     16  N   UNL     1       6.541   6.191  16.276  0.00  0.00    +0.000 NA
ATOM     17  C   UNL     1       7.047   4.833  16.462  0.00  0.00    +0.000 C 
ENDBRANCH  14  16
ENDBRANCH  13  14
ENDBRANCH  12  13
ENDBRANCH   1  12
BRANCH   2  18
ATOM     18  S   UNL     1       1.709   9.925  18.267  0.00  0.00    +0.000 S 
BRANCH  18  19
ATOM     19  C   UNL     1       1.157  11.115  19.539  0.00  0.00    +0.000 C 
BRANCH  19  20
ATOM     20  C   UNL     1      -0.366  11.028  19.751  0.00  0.00    +0.000 C 
ATOM     21  O   UNL     1      -0.871   9.987  20.173  0.00  0.00    +0.000 OA
ATOM     22  N   UNL     1      -1.114  12.179  19.512  0.00  0.00    +0.000 N 
ATOM     23  H   UNL     1      -0.693  13.090  19.644  0.00  0.00    +0.000 HD
BRANCH  22  24
ATOM     24  C   UNL     1      -2.501  12.126  19.348  0.00  0.00    +0.000 A 
ATOM     25  S   UNL     1      -3.462  12.871  20.552  0.00  0.00    +0.000 S 
ATOM     26  C   UNL     1      -4.926  12.513  19.716  0.00  0.00    +0.000 A 
ATOM     27  C   UNL     1      -4.672  11.984  18.475  0.00  0.00    +0.000 A 
ATOM     28  C   UNL     1      -3.282  11.634  18.327  0.00  0.00    +0.000 A 
ATOM     29  C   UNL     1      -5.696  11.853  17.405  0.00  0.00    +0.000 C 
ATOM     30  C   UNL     1      -7.121  12.219  17.797  0.00  0.00    +0.000 C 
ATOM     31  C   UNL     1      -7.428  12.635  19.241  0.00  0.00    +0.000 C 
ATOM     32  C   UNL     1      -6.284  12.822  20.257  0.00  0.00    +0.000 C 
BRANCH  28  33
ATOM     33  C   UNL     1      -2.778  11.032  17.134  0.00  0.00    +0.000 C 
ATOM     34  N   UNL     1      -2.306  10.530  16.212  0.00  0.00    +0.000 NA
ENDBRANCH  28  33
ENDBRANCH  22  24
ENDBRANCH  19  20
ENDBRANCH  18  19
ENDBRANCH   2  18
TORSDOF 10
ENDMDL
MODEL 7
REMARK VINA RESULT:      -6.9      6.122      9.397
REMARK  Name = 
REMARK  12 active torsions:
REMARK  status: ('A' for Active; 'I' for Inactive)
REMARK    1  A    between atoms: C_1  and  N_2
REMARK    2  A    between atoms: N_2  and  C_3
REMARK    3  A    between atoms: N_2  and  C_4
REMARK    4  A    between atoms: C_4  and  C_5
REMARK    5  A    between atoms: C_5  and  C_6
REMARK    6  A    between atoms: C_6  and  N_7
REMARK    7  A    between atoms: C_8  and  S_9
REMARK    8  A    between atoms: S_9  and  C_10
REMARK    9  A    between atoms: C_10  and  C_11
REMARK   10  A    between atoms: N_13  and  C_14
REMARK   11  A    between atoms: C_18  and  C_19
REMARK   12  A    between atoms: C_27  and  C_28
REMARK                            x       y       z     vdW  Elec       q    Type
REMARK                         _______ _______ _______ _____ _____    ______ ____
ROOT
ATOM      1  N   UNL     1       3.542   6.222  19.031  0.00  0.00    +0.000 N 
ATOM      2  C   UNL     1       2.532   7.151  19.213  0.00  0.00    +0.000 A 
ATOM      3  N   UNL     1       2.566   8.018  18.233  0.00  0.00    +0.000 NA
ATOM      4  N   UNL     1       3.571   7.635  17.370  0.00  0.00    +0.000 NA
ATOM      5  C   UNL     1       4.171   6.542  17.830  0.00  0.00    +0.000 A 
ENDROOT
BRANCH   5   6
ATOM      6  C   UNL     1       5.262   5.827  17.104  0.00  0.00    +0.000 A 
ATOM      7  C   UNL     1       5.241   5.466  15.753  0.00  0.00    +0.000 A 
ATOM      8  C   UNL     1       6.306   4.761  15.196  0.00  0.00    +0.000 A 
ATOM      9  N   UNL     1       7.400   4.406  15.878  0.00  0.00    +0.000 NA
ATOM     10  C   UNL     1       7.424   4.753  17.180  0.00  0.00    +0.000 A 
ATOM     11  C   UNL     1       6.399   5.442  17.822  0.00  0.00    +0.000 A 
ENDBRANCH   5   6
BRANCH   1  12
ATOM     12  C   UNL     1       3.858   5.108  19.897  0.00  0.00    +0.000 C 
BRANCH  12  13
ATOM     13  C   UNL     1       2.699   4.125  20.076  0.00  0.00    +0.000 C 
BRANCH  13  14
ATOM     14  C   UNL     1       3.111   2.672  19.877  0.00  0.00    +0.000 C 
BRANCH  14  16
ATOM     15  C   UNL     1       0.927   2.499  18.951  0.00  0.00    +0.000 C 
ATOM     16  N   UNL     1       2.298   1.984  18.866  0.00  0.00    +0.000 NA
ATOM     17  C   UNL     1       2.820   2.153  17.512  0.00  0.00    +0.000 C 
ENDBRANCH  14  16
ENDBRANCH  13  14
ENDBRANCH  12  13
ENDBRANCH   1  12
BRANCH   2  18
ATOM     18  S   UNL     1       1.387   7.124  20.537  0.00  0.00    +0.000 S 
BRANCH  18  19
ATOM     19  C   UNL     1       1.491   8.795  21.267  0.00  0.00    +0.000 C 
BRANCH  19  20
ATOM     20  C   UNL     1       0.189   9.582  21.026  0.00  0.00    +0.000 C 
ATOM     21  O   UNL     1      -0.754   9.470  21.811  0.00  0.00    +0.000 OA
ATOM     22  N   UNL     1       0.160  10.457  19.942  0.00  0.00    +0.000 N 
ATOM     23  H   UNL     1       1.015  10.895  19.624  0.00  0.00    +0.000 HD
BRANCH  22  24
ATOM     24  C   UNL     1      -1.046  10.956  19.440  0.00  0.00    +0.000 A 
ATOM     25  S   UNL     1      -1.638  10.264  17.991  0.00  0.00    +0.000 S 
ATOM     26  C   UNL     1      -3.067  11.227  18.023  0.00  0.00    +0.000 A 
ATOM     27  C   UNL     1      -3.161  11.936  19.194  0.00  0.00    +0.000 A 
ATOM     28  C   UNL     1      -1.929  11.884  19.941  0.00  0.00    +0.000 A 
ATOM     29  C   UNL     1      -4.401  12.614  19.655  0.00  0.00    +0.000 C 
ATOM     30  C   UNL     1      -5.570  12.603  18.677  0.00  0.00    +0.000 C 
ATOM     31  C   UNL     1      -5.395  11.966  17.293  0.00  0.00    +0.000 C 
ATOM     32  C   UNL     1      -4.097  11.213  16.941  0.00  0.00    +0.000 C 
BRANCH  28  33
ATOM     33  C   UNL     1      -1.769  12.575  21.180  0.00  0.00    +0.000 C 
ATOM     34  N   UNL     1      -1.579  13.172  22.146  0.00  0.00    +0.000 NA
ENDBRANCH  28  33
ENDBRANCH  22  24
ENDBRANCH  19  20
ENDBRANCH  18  19
ENDBRANCH   2  18
TORSDOF 10
ENDMDL
MODEL 8
REMARK VINA RESULT:      -6.9      5.755      8.021
REMARK  Name = 
REMARK  12 active torsions:
REMARK  status: ('A' for Active; 'I' for Inactive)
REMARK    1  A    between atoms: C_1  and  N_2
REMARK    2  A    between atoms: N_2  and  C_3
REMARK    3  A    between atoms: N_2  and  C_4
REMARK    4  A    between atoms: C_4  and  C_5
REMARK    5  A    between atoms: C_5  and  C_6
REMARK    6  A    between atoms: C_6  and  N_7
REMARK    7  A    between atoms: C_8  and  S_9
REMARK    8  A    between atoms: S_9  and  C_10
REMARK    9  A    between atoms: C_10  and  C_11
REMARK   10  A    between atoms: N_13  and  C_14
REMARK   11  A    between atoms: C_18  and  C_19
REMARK   12  A    between atoms: C_27  and  C_28
REMARK                            x       y       z     vdW  Elec       q    Type
REMARK                         _______ _______ _______ _____ _____    ______ ____
ROOT
ATOM      1  N   UNL     1       1.969   8.066  19.377  0.00  0.00    +0.000 N 
ATOM      2  C   UNL     1       1.131   9.151  19.178  0.00  0.00    +0.000 A 
ATOM      3  N   UNL     1       1.300   9.603  17.961  0.00  0.00    +0.000 NA
ATOM      4  N   UNL     1       2.219   8.788  17.334  0.00  0.00    +0.000 NA
ATOM      5  C   UNL     1       2.631   7.843  18.173  0.00  0.00    +0.000 A 
ENDROOT
BRANCH   5   6
ATOM      6  C   UNL     1       3.579   6.754  17.793  0.00  0.00    +0.000 A 
ATOM      7  C   UNL     1       4.937   6.923  17.500  0.00  0.00    +0.000 A 
ATOM      8  C   UNL     1       5.715   5.832  17.117  0.00  0.00    +0.000 A 
ATOM      9  N   UNL     1       5.248   4.583  17.023  0.00  0.00    +0.000 NA
ATOM     10  C   UNL     1       3.940   4.416  17.305  0.00  0.00    +0.000 A 
ATOM     11  C   UNL     1       3.087   5.450  17.680  0.00  0.00    +0.000 A 
ENDBRANCH   5   6
BRANCH   1  12
ATOM     12  C   UNL     1       2.102   7.290  20.589  0.00  0.00    +0.000 C 
BRANCH  12  13
ATOM     13  C   UNL     1       1.382   5.941  20.534  0.00  0.00    +0.000 C 
BRANCH  13  14
ATOM     14  C   UNL     1       2.176   4.811  21.176  0.00  0.00    +0.000 C 
BRANCH  14  16
ATOM     15  C   UNL     1       0.859   3.347  19.842  0.00  0.00    +0.000 C 
ATOM     16  N   UNL     1       1.451   3.533  21.170  0.00  0.00    +0.000 NA
ATOM     17  C   UNL     1       2.306   2.397  21.509  0.00  0.00    +0.000 C 
ENDBRANCH  14  16
ENDBRANCH  13  14
ENDBRANCH  12  13
ENDBRANCH   1  12
BRANCH   2  18
ATOM     18  S   UNL     1       0.011   9.770  20.371  0.00  0.00    +0.000 S 
BRANCH  18  19
ATOM     19  C   UNL     1       0.849  11.236  21.069  0.00  0.00    +0.000 C 
BRANCH  19  20
ATOM     20  C   UNL     1       0.388  12.523  20.361  0.00  0.00    +0.000 C 
ATOM     21  O   UNL     1      -0.551  12.486  19.564  0.00  0.00    +0.000 OA
ATOM     22  N   UNL     1       1.026  13.711  20.710  0.00  0.00    +0.000 N 
ATOM     23  H   UNL     1       1.410  13.823  21.640  0.00  0.00    +0.000 HD
BRANCH  22  24
ATOM     24  C   UNL     1       0.927  14.854  19.910  0.00  0.00    +0.000 A 
ATOM     25  S   UNL     1       2.235  15.191  18.859  0.00  0.00    +0.000 S 
ATOM     26  C   UNL     1       1.446  16.570  18.193  0.00  0.00    +0.000 A 
ATOM     27  C   UNL     1       0.155  16.670  18.646  0.00  0.00    +0.000 A 
ATOM     28  C   UNL     1      -0.091  15.763  19.740  0.00  0.00    +0.000 A 
ATOM     29  C   UNL     1      -0.871  17.559  18.039  0.00  0.00    +0.000 C 
ATOM     30  C   UNL     1      -0.379  18.487  16.935  0.00  0.00    +0.000 C 
ATOM     31  C   UNL     1       1.108  18.498  16.559  0.00  0.00    +0.000 C 
ATOM     32  C   UNL     1       2.078  17.478  17.189  0.00  0.00    +0.000 C 
BRANCH  28  33
ATOM     33  C   UNL     1      -1.353  15.708  20.405  0.00  0.00    +0.000 C 
ATOM     34  N   UNL     1      -2.397  15.619  20.881  0.00  0.00    +0.000 NA
ENDBRANCH  28  33
ENDBRANCH  22  24
ENDBRANCH  19  20
ENDBRANCH  18  19
ENDBRANCH   2  18
TORSDOF 10
ENDMDL
MODEL 9
REMARK VINA RESULT:      -6.9      5.373      8.864
REMARK  Name = 
REMARK  12 active torsions:
REMARK  status: ('A' for Active; 'I' for Inactive)
REMARK    1  A    between atoms: C_1  and  N_2
REMARK    2  A    between atoms: N_2  and  C_3
REMARK    3  A    between atoms: N_2  and  C_4
REMARK    4  A    between atoms: C_4  and  C_5
REMARK    5  A    between atoms: C_5  and  C_6
REMARK    6  A    between atoms: C_6  and  N_7
REMARK    7  A    between atoms: C_8  and  S_9
REMARK    8  A    between atoms: S_9  and  C_10
REMARK    9  A    between atoms: C_10  and  C_11
REMARK   10  A    between atoms: N_13  and  C_14
REMARK   11  A    between atoms: C_18  and  C_19
REMARK   12  A    between atoms: C_27  and  C_28
REMARK                            x       y       z     vdW  Elec       q    Type
REMARK                         _______ _______ _______ _____ _____    ______ ____
ROOT
ATOM      1  N   UNL     1       2.532   6.947  18.592  0.00  0.00    +0.000 N 
ATOM      2  C   UNL     1       2.093   8.098  19.226  0.00  0.00    +0.000 A 
ATOM      3  N   UNL     1       1.600   7.780  20.396  0.00  0.00    +0.000 NA
ATOM      4  N   UNL     1       1.755   6.419  20.561  0.00  0.00    +0.000 NA
ATOM      5  C   UNL     1       2.327   5.895  19.482  0.00  0.00    +0.000 A 
ENDROOT
BRANCH   5   6
ATOM      6  C   UNL     1       2.698   4.455  19.357  0.00  0.00    +0.000 A 
ATOM      7  C   UNL     1       1.820   3.413  19.038  0.00  0.00    +0.000 A 
ATOM      8  C   UNL     1       2.276   2.097  18.991  0.00  0.00    +0.000 A 
ATOM      9  N   UNL     1       3.546   1.742  19.218  0.00  0.00    +0.000 NA
ATOM     10  C   UNL     1       4.395   2.743  19.525  0.00  0.00    +0.000 A 
ATOM     11  C   UNL     1       4.022   4.082  19.610  0.00  0.00    +0.000 A 
ENDBRANCH   5   6
BRANCH   1  12
ATOM     12  C   UNL     1       3.127   6.858  17.278  0.00  0.00    +0.000 C 
BRANCH  12  13
ATOM     13  C   UNL     1       4.655   6.933  17.291  0.00  0.00    +0.000 C 
BRANCH  13  14
ATOM     14  C   UNL     1       5.294   6.363  16.031  0.00  0.00    +0.000 C 
BRANCH  14  16
ATOM     15  C   UNL     1       7.283   6.871  17.232  0.00  0.00    +0.000 C 
ATOM     16  N   UNL     1       6.695   5.973  16.232  0.00  0.00    +0.000 NA
ATOM     17  C   UNL     1       6.840   4.581  16.653  0.00  0.00    +0.000 C 
ENDBRANCH  14  16
ENDBRANCH  13  14
ENDBRANCH  12  13
ENDBRANCH   1  12
BRANCH   2  18
ATOM     18  S   UNL     1       2.223   9.709  18.555  0.00  0.00    +0.000 S 
BRANCH  18  19
ATOM     19  C   UNL     1       0.533  10.108  17.990  0.00  0.00    +0.000 C 
BRANCH  19  20
ATOM     20  C   UNL     1      -0.392  10.403  19.185  0.00  0.00    +0.000 C 
ATOM     21  O   UNL     1      -1.293   9.616  19.478  0.00  0.00    +0.000 OA
ATOM     22  N   UNL     1      -0.120  11.543  19.940  0.00  0.00    +0.000 N 
ATOM     23  H   UNL     1       0.829  11.886  20.010  0.00  0.00    +0.000 HD
BRANCH  22  24
ATOM     24  C   UNL     1      -1.068  12.080  20.816  0.00  0.00    +0.000 A 
ATOM     25  S   UNL     1      -2.161  13.232  20.178  0.00  0.00    +0.000 S 
ATOM     26  C   UNL     1      -3.007  13.373  21.673  0.00  0.00    +0.000 A 
ATOM     27  C   UNL     1      -2.565  12.445  22.582  0.00  0.00    +0.000 A 
ATOM     28  C   UNL     1      -1.357  11.800  22.132  0.00  0.00    +0.000 A 
ATOM     29  C   UNL     1      -3.284  12.109  23.840  0.00  0.00    +0.000 C 
ATOM     30  C   UNL     1      -4.507  12.961  24.156  0.00  0.00    +0.000 C 
ATOM     31  C   UNL     1      -4.887  14.118  23.225  0.00  0.00    +0.000 C 
ATOM     32  C   UNL     1      -4.128  14.334  21.901  0.00  0.00    +0.000 C 
BRANCH  28  33
ATOM     33  C   UNL     1      -0.685  10.820  22.923  0.00  0.00    +0.000 C 
ATOM     34  N   UNL     1      -0.205   9.982  23.548  0.00  0.00    +0.000 NA
ENDBRANCH  28  33
ENDBRANCH  22  24
ENDBRANCH  19  20
ENDBRANCH  18  19
ENDBRANCH   2  18
TORSDOF 10
ENDMDL
