MODEL 1
REMARK VINA RESULT:      -7.5      0.000      0.000
REMARK  Name = 
REMARK  4 active torsions:
REMARK  status: ('A' for Active; 'I' for Inactive)
REMARK    1  A    between atoms: C_5  and  N_6
REMARK    2  A    between atoms: C_13  and  O_14
REMARK    3  A    between atoms: O_14  and  C_15
REMARK    4  A    between atoms: C_15  and  C_16
REMARK                            x       y       z     vdW  Elec       q    Type
REMARK                         _______ _______ _______ _____ _____    ______ ____
ROOT
ATOM      1 CL   UNL     1       3.273   5.935  19.935  0.00  0.00    +0.000 Cl
ATOM      2  C   UNL     1       4.312   5.730  18.572  0.00  0.00    +0.000 A 
ATOM      3  C   UNL     1       4.242   6.666  17.535  0.00  0.00    +0.000 A 
ATOM      4  C   UNL     1       5.089   6.557  16.424  0.00  0.00    +0.000 A 
ATOM      5  C   UNL     1       5.989   5.491  16.314  0.00  0.00    +0.000 A 
ATOM      6  C   UNL     1       6.008   4.546  17.346  0.00  0.00    +0.000 A 
ATOM      7  C   UNL     1       5.225   4.675  18.499  0.00  0.00    +0.000 A 
ENDROOT
BRANCH   5   8
ATOM      8  N   UNL     1       6.910   5.451  15.250  0.00  0.00    +0.000 N 
ATOM      9  C   UNL     1       6.761   4.786  14.075  0.00  0.00    +0.000 A 
ATOM     10  N   UNL     1       5.790   3.952  13.761  0.00  0.00    +0.000 NA
ATOM     11  C   UNL     1       5.976   3.426  12.502  0.00  0.00    +0.000 A 
ATOM     12  C   UNL     1       7.093   3.874  11.837  0.00  0.00    +0.000 A 
ATOM     13  S   UNL     1       7.946   4.978  12.829  0.00  0.00    +0.000 S 
ATOM     14  H   UNL     1       7.791   5.917  15.418  0.00  0.00    +0.000 HD
ENDBRANCH   5   8
BRANCH   7  15
ATOM     15  O   UNL     1       5.331   3.812  19.567  0.00  0.00    +0.000 OA
BRANCH  15  16
ATOM     16  C   UNL     1       4.681   2.548  19.372  0.00  0.00    +0.000 C 
BRANCH  16  17
ATOM     17  C   UNL     1       3.183   2.602  19.564  0.00  0.00    +0.000 A 
ATOM     18  C   UNL     1       2.276   2.481  18.508  0.00  0.00    +0.000 A 
ATOM     19  C   UNL     1       0.903   2.570  18.747  0.00  0.00    +0.000 A 
ATOM     20  C   UNL     1       0.427   2.776  20.042  0.00  0.00    +0.000 A 
ATOM     21  C   UNL     1       1.320   2.887  21.103  0.00  0.00    +0.000 A 
ATOM     22  C   UNL     1       2.691   2.797  20.867  0.00  0.00    +0.000 A 
ENDBRANCH  16  17
ENDBRANCH  15  16
ENDBRANCH   7  15
TORSDOF 4
ENDMDL
MODEL 2
REMARK VINA RESULT:      -7.4      0.077      1.056
REMARK  Name = 
REMARK  4 active torsions:
REMARK  status: ('A' for Active; 'I' for Inactive)
REMARK    1  A    between atoms: C_5  and  N_6
REMARK    2  A    between atoms: C_13  and  O_14
REMARK    3  A    between atoms: O_14  and  C_15
REMARK    4  A    between atoms: C_15  and  C_16
REMARK                            x       y       z     vdW  Elec       q    Type
REMARK                         _______ _______ _______ _____ _____    ______ ____
ROOT
ATOM      1 CL   UNL     1       3.375   5.951  19.965  0.00  0.00    +0.000 Cl
ATOM      2  C   UNL     1       4.406   5.746  18.595  0.00  0.00    +0.000 A 
ATOM      3  C   UNL     1       4.356   6.701  17.575  0.00  0.00    +0.000 A 
ATOM      4  C   UNL     1       5.197   6.592  16.460  0.00  0.00    +0.000 A 
ATOM      5  C   UNL     1       6.070   5.507  16.328  0.00  0.00    +0.000 A 
ATOM      6  C   UNL     1       6.069   4.543  17.343  0.00  0.00    +0.000 A 
ATOM      7  C   UNL     1       5.292   4.670  18.500  0.00  0.00    +0.000 A 
ENDROOT
BRANCH   5   8
ATOM      8  N   UNL     1       6.986   5.463  15.261  0.00  0.00    +0.000 N 
ATOM      9  C   UNL     1       6.829   4.802  14.085  0.00  0.00    +0.000 A 
ATOM     10  N   UNL     1       5.853   3.973  13.773  0.00  0.00    +0.000 NA
ATOM     11  C   UNL     1       6.031   3.448  12.512  0.00  0.00    +0.000 A 
ATOM     12  C   UNL     1       7.148   3.891  11.844  0.00  0.00    +0.000 A 
ATOM     13  S   UNL     1       8.011   4.989  12.835  0.00  0.00    +0.000 S 
ATOM     14  H   UNL     1       7.871   5.924  15.426  0.00  0.00    +0.000 HD
ENDBRANCH   5   8
BRANCH   7  15
ATOM     15  O   UNL     1       5.380   3.786  19.552  0.00  0.00    +0.000 OA
BRANCH  15  16
ATOM     16  C   UNL     1       4.671   2.556  19.351  0.00  0.00    +0.000 C 
BRANCH  16  17
ATOM     17  C   UNL     1       3.190   2.656  19.635  0.00  0.00    +0.000 A 
ATOM     18  C   UNL     1       2.672   2.818  20.922  0.00  0.00    +0.000 A 
ATOM     19  C   UNL     1       1.291   2.874  21.122  0.00  0.00    +0.000 A 
ATOM     20  C   UNL     1       0.420   2.772  20.038  0.00  0.00    +0.000 A 
ATOM     21  C   UNL     1       0.924   2.622  18.750  0.00  0.00    +0.000 A 
ATOM     22  C   UNL     1       2.302   2.568  18.548  0.00  0.00    +0.000 A 
ENDBRANCH  16  17
ENDBRANCH  15  16
ENDBRANCH   7  15
TORSDOF 4
ENDMDL
MODEL 3
REMARK VINA RESULT:      -7.3      4.599      7.324
REMARK  Name = 
REMARK  4 active torsions:
REMARK  status: ('A' for Active; 'I' for Inactive)
REMARK    1  A    between atoms: C_5  and  N_6
REMARK    2  A    between atoms: C_13  and  O_14
REMARK    3  A    between atoms: O_14  and  C_15
REMARK    4  A    between atoms: C_15  and  C_16
REMARK                            x       y       z     vdW  Elec       q    Type
REMARK                         _______ _______ _______ _____ _____    ______ ____
ROOT
ATOM      1 CL   UNL     1       2.453   2.142  17.560  0.00  0.00    +0.000 Cl
ATOM      2  C   UNL     1       2.255   3.546  18.545  0.00  0.00    +0.000 A 
ATOM      3  C   UNL     1       1.425   3.460  19.668  0.00  0.00    +0.000 A 
ATOM      4  C   UNL     1       1.261   4.564  20.514  0.00  0.00    +0.000 A 
ATOM      5  C   UNL     1       1.888   5.782  20.228  0.00  0.00    +0.000 A 
ATOM      6  C   UNL     1       2.678   5.852  19.075  0.00  0.00    +0.000 A 
ATOM      7  C   UNL     1       2.916   4.742  18.257  0.00  0.00    +0.000 A 
ENDROOT
BRANCH   5   8
ATOM      8  N   UNL     1       1.804   6.851  21.140  0.00  0.00    +0.000 N 
ATOM      9  C   UNL     1       1.408   8.121  20.865  0.00  0.00    +0.000 A 
ATOM     10  N   UNL     1       1.153   8.625  19.675  0.00  0.00    +0.000 NA
ATOM     11  C   UNL     1       0.817   9.958  19.761  0.00  0.00    +0.000 A 
ATOM     12  C   UNL     1       0.799  10.477  21.034  0.00  0.00    +0.000 A 
ATOM     13  S   UNL     1       1.234   9.259  22.156  0.00  0.00    +0.000 S 
ATOM     14  H   UNL     1       2.135   6.653  22.075  0.00  0.00    +0.000 HD
ENDBRANCH   5   8
BRANCH   7  15
ATOM     15  O   UNL     1       3.788   4.780  17.192  0.00  0.00    +0.000 OA
BRANCH  15  16
ATOM     16  C   UNL     1       5.082   4.226  17.468  0.00  0.00    +0.000 C 
BRANCH  16  17
ATOM     17  C   UNL     1       6.134   5.266  17.775  0.00  0.00    +0.000 A 
ATOM     18  C   UNL     1       7.028   5.153  18.842  0.00  0.00    +0.000 A 
ATOM     19  C   UNL     1       7.958   6.164  19.092  0.00  0.00    +0.000 A 
ATOM     20  C   UNL     1       8.002   7.293  18.274  0.00  0.00    +0.000 A 
ATOM     21  C   UNL     1       7.125   7.413  17.202  0.00  0.00    +0.000 A 
ATOM     22  C   UNL     1       6.197   6.404  16.950  0.00  0.00    +0.000 A 
ENDBRANCH  16  17
ENDBRANCH  15  16
ENDBRANCH   7  15
TORSDOF 4
ENDMDL
MODEL 4
REMARK VINA RESULT:      -7.3      4.146      6.835
REMARK  Name = 
REMARK  4 active torsions:
REMARK  status: ('A' for Active; 'I' for Inactive)
REMARK    1  A    between atoms: C_5  and  N_6
REMARK    2  A    between atoms: C_13  and  O_14
REMARK    3  A    between atoms: O_14  and  C_15
REMARK    4  A    between atoms: C_15  and  C_16
REMARK                            x       y       z     vdW  Elec       q    Type
REMARK                         _______ _______ _______ _____ _____    ______ ____
ROOT
ATOM      1 CL   UNL     1       3.654   1.604  18.326  0.00  0.00    +0.000 Cl
ATOM      2  C   UNL     1       3.163   3.098  19.038  0.00  0.00    +0.000 A 
ATOM      3  C   UNL     1       1.796   3.326  19.231  0.00  0.00    +0.000 A 
ATOM      4  C   UNL     1       1.354   4.511  19.834  0.00  0.00    +0.000 A 
ATOM      5  C   UNL     1       2.266   5.501  20.216  0.00  0.00    +0.000 A 
ATOM      6  C   UNL     1       3.623   5.265  19.972  0.00  0.00    +0.000 A 
ATOM      7  C   UNL     1       4.094   4.060  19.440  0.00  0.00    +0.000 A 
ENDROOT
BRANCH   5   8
ATOM      8  N   UNL     1       1.821   6.637  20.919  0.00  0.00    +0.000 N 
ATOM      9  C   UNL     1       1.534   7.855  20.390  0.00  0.00    +0.000 A 
ATOM     10  N   UNL     1       1.740   8.242  19.147  0.00  0.00    +0.000 NA
ATOM     11  C   UNL     1       1.370   9.556  18.969  0.00  0.00    +0.000 A 
ATOM     12  C   UNL     1       0.861  10.180  20.083  0.00  0.00    +0.000 A 
ATOM     13  S   UNL     1       0.861   9.087  21.402  0.00  0.00    +0.000 S 
ATOM     14  H   UNL     1       1.776   6.538  21.924  0.00  0.00    +0.000 HD
ENDBRANCH   5   8
BRANCH   7  15
ATOM     15  O   UNL     1       5.436   3.779  19.312  0.00  0.00    +0.000 OA
BRANCH  15  16
ATOM     16  C   UNL     1       6.222   4.870  18.813  0.00  0.00    +0.000 C 
BRANCH  16  17
ATOM     17  C   UNL     1       6.109   5.064  17.319  0.00  0.00    +0.000 A 
ATOM     18  C   UNL     1       5.283   6.029  16.738  0.00  0.00    +0.000 A 
ATOM     19  C   UNL     1       5.198   6.139  15.349  0.00  0.00    +0.000 A 
ATOM     20  C   UNL     1       5.942   5.288  14.531  0.00  0.00    +0.000 A 
ATOM     21  C   UNL     1       6.777   4.331  15.097  0.00  0.00    +0.000 A 
ATOM     22  C   UNL     1       6.864   4.221  16.485  0.00  0.00    +0.000 A 
ENDBRANCH  16  17
ENDBRANCH  15  16
ENDBRANCH   7  15
TORSDOF 4
ENDMDL
MODEL 5
REMARK VINA RESULT:      -7.0      4.315      7.016
REMARK  Name = 
REMARK  4 active torsions:
REMARK  status: ('A' for Active; 'I' for Inactive)
REMARK    1  A    between atoms: C_5  and  N_6
REMARK    2  A    between atoms: C_13  and  O_14
REMARK    3  A    between atoms: O_14  and  C_15
REMARK    4  A    between atoms: C_15  and  C_16
REMARK                            x       y       z     vdW  Elec       q    Type
REMARK                         _______ _______ _______ _____ _____    ______ ____
ROOT
ATOM      1 CL   UNL     1       3.644   1.737  17.934  0.00  0.00    +0.000 Cl
ATOM      2  C   UNL     1       3.187   3.196  18.735  0.00  0.00    +0.000 A 
ATOM      3  C   UNL     1       1.826   3.443  18.942  0.00  0.00    +0.000 A 
ATOM      4  C   UNL     1       1.410   4.598  19.617  0.00  0.00    +0.000 A 
ATOM      5  C   UNL     1       2.343   5.543  20.057  0.00  0.00    +0.000 A 
ATOM      6  C   UNL     1       3.695   5.292  19.798  0.00  0.00    +0.000 A 
ATOM      7  C   UNL     1       4.139   4.110  19.193  0.00  0.00    +0.000 A 
ENDROOT
BRANCH   5   8
ATOM      8  N   UNL     1       1.925   6.644  20.827  0.00  0.00    +0.000 N 
ATOM      9  C   UNL     1       1.586   7.875  20.363  0.00  0.00    +0.000 A 
ATOM     10  N   UNL     1       1.708   8.311  19.126  0.00  0.00    +0.000 NA
ATOM     11  C   UNL     1       1.307   9.624  19.019  0.00  0.00    +0.000 A 
ATOM     12  C   UNL     1       0.857  10.196  20.185  0.00  0.00    +0.000 A 
ATOM     13  S   UNL     1       0.956   9.056  21.459  0.00  0.00    +0.000 S 
ATOM     14  H   UNL     1       1.943   6.507  21.829  0.00  0.00    +0.000 HD
ENDBRANCH   5   8
BRANCH   7  15
ATOM     15  O   UNL     1       5.474   3.808  19.047  0.00  0.00    +0.000 OA
BRANCH  15  16
ATOM     16  C   UNL     1       6.034   4.201  17.786  0.00  0.00    +0.000 C 
BRANCH  16  17
ATOM     17  C   UNL     1       6.579   5.610  17.778  0.00  0.00    +0.000 A 
ATOM     18  C   UNL     1       6.052   6.625  16.977  0.00  0.00    +0.000 A 
ATOM     19  C   UNL     1       6.620   7.901  16.992  0.00  0.00    +0.000 A 
ATOM     20  C   UNL     1       7.716   8.171  17.811  0.00  0.00    +0.000 A 
ATOM     21  C   UNL     1       8.244   7.172  18.622  0.00  0.00    +0.000 A 
ATOM     22  C   UNL     1       7.677   5.898  18.609  0.00  0.00    +0.000 A 
ENDBRANCH  16  17
ENDBRANCH  15  16
ENDBRANCH   7  15
TORSDOF 4
ENDMDL
MODEL 6
REMARK VINA RESULT:      -6.9      3.057      4.771
REMARK  Name = 
REMARK  4 active torsions:
REMARK  status: ('A' for Active; 'I' for Inactive)
REMARK    1  A    between atoms: C_5  and  N_6
REMARK    2  A    between atoms: C_13  and  O_14
REMARK    3  A    between atoms: O_14  and  C_15
REMARK    4  A    between atoms: C_15  and  C_16
REMARK                            x       y       z     vdW  Elec       q    Type
REMARK                         _______ _______ _______ _____ _____    ______ ____
ROOT
ATOM      1 CL   UNL     1       1.133   2.727  21.515  0.00  0.00    +0.000 Cl
ATOM      2  C   UNL     1       1.968   3.075  20.045  0.00  0.00    +0.000 A 
ATOM      3  C   UNL     1       2.439   2.006  19.277  0.00  0.00    +0.000 A 
ATOM      4  C   UNL     1       3.093   2.240  18.061  0.00  0.00    +0.000 A 
ATOM      5  C   UNL     1       3.324   3.546  17.615  0.00  0.00    +0.000 A 
ATOM      6  C   UNL     1       2.880   4.598  18.424  0.00  0.00    +0.000 A 
ATOM      7  C   UNL     1       2.159   4.387  19.604  0.00  0.00    +0.000 A 
ENDROOT
BRANCH   5   8
ATOM      8  N   UNL     1       3.883   3.769  16.343  0.00  0.00    +0.000 N 
ATOM      9  C   UNL     1       5.159   4.151  16.075  0.00  0.00    +0.000 A 
ATOM     10  N   UNL     1       6.074   4.510  16.954  0.00  0.00    +0.000 NA
ATOM     11  C   UNL     1       7.246   4.877  16.329  0.00  0.00    +0.000 A 
ATOM     12  C   UNL     1       7.234   4.783  14.958  0.00  0.00    +0.000 A 
ATOM     13  S   UNL     1       5.699   4.233  14.433  0.00  0.00    +0.000 S 
ATOM     14  H   UNL     1       3.242   3.694  15.565  0.00  0.00    +0.000 HD
ENDBRANCH   5   8
BRANCH   7  15
ATOM     15  O   UNL     1       1.618   5.420  20.337  0.00  0.00    +0.000 OA
BRANCH  15  16
ATOM     16  C   UNL     1       2.466   6.572  20.448  0.00  0.00    +0.000 C 
BRANCH  16  17
ATOM     17  C   UNL     1       1.890   7.812  19.804  0.00  0.00    +0.000 A 
ATOM     18  C   UNL     1       2.120   8.152  18.469  0.00  0.00    +0.000 A 
ATOM     19  C   UNL     1       1.585   9.329  17.940  0.00  0.00    +0.000 A 
ATOM     20  C   UNL     1       0.813  10.170  18.740  0.00  0.00    +0.000 A 
ATOM     21  C   UNL     1       0.566   9.837  20.068  0.00  0.00    +0.000 A 
ATOM     22  C   UNL     1       1.099   8.662  20.597  0.00  0.00    +0.000 A 
ENDBRANCH  16  17
ENDBRANCH  15  16
ENDBRANCH   7  15
TORSDOF 4
ENDMDL
MODEL 7
REMARK VINA RESULT:      -6.9      3.039      4.866
REMARK  Name = 
REMARK  4 active torsions:
REMARK  status: ('A' for Active; 'I' for Inactive)
REMARK    1  A    between atoms: C_5  and  N_6
REMARK    2  A    between atoms: C_13  and  O_14
REMARK    3  A    between atoms: O_14  and  C_15
REMARK    4  A    between atoms: C_15  and  C_16
REMARK                            x       y       z     vdW  Elec       q    Type
REMARK                         _______ _______ _______ _____ _____    ______ ____
ROOT
ATOM      1 CL   UNL     1       1.012   2.726  21.362  0.00  0.00    +0.000 Cl
ATOM      2  C   UNL     1       1.889   3.067  19.915  0.00  0.00    +0.000 A 
ATOM      3  C   UNL     1       2.369   1.994  19.158  0.00  0.00    +0.000 A 
ATOM      4  C   UNL     1       3.058   2.223  17.960  0.00  0.00    +0.000 A 
ATOM      5  C   UNL     1       3.314   3.527  17.522  0.00  0.00    +0.000 A 
ATOM      6  C   UNL     1       2.861   4.582  18.321  0.00  0.00    +0.000 A 
ATOM      7  C   UNL     1       2.106   4.378  19.482  0.00  0.00    +0.000 A 
ENDROOT
BRANCH   5   8
ATOM      8  N   UNL     1       3.910   3.745  16.266  0.00  0.00    +0.000 N 
ATOM      9  C   UNL     1       5.188   4.142  16.034  0.00  0.00    +0.000 A 
ATOM     10  N   UNL     1       6.070   4.521  16.937  0.00  0.00    +0.000 NA
ATOM     11  C   UNL     1       7.256   4.898  16.345  0.00  0.00    +0.000 A 
ATOM     12  C   UNL     1       7.288   4.792  14.975  0.00  0.00    +0.000 A 
ATOM     13  S   UNL     1       5.777   4.216  14.409  0.00  0.00    +0.000 S 
ATOM     14  H   UNL     1       3.294   3.654  15.469  0.00  0.00    +0.000 HD
ENDBRANCH   5   8
BRANCH   7  15
ATOM     15  O   UNL     1       1.557   5.415  20.201  0.00  0.00    +0.000 OA
BRANCH  15  16
ATOM     16  C   UNL     1       2.433   6.537  20.381  0.00  0.00    +0.000 C 
BRANCH  16  17
ATOM     17  C   UNL     1       1.888   7.828  19.815  0.00  0.00    +0.000 A 
ATOM     18  C   UNL     1       1.080   8.700  20.549  0.00  0.00    +0.000 A 
ATOM     19  C   UNL     1       0.582   9.863  19.959  0.00  0.00    +0.000 A 
ATOM     20  C   UNL     1       0.890  10.164  18.632  0.00  0.00    +0.000 A 
ATOM     21  C   UNL     1       1.702   9.309  17.894  0.00  0.00    +0.000 A 
ATOM     22  C   UNL     1       2.201   8.148  18.482  0.00  0.00    +0.000 A 
ENDBRANCH  16  17
ENDBRANCH  15  16
ENDBRANCH   7  15
TORSDOF 4
ENDMDL
MODEL 8
REMARK VINA RESULT:      -6.8      4.407      7.053
REMARK  Name = 
REMARK  4 active torsions:
REMARK  status: ('A' for Active; 'I' for Inactive)
REMARK    1  A    between atoms: C_5  and  N_6
REMARK    2  A    between atoms: C_13  and  O_14
REMARK    3  A    between atoms: O_14  and  C_15
REMARK    4  A    between atoms: C_15  and  C_16
REMARK                            x       y       z     vdW  Elec       q    Type
REMARK                         _______ _______ _______ _____ _____    ______ ____
ROOT
ATOM      1 CL   UNL     1       3.267   1.871  18.166  0.00  0.00    +0.000 Cl
ATOM      2  C   UNL     1       2.842   3.362  18.926  0.00  0.00    +0.000 A 
ATOM      3  C   UNL     1       2.210   3.318  20.173  0.00  0.00    +0.000 A 
ATOM      4  C   UNL     1       1.877   4.503  20.841  0.00  0.00    +0.000 A 
ATOM      5  C   UNL     1       2.132   5.748  20.256  0.00  0.00    +0.000 A 
ATOM      6  C   UNL     1       2.726   5.763  18.989  0.00  0.00    +0.000 A 
ATOM      7  C   UNL     1       3.135   4.595  18.336  0.00  0.00    +0.000 A 
ENDROOT
BRANCH   5   8
ATOM      8  N   UNL     1       1.893   6.931  20.980  0.00  0.00    +0.000 N 
ATOM      9  C   UNL     1       1.522   8.134  20.468  0.00  0.00    +0.000 A 
ATOM     10  N   UNL     1       1.442   8.455  19.193  0.00  0.00    +0.000 NA
ATOM     11  C   UNL     1       1.075   9.772  19.034  0.00  0.00    +0.000 A 
ATOM     12  C   UNL     1       0.856  10.465  20.201  0.00  0.00    +0.000 A 
ATOM     13  S   UNL     1       1.136   9.435  21.541  0.00  0.00    +0.000 S 
ATOM     14  H   UNL     1       2.082   6.881  21.972  0.00  0.00    +0.000 HD
ENDBRANCH   5   8
BRANCH   7  15
ATOM     15  O   UNL     1       3.827   4.614  17.146  0.00  0.00    +0.000 OA
BRANCH  15  16
ATOM     16  C   UNL     1       5.191   4.181  17.249  0.00  0.00    +0.000 C 
BRANCH  16  17
ATOM     17  C   UNL     1       6.150   5.285  17.630  0.00  0.00    +0.000 A 
ATOM     18  C   UNL     1       6.247   6.486  16.922  0.00  0.00    +0.000 A 
ATOM     19  C   UNL     1       7.176   7.455  17.306  0.00  0.00    +0.000 A 
ATOM     20  C   UNL     1       8.010   7.233  18.402  0.00  0.00    +0.000 A 
ATOM     21  C   UNL     1       7.915   6.047  19.121  0.00  0.00    +0.000 A 
ATOM     22  C   UNL     1       6.988   5.078  18.740  0.00  0.00    +0.000 A 
ENDBRANCH  16  17
ENDBRANCH  15  16
ENDBRANCH   7  15
TORSDOF 4
ENDMDL
MODEL 9
REMARK VINA RESULT:      -6.8      4.283      5.675
REMARK  Name = 
REMARK  4 active torsions:
REMARK  status: ('A' for Active; 'I' for Inactive)
REMARK    1  A    between atoms: C_5  and  N_6
REMARK    2  A    between atoms: C_13  and  O_14
REMARK    3  A    between atoms: O_14  and  C_15
REMARK    4  A    between atoms: C_15  and  C_16
REMARK                            x       y       z     vdW  Elec       q    Type
REMARK                         _______ _______ _______ _____ _____    ______ ____
ROOT
ATOM      1 CL   UNL     1       5.647   4.107  18.487  0.00  0.00    +0.000 Cl
ATOM      2  C   UNL     1       6.399   5.643  18.250  0.00  0.00    +0.000 A 
ATOM      3  C   UNL     1       7.667   5.856  18.800  0.00  0.00    +0.000 A 
ATOM      4  C   UNL     1       8.328   7.075  18.605  0.00  0.00    +0.000 A 
ATOM      5  C   UNL     1       7.716   8.114  17.894  0.00  0.00    +0.000 A 
ATOM      6  C   UNL     1       6.429   7.888  17.392  0.00  0.00    +0.000 A 
ATOM      7  C   UNL     1       5.780   6.654  17.510  0.00  0.00    +0.000 A 
ENDROOT
BRANCH   5   8
ATOM      8  N   UNL     1       8.430   9.293  17.611  0.00  0.00    +0.000 N 
ATOM      9  C   UNL     1       9.012  10.124  18.515  0.00  0.00    +0.000 A 
ATOM     10  N   UNL     1       8.908  10.056  19.827  0.00  0.00    +0.000 NA
ATOM     11  C   UNL     1       9.594  11.084  20.434  0.00  0.00    +0.000 A 
ATOM     12  C   UNL     1      10.244  11.942  19.578  0.00  0.00    +0.000 A 
ATOM     13  S   UNL     1       9.972  11.451  17.959  0.00  0.00    +0.000 S 
ATOM     14  H   UNL     1       8.450   9.568  16.639  0.00  0.00    +0.000 HD
ENDBRANCH   5   8
BRANCH   7  15
ATOM     15  O   UNL     1       4.568   6.394  16.913  0.00  0.00    +0.000 OA
BRANCH  15  16
ATOM     16  C   UNL     1       3.440   6.963  17.592  0.00  0.00    +0.000 C 
BRANCH  16  17
ATOM     17  C   UNL     1       2.674   5.969  18.434  0.00  0.00    +0.000 A 
ATOM     18  C   UNL     1       2.467   6.133  19.805  0.00  0.00    +0.000 A 
ATOM     19  C   UNL     1       1.777   5.162  20.534  0.00  0.00    +0.000 A 
ATOM     20  C   UNL     1       1.286   4.023  19.896  0.00  0.00    +0.000 A 
ATOM     21  C   UNL     1       1.476   3.853  18.529  0.00  0.00    +0.000 A 
ATOM     22  C   UNL     1       2.164   4.822  17.799  0.00  0.00    +0.000 A 
ENDBRANCH  16  17
ENDBRANCH  15  16
ENDBRANCH   7  15
TORSDOF 4
ENDMDL
