MODEL 1
REMARK VINA RESULT:      -8.1      0.000      0.000
REMARK  Name = 
REMARK  8 active torsions:
REMARK  status: ('A' for Active; 'I' for Inactive)
REMARK    1  A    between atoms: C_1  and  C_2
REMARK    2  A    between atoms: C_2  and  C_3
REMARK    3  A    between atoms: C_3  and  C_4
REMARK    4  A    between atoms: C_4  and  C_5
REMARK    5  A    between atoms: C_5  and  C_6
REMARK    6  A    between atoms: C_6  and  C_7
REMARK    7  A    between atoms: C_7  and  C_8
REMARK    8  A    between atoms: C_8  and  C_9
REMARK                            x       y       z     vdW  Elec       q    Type
REMARK                         _______ _______ _______ _____ _____    ______ ____
ROOT
ATOM      1  C   UNL     1       2.846   6.490  19.850  0.00  0.00    +0.000 A 
ATOM      2  C   UNL     1       2.384   7.759  19.396  0.00  0.00    +0.000 A 
ATOM      3  N   UNL     1       2.769   8.204  18.163  0.00  0.00    +0.000 N 
ATOM      4  C   UNL     1       3.746   7.587  17.469  0.00  0.00    +0.000 A 
ATOM      5  C   UNL     1       4.339   6.417  17.929  0.00  0.00    +0.000 A 
ATOM      6  C   UNL     1       5.349   5.787  17.207  0.00  0.00    +0.000 A 
ATOM      7  C   UNL     1       5.908   4.604  17.614  0.00  0.00    +0.000 A 
ATOM      8  C   UNL     1       5.491   3.971  18.752  0.00  0.00    +0.000 A 
ATOM      9  C   UNL     1       4.475   4.579  19.502  0.00  0.00    +0.000 A 
ATOM     10  C   UNL     1       3.878   5.820  19.123  0.00  0.00    +0.000 A 
ATOM     11  O   UNL     1       6.874   4.156  16.771  0.00  0.00    +0.000 OA
ATOM     12  C   UNL     1       6.874   5.193  15.771  0.00  0.00    +0.000 C 
ATOM     13  O   UNL     1       5.894   6.229  16.036  0.00  0.00    +0.000 OA
ATOM     14  C   UNL     1       2.073   9.364  17.526  0.00  0.00    +0.000 C 
ATOM     15  C   UNL     1       0.574   9.280  17.822  0.00  0.00    +0.000 C 
ATOM     16  C   UNL     1       0.420   9.299  19.319  0.00  0.00    +0.000 A 
ATOM     17  C   UNL     1      -0.621  10.012  19.932  0.00  0.00    +0.000 A 
ATOM     18  C   UNL     1      -0.564  10.163  21.298  0.00  0.00    +0.000 A 
ATOM     19  C   UNL     1       0.485   9.670  22.032  0.00  0.00    +0.000 A 
ATOM     20  C   UNL     1       1.492   8.920  21.457  0.00  0.00    +0.000 A 
ATOM     21  C   UNL     1       1.421   8.642  20.083  0.00  0.00    +0.000 A 
ATOM     22  O   UNL     1       0.396   9.998  23.347  0.00  0.00    +0.000 OA
ATOM     23  C   UNL     1      -0.881  10.677  23.375  0.00  0.00    +0.000 C 
ATOM     24  O   UNL     1      -1.465  10.830  22.063  0.00  0.00    +0.000 OA
ENDROOT
BRANCH   1  25
ATOM     25  C   UNL     1       2.103   5.733  20.962  0.00  0.00    +0.000 C 
BRANCH  25  26
ATOM     26  C   UNL     1       1.176   4.690  20.322  0.00  0.00    +0.000 C 
BRANCH  26  27
ATOM     27  C   UNL     1       1.067   3.351  21.064  0.00  0.00    +0.000 C 
BRANCH  27  28
ATOM     28  C   UNL     1       1.800   2.281  20.238  0.00  0.00    +0.000 C 
BRANCH  28  29
ATOM     29  C   UNL     1       1.307   2.125  18.799  0.00  0.00    +0.000 C 
BRANCH  29  30
ATOM     30  C   UNL     1       2.502   2.139  17.834  0.00  0.00    +0.000 C 
BRANCH  30  32
ATOM     31  C   UNL     1       1.356   4.301  17.215  0.00  0.00    +0.000 C 
ATOM     32  C   UNL     1       2.430   3.293  16.833  0.00  0.00    +0.000 C 
ENDBRANCH  30  32
ENDBRANCH  29  30
ENDBRANCH  28  29
ENDBRANCH  27  28
ENDBRANCH  26  27
ENDBRANCH  25  26
ENDBRANCH   1  25
TORSDOF 7
ENDMDL
MODEL 2
REMARK VINA RESULT:      -7.2      4.283      7.768
REMARK  Name = 
REMARK  8 active torsions:
REMARK  status: ('A' for Active; 'I' for Inactive)
REMARK    1  A    between atoms: C_1  and  C_2
REMARK    2  A    between atoms: C_2  and  C_3
REMARK    3  A    between atoms: C_3  and  C_4
REMARK    4  A    between atoms: C_4  and  C_5
REMARK    5  A    between atoms: C_5  and  C_6
REMARK    6  A    between atoms: C_6  and  C_7
REMARK    7  A    between atoms: C_7  and  C_8
REMARK    8  A    between atoms: C_8  and  C_9
REMARK                            x       y       z     vdW  Elec       q    Type
REMARK                         _______ _______ _______ _____ _____    ______ ____
ROOT
ATOM      1  C   UNL     1      -1.482  11.990  20.737  0.00  0.00    +0.000 A 
ATOM      2  C   UNL     1      -2.479  12.863  21.262  0.00  0.00    +0.000 A 
ATOM      3  N   UNL     1      -3.687  12.949  20.631  0.00  0.00    +0.000 N 
ATOM      4  C   UNL     1      -3.879  12.411  19.409  0.00  0.00    +0.000 A 
ATOM      5  C   UNL     1      -2.890  11.663  18.779  0.00  0.00    +0.000 A 
ATOM      6  C   UNL     1      -3.096  11.113  17.517  0.00  0.00    +0.000 A 
ATOM      7  C   UNL     1      -2.157  10.327  16.902  0.00  0.00    +0.000 A 
ATOM      8  C   UNL     1      -0.966  10.031  17.506  0.00  0.00    +0.000 A 
ATOM      9  C   UNL     1      -0.728  10.570  18.778  0.00  0.00    +0.000 A 
ATOM     10  C   UNL     1      -1.672  11.408  19.446  0.00  0.00    +0.000 A 
ATOM     11  O   UNL     1      -2.552   9.889  15.678  0.00  0.00    +0.000 OA
ATOM     12  C   UNL     1      -3.858  10.488  15.575  0.00  0.00    +0.000 C 
ATOM     13  O   UNL     1      -4.216  11.259  16.750  0.00  0.00    +0.000 OA
ATOM     14  C   UNL     1      -4.850  13.600  21.307  0.00  0.00    +0.000 C 
ATOM     15  C   UNL     1      -4.843  13.234  22.793  0.00  0.00    +0.000 C 
ATOM     16  C   UNL     1      -3.535  13.718  23.358  0.00  0.00    +0.000 A 
ATOM     17  C   UNL     1      -3.465  14.298  24.633  0.00  0.00    +0.000 A 
ATOM     18  C   UNL     1      -2.286  14.912  24.984  0.00  0.00    +0.000 A 
ATOM     19  C   UNL     1      -1.228  14.987  24.114  0.00  0.00    +0.000 A 
ATOM     20  C   UNL     1      -1.255  14.378  22.875  0.00  0.00    +0.000 A 
ATOM     21  C   UNL     1      -2.395  13.643  22.512  0.00  0.00    +0.000 A 
ATOM     22  O   UNL     1      -0.192  15.707  24.619  0.00  0.00    +0.000 OA
ATOM     23  C   UNL     1      -0.682  15.997  25.948  0.00  0.00    +0.000 C 
ATOM     24  O   UNL     1      -2.035  15.539  26.162  0.00  0.00    +0.000 OA
ENDROOT
BRANCH   1  25
ATOM     25  C   UNL     1      -0.330  11.488  21.621  0.00  0.00    +0.000 C 
BRANCH  25  26
ATOM     26  C   UNL     1      -0.896  10.538  22.686  0.00  0.00    +0.000 C 
BRANCH  26  27
ATOM     27  C   UNL     1      -0.064   9.278  22.964  0.00  0.00    +0.000 C 
BRANCH  27  28
ATOM     28  C   UNL     1      -0.033   8.429  21.683  0.00  0.00    +0.000 C 
BRANCH  28  29
ATOM     29  C   UNL     1       1.325   8.362  20.983  0.00  0.00    +0.000 C 
BRANCH  29  30
ATOM     30  C   UNL     1       1.662   6.903  20.637  0.00  0.00    +0.000 C 
BRANCH  30  32
ATOM     31  C   UNL     1       2.268   7.975  18.434  0.00  0.00    +0.000 C 
ATOM     32  C   UNL     1       2.485   6.783  19.355  0.00  0.00    +0.000 C 
ENDBRANCH  30  32
ENDBRANCH  29  30
ENDBRANCH  28  29
ENDBRANCH  27  28
ENDBRANCH  26  27
ENDBRANCH  25  26
ENDBRANCH   1  25
TORSDOF 7
ENDMDL
MODEL 3
REMARK VINA RESULT:      -6.6      0.623      1.413
REMARK  Name = 
REMARK  8 active torsions:
REMARK  status: ('A' for Active; 'I' for Inactive)
REMARK    1  A    between atoms: C_1  and  C_2
REMARK    2  A    between atoms: C_2  and  C_3
REMARK    3  A    between atoms: C_3  and  C_4
REMARK    4  A    between atoms: C_4  and  C_5
REMARK    5  A    between atoms: C_5  and  C_6
REMARK    6  A    between atoms: C_6  and  C_7
REMARK    7  A    between atoms: C_7  and  C_8
REMARK    8  A    between atoms: C_8  and  C_9
REMARK                            x       y       z     vdW  Elec       q    Type
REMARK                         _______ _______ _______ _____ _____    ______ ____
ROOT
ATOM      1  C   UNL     1       2.849   6.477  19.648  0.00  0.00    +0.000 A 
ATOM      2  C   UNL     1       2.418   7.783  19.271  0.00  0.00    +0.000 A 
ATOM      3  N   UNL     1       2.827   8.297  18.073  0.00  0.00    +0.000 N 
ATOM      4  C   UNL     1       3.799   7.705  17.351  0.00  0.00    +0.000 A 
ATOM      5  C   UNL     1       4.362   6.495  17.741  0.00  0.00    +0.000 A 
ATOM      6  C   UNL     1       5.367   5.891  16.990  0.00  0.00    +0.000 A 
ATOM      7  C   UNL     1       5.897   4.673  17.327  0.00  0.00    +0.000 A 
ATOM      8  C   UNL     1       5.454   3.977  18.418  0.00  0.00    +0.000 A 
ATOM      9  C   UNL     1       4.442   4.558  19.194  0.00  0.00    +0.000 A 
ATOM     10  C   UNL     1       3.875   5.834  18.890  0.00  0.00    +0.000 A 
ATOM     11  O   UNL     1       6.864   4.260  16.466  0.00  0.00    +0.000 OA
ATOM     12  C   UNL     1       6.896   5.358  15.535  0.00  0.00    +0.000 C 
ATOM     13  O   UNL     1       5.936   6.396  15.856  0.00  0.00    +0.000 OA
ATOM     14  C   UNL     1       2.163   9.510  17.505  0.00  0.00    +0.000 C 
ATOM     15  C   UNL     1       0.659   9.439  17.779  0.00  0.00    +0.000 C 
ATOM     16  C   UNL     1       0.487   9.367  19.272  0.00  0.00    +0.000 A 
ATOM     17  C   UNL     1      -0.546  10.060  19.919  0.00  0.00    +0.000 A 
ATOM     18  C   UNL     1      -0.501  10.123  21.292  0.00  0.00    +0.000 A 
ATOM     19  C   UNL     1       0.529   9.561  22.004  0.00  0.00    +0.000 A 
ATOM     20  C   UNL     1       1.527   8.828  21.393  0.00  0.00    +0.000 A 
ATOM     21  C   UNL     1       1.466   8.640  20.003  0.00  0.00    +0.000 A 
ATOM     22  O   UNL     1       0.431   9.807  23.337  0.00  0.00    +0.000 OA
ATOM     23  C   UNL     1      -0.831  10.509  23.395  0.00  0.00    +0.000 C 
ATOM     24  O   UNL     1      -1.397  10.759  22.089  0.00  0.00    +0.000 OA
ENDROOT
BRANCH   1  25
ATOM     25  C   UNL     1       2.078   5.667  20.701  0.00  0.00    +0.000 C 
BRANCH  25  26
ATOM     26  C   UNL     1       0.871   4.996  20.028  0.00  0.00    +0.000 C 
BRANCH  26  27
ATOM     27  C   UNL     1       1.089   4.529  18.582  0.00  0.00    +0.000 C 
BRANCH  27  28
ATOM     28  C   UNL     1       0.911   3.003  18.536  0.00  0.00    +0.000 C 
BRANCH  28  29
ATOM     29  C   UNL     1       2.213   2.201  18.508  0.00  0.00    +0.000 C 
BRANCH  29  30
ATOM     30  C   UNL     1       2.367   1.410  19.817  0.00  0.00    +0.000 C 
BRANCH  30  32
ATOM     31  C   UNL     1       1.776   2.435  22.047  0.00  0.00    +0.000 C 
ATOM     32  C   UNL     1       2.847   2.286  20.974  0.00  0.00    +0.000 C 
ENDBRANCH  30  32
ENDBRANCH  29  30
ENDBRANCH  28  29
ENDBRANCH  27  28
ENDBRANCH  26  27
ENDBRANCH  25  26
ENDBRANCH   1  25
TORSDOF 7
ENDMDL
MODEL 4
REMARK VINA RESULT:      -6.4      3.493      6.956
REMARK  Name = 
REMARK  8 active torsions:
REMARK  status: ('A' for Active; 'I' for Inactive)
REMARK    1  A    between atoms: C_1  and  C_2
REMARK    2  A    between atoms: C_2  and  C_3
REMARK    3  A    between atoms: C_3  and  C_4
REMARK    4  A    between atoms: C_4  and  C_5
REMARK    5  A    between atoms: C_5  and  C_6
REMARK    6  A    between atoms: C_6  and  C_7
REMARK    7  A    between atoms: C_7  and  C_8
REMARK    8  A    between atoms: C_8  and  C_9
REMARK                            x       y       z     vdW  Elec       q    Type
REMARK                         _______ _______ _______ _____ _____    ______ ____
ROOT
ATOM      1  C   UNL     1       0.704  10.130  19.316  0.00  0.00    +0.000 A 
ATOM      2  C   UNL     1      -0.104  10.036  20.487  0.00  0.00    +0.000 A 
ATOM      3  N   UNL     1       0.114   9.012  21.364  0.00  0.00    +0.000 N 
ATOM      4  C   UNL     1       0.907   7.970  21.042  0.00  0.00    +0.000 A 
ATOM      5  C   UNL     1       1.616   7.936  19.846  0.00  0.00    +0.000 A 
ATOM      6  C   UNL     1       2.432   6.856  19.521  0.00  0.00    +0.000 A 
ATOM      7  C   UNL     1       3.181   6.827  18.374  0.00  0.00    +0.000 A 
ATOM      8  C   UNL     1       3.175   7.870  17.490  0.00  0.00    +0.000 A 
ATOM      9  C   UNL     1       2.364   8.974  17.789  0.00  0.00    +0.000 A 
ATOM     10  C   UNL     1       1.554   9.037  18.963  0.00  0.00    +0.000 A 
ATOM     11  O   UNL     1       3.907   5.686  18.244  0.00  0.00    +0.000 OA
ATOM     12  C   UNL     1       3.536   4.981  19.444  0.00  0.00    +0.000 C 
ATOM     13  O   UNL     1       2.605   5.727  20.269  0.00  0.00    +0.000 OA
ATOM     14  C   UNL     1      -0.485   9.048  22.733  0.00  0.00    +0.000 C 
ATOM     15  C   UNL     1      -0.428  10.479  23.273  0.00  0.00    +0.000 C 
ATOM     16  C   UNL     1      -1.199  11.343  22.312  0.00  0.00    +0.000 A 
ATOM     17  C   UNL     1      -2.026  12.379  22.770  0.00  0.00    +0.000 A 
ATOM     18  C   UNL     1      -2.861  12.971  21.852  0.00  0.00    +0.000 A 
ATOM     19  C   UNL     1      -2.913  12.548  20.548  0.00  0.00    +0.000 A 
ATOM     20  C   UNL     1      -2.071  11.567  20.063  0.00  0.00    +0.000 A 
ATOM     21  C   UNL     1      -1.122  11.007  20.933  0.00  0.00    +0.000 A 
ATOM     22  O   UNL     1      -3.861  13.203  19.828  0.00  0.00    +0.000 OA
ATOM     23  C   UNL     1      -4.337  14.157  20.805  0.00  0.00    +0.000 C 
ATOM     24  O   UNL     1      -3.741  13.973  22.108  0.00  0.00    +0.000 OA
ENDROOT
BRANCH   1  25
ATOM     25  C   UNL     1       0.847  11.461  18.563  0.00  0.00    +0.000 C 
BRANCH  25  26
ATOM     26  C   UNL     1       1.825  12.365  19.329  0.00  0.00    +0.000 C 
BRANCH  26  27
ATOM     27  C   UNL     1       1.212  13.625  19.958  0.00  0.00    +0.000 C 
BRANCH  27  28
ATOM     28  C   UNL     1       0.213  14.226  18.958  0.00  0.00    +0.000 C 
BRANCH  28  29
ATOM     29  C   UNL     1       0.349  15.733  18.734  0.00  0.00    +0.000 C 
BRANCH  29  30
ATOM     30  C   UNL     1       1.760  16.193  19.133  0.00  0.00    +0.000 C 
BRANCH  30  32
ATOM     31  C   UNL     1       3.511  15.576  17.424  0.00  0.00    +0.000 C 
ATOM     32  C   UNL     1       2.580  16.667  17.934  0.00  0.00    +0.000 C 
ENDBRANCH  30  32
ENDBRANCH  29  30
ENDBRANCH  28  29
ENDBRANCH  27  28
ENDBRANCH  26  27
ENDBRANCH  25  26
ENDBRANCH   1  25
TORSDOF 7
ENDMDL
MODEL 5
REMARK VINA RESULT:      -6.2      1.042      1.399
REMARK  Name = 
REMARK  8 active torsions:
REMARK  status: ('A' for Active; 'I' for Inactive)
REMARK    1  A    between atoms: C_1  and  C_2
REMARK    2  A    between atoms: C_2  and  C_3
REMARK    3  A    between atoms: C_3  and  C_4
REMARK    4  A    between atoms: C_4  and  C_5
REMARK    5  A    between atoms: C_5  and  C_6
REMARK    6  A    between atoms: C_6  and  C_7
REMARK    7  A    between atoms: C_7  and  C_8
REMARK    8  A    between atoms: C_8  and  C_9
REMARK                            x       y       z     vdW  Elec       q    Type
REMARK                         _______ _______ _______ _____ _____    ______ ____
ROOT
ATOM      1  C   UNL     1       2.367   6.536  19.129  0.00  0.00    +0.000 A 
ATOM      2  C   UNL     1       2.190   7.947  19.035  0.00  0.00    +0.000 A 
ATOM      3  N   UNL     1       2.767   8.621  17.997  0.00  0.00    +0.000 N 
ATOM      4  C   UNL     1       3.680   8.031  17.199  0.00  0.00    +0.000 A 
ATOM      5  C   UNL     1       4.002   6.685  17.332  0.00  0.00    +0.000 A 
ATOM      6  C   UNL     1       4.946   6.083  16.504  0.00  0.00    +0.000 A 
ATOM      7  C   UNL     1       5.239   4.747  16.582  0.00  0.00    +0.000 A 
ATOM      8  C   UNL     1       4.605   3.927  17.475  0.00  0.00    +0.000 A 
ATOM      9  C   UNL     1       3.648   4.502  18.323  0.00  0.00    +0.000 A 
ATOM     10  C   UNL     1       3.326   5.894  18.287  0.00  0.00    +0.000 A 
ATOM     11  O   UNL     1       6.185   4.359  15.689  0.00  0.00    +0.000 OA
ATOM     12  C   UNL     1       6.471   5.604  15.026  0.00  0.00    +0.000 C 
ATOM     13  O   UNL     1       5.675   6.706  15.532  0.00  0.00    +0.000 OA
ATOM     14  C   UNL     1       2.360  10.026  17.686  0.00  0.00    +0.000 C 
ATOM     15  C   UNL     1       0.848  10.169  17.882  0.00  0.00    +0.000 C 
ATOM     16  C   UNL     1       0.555   9.814  19.315  0.00  0.00    +0.000 A 
ATOM     17  C   UNL     1      -0.394  10.529  20.060  0.00  0.00    +0.000 A 
ATOM     18  C   UNL     1      -0.443  10.291  21.413  0.00  0.00    +0.000 A 
ATOM     19  C   UNL     1       0.421   9.416  22.021  0.00  0.00    +0.000 A 
ATOM     20  C   UNL     1       1.327   8.662  21.301  0.00  0.00    +0.000 A 
ATOM     21  C   UNL     1       1.341   8.787  19.902  0.00  0.00    +0.000 A 
ATOM     22  O   UNL     1       0.266   9.388  23.371  0.00  0.00    +0.000 OA
ATOM     23  C   UNL     1      -0.863  10.277  23.535  0.00  0.00    +0.000 C 
ATOM     24  O   UNL     1      -1.279  10.894  22.297  0.00  0.00    +0.000 OA
ENDROOT
BRANCH   1  25
ATOM     25  C   UNL     1       1.394   5.673  19.947  0.00  0.00    +0.000 C 
BRANCH  25  26
ATOM     26  C   UNL     1       2.190   4.876  20.991  0.00  0.00    +0.000 C 
BRANCH  26  27
ATOM     27  C   UNL     1       1.711   3.439  21.238  0.00  0.00    +0.000 C 
BRANCH  27  28
ATOM     28  C   UNL     1       0.700   3.072  20.140  0.00  0.00    +0.000 C 
BRANCH  28  29
ATOM     29  C   UNL     1       1.252   2.188  19.021  0.00  0.00    +0.000 C 
BRANCH  29  30
ATOM     30  C   UNL     1       2.224   1.152  19.608  0.00  0.00    +0.000 C 
BRANCH  30  32
ATOM     31  C   UNL     1       4.679   1.521  20.066  0.00  0.00    +0.000 C 
ATOM     32  C   UNL     1       3.624   1.257  19.001  0.00  0.00    +0.000 C 
ENDBRANCH  30  32
ENDBRANCH  29  30
ENDBRANCH  28  29
ENDBRANCH  27  28
ENDBRANCH  26  27
ENDBRANCH  25  26
ENDBRANCH   1  25
TORSDOF 7
ENDMDL
MODEL 6
REMARK VINA RESULT:      -6.2      4.858      8.368
REMARK  Name = 
REMARK  8 active torsions:
REMARK  status: ('A' for Active; 'I' for Inactive)
REMARK    1  A    between atoms: C_1  and  C_2
REMARK    2  A    between atoms: C_2  and  C_3
REMARK    3  A    between atoms: C_3  and  C_4
REMARK    4  A    between atoms: C_4  and  C_5
REMARK    5  A    between atoms: C_5  and  C_6
REMARK    6  A    between atoms: C_6  and  C_7
REMARK    7  A    between atoms: C_7  and  C_8
REMARK    8  A    between atoms: C_8  and  C_9
REMARK                            x       y       z     vdW  Elec       q    Type
REMARK                         _______ _______ _______ _____ _____    ______ ____
ROOT
ATOM      1  C   UNL     1      -2.284  12.544  20.422  0.00  0.00    +0.000 A 
ATOM      2  C   UNL     1      -3.476  13.247  20.761  0.00  0.00    +0.000 A 
ATOM      3  N   UNL     1      -4.616  13.005  20.048  0.00  0.00    +0.000 N 
ATOM      4  C   UNL     1      -4.587  12.300  18.899  0.00  0.00    +0.000 A 
ATOM      5  C   UNL     1      -3.418  11.704  18.439  0.00  0.00    +0.000 A 
ATOM      6  C   UNL     1      -3.398  10.978  17.251  0.00  0.00    +0.000 A 
ATOM      7  C   UNL     1      -2.270  10.337  16.807  0.00  0.00    +0.000 A 
ATOM      8  C   UNL     1      -1.104  10.368  17.520  0.00  0.00    +0.000 A 
ATOM      9  C   UNL     1      -1.092  11.090  18.721  0.00  0.00    +0.000 A 
ATOM     10  C   UNL     1      -2.239  11.787  19.211  0.00  0.00    +0.000 A 
ATOM     11  O   UNL     1      -2.460   9.686  15.631  0.00  0.00    +0.000 OA
ATOM     12  C   UNL     1      -3.843   9.985  15.366  0.00  0.00    +0.000 C 
ATOM     13  O   UNL     1      -4.451  10.797  16.402  0.00  0.00    +0.000 OA
ATOM     14  C   UNL     1      -5.940  13.477  20.556  0.00  0.00    +0.000 C 
ATOM     15  C   UNL     1      -5.994  13.297  22.075  0.00  0.00    +0.000 C 
ATOM     16  C   UNL     1      -4.863  14.105  22.652  0.00  0.00    +0.000 A 
ATOM     17  C   UNL     1      -5.024  14.832  23.840  0.00  0.00    +0.000 A 
ATOM     18  C   UNL     1      -4.025  15.715  24.181  0.00  0.00    +0.000 A 
ATOM     19  C   UNL     1      -2.930  15.905  23.377  0.00  0.00    +0.000 A 
ATOM     20  C   UNL     1      -2.724  15.162  22.232  0.00  0.00    +0.000 A 
ATOM     21  C   UNL     1      -3.660  14.169  21.899  0.00  0.00    +0.000 A 
ATOM     22  O   UNL     1      -2.106  16.878  23.847  0.00  0.00    +0.000 OA
ATOM     23  C   UNL     1      -2.760  17.214  25.091  0.00  0.00    +0.000 C 
ATOM     24  O   UNL     1      -4.010  16.514  25.278  0.00  0.00    +0.000 OA
ENDROOT
BRANCH   1  25
ATOM     25  C   UNL     1      -1.139  12.400  21.436  0.00  0.00    +0.000 C 
BRANCH  25  26
ATOM     26  C   UNL     1      -1.441  11.213  22.363  0.00  0.00    +0.000 C 
BRANCH  26  27
ATOM     27  C   UNL     1      -0.233  10.347  22.750  0.00  0.00    +0.000 C 
BRANCH  27  28
ATOM     28  C   UNL     1      -0.385   8.977  22.070  0.00  0.00    +0.000 C 
BRANCH  28  29
ATOM     29  C   UNL     1       0.905   8.398  21.487  0.00  0.00    +0.000 C 
BRANCH  29  30
ATOM     30  C   UNL     1       1.183   9.026  20.112  0.00  0.00    +0.000 C 
BRANCH  30  32
ATOM     31  C   UNL     1       2.207   8.719  17.826  0.00  0.00    +0.000 C 
ATOM     32  C   UNL     1       1.974   8.094  19.194  0.00  0.00    +0.000 C 
ENDBRANCH  30  32
ENDBRANCH  29  30
ENDBRANCH  28  29
ENDBRANCH  27  28
ENDBRANCH  26  27
ENDBRANCH  25  26
ENDBRANCH   1  25
TORSDOF 7
ENDMDL
MODEL 7
REMARK VINA RESULT:      -6.2      3.605      7.095
REMARK  Name = 
REMARK  8 active torsions:
REMARK  status: ('A' for Active; 'I' for Inactive)
REMARK    1  A    between atoms: C_1  and  C_2
REMARK    2  A    between atoms: C_2  and  C_3
REMARK    3  A    between atoms: C_3  and  C_4
REMARK    4  A    between atoms: C_4  and  C_5
REMARK    5  A    between atoms: C_5  and  C_6
REMARK    6  A    between atoms: C_6  and  C_7
REMARK    7  A    between atoms: C_7  and  C_8
REMARK    8  A    between atoms: C_8  and  C_9
REMARK                            x       y       z     vdW  Elec       q    Type
REMARK                         _______ _______ _______ _____ _____    ______ ____
ROOT
ATOM      1  C   UNL     1       0.928   9.962  19.325  0.00  0.00    +0.000 A 
ATOM      2  C   UNL     1       0.093   9.883  20.477  0.00  0.00    +0.000 A 
ATOM      3  N   UNL     1       0.251   8.837  21.341  0.00  0.00    +0.000 N 
ATOM      4  C   UNL     1       1.007   7.769  21.018  0.00  0.00    +0.000 A 
ATOM      5  C   UNL     1       1.738   7.724  19.836  0.00  0.00    +0.000 A 
ATOM      6  C   UNL     1       2.516   6.617  19.509  0.00  0.00    +0.000 A 
ATOM      7  C   UNL     1       3.286   6.575  18.377  0.00  0.00    +0.000 A 
ATOM      8  C   UNL     1       3.341   7.632  17.511  0.00  0.00    +0.000 A 
ATOM      9  C   UNL     1       2.570   8.763  17.812  0.00  0.00    +0.000 A 
ATOM     10  C   UNL     1       1.739   8.841  18.971  0.00  0.00    +0.000 A 
ATOM     11  O   UNL     1       3.968   5.408  18.243  0.00  0.00    +0.000 OA
ATOM     12  C   UNL     1       3.543   4.699  19.423  0.00  0.00    +0.000 C 
ATOM     13  O   UNL     1       2.627   5.470  20.242  0.00  0.00    +0.000 OA
ATOM     14  C   UNL     1      -0.375   8.876  22.699  0.00  0.00    +0.000 C 
ATOM     15  C   UNL     1      -0.270  10.294  23.264  0.00  0.00    +0.000 C 
ATOM     16  C   UNL     1      -0.985  11.204  22.302  0.00  0.00    +0.000 A 
ATOM     17  C   UNL     1      -1.779  12.266  22.760  0.00  0.00    +0.000 A 
ATOM     18  C   UNL     1      -2.570  12.907  21.836  0.00  0.00    +0.000 A 
ATOM     19  C   UNL     1      -2.612  12.507  20.525  0.00  0.00    +0.000 A 
ATOM     20  C   UNL     1      -1.800  11.501  20.040  0.00  0.00    +0.000 A 
ATOM     21  C   UNL     1      -0.893  10.888  20.919  0.00  0.00    +0.000 A 
ATOM     22  O   UNL     1      -3.517  13.212  19.797  0.00  0.00    +0.000 OA
ATOM     23  C   UNL     1      -3.974  14.169  20.780  0.00  0.00    +0.000 C 
ATOM     24  O   UNL     1      -3.413  13.940  22.091  0.00  0.00    +0.000 OA
ENDROOT
BRANCH   1  25
ATOM     25  C   UNL     1       1.141  11.298  18.597  0.00  0.00    +0.000 C 
BRANCH  25  26
ATOM     26  C   UNL     1       1.849  12.276  19.546  0.00  0.00    +0.000 C 
BRANCH  26  27
ATOM     27  C   UNL     1       1.788  13.756  19.144  0.00  0.00    +0.000 C 
BRANCH  27  28
ATOM     28  C   UNL     1       0.579  14.397  19.844  0.00  0.00    +0.000 C 
BRANCH  28  29
ATOM     29  C   UNL     1      -0.388  15.136  18.918  0.00  0.00    +0.000 C 
BRANCH  29  30
ATOM     30  C   UNL     1      -0.208  16.654  19.081  0.00  0.00    +0.000 C 
BRANCH  30  32
ATOM     31  C   UNL     1       0.530  18.108  17.155  0.00  0.00    +0.000 C 
ATOM     32  C   UNL     1      -0.648  17.429  17.839  0.00  0.00    +0.000 C 
ENDBRANCH  30  32
ENDBRANCH  29  30
ENDBRANCH  28  29
ENDBRANCH  27  28
ENDBRANCH  26  27
ENDBRANCH  25  26
ENDBRANCH   1  25
TORSDOF 7
ENDMDL
MODEL 8
REMARK VINA RESULT:      -6.2      3.299      6.975
REMARK  Name = 
REMARK  8 active torsions:
REMARK  status: ('A' for Active; 'I' for Inactive)
REMARK    1  A    between atoms: C_1  and  C_2
REMARK    2  A    between atoms: C_2  and  C_3
REMARK    3  A    between atoms: C_3  and  C_4
REMARK    4  A    between atoms: C_4  and  C_5
REMARK    5  A    between atoms: C_5  and  C_6
REMARK    6  A    between atoms: C_6  and  C_7
REMARK    7  A    between atoms: C_7  and  C_8
REMARK    8  A    between atoms: C_8  and  C_9
REMARK                            x       y       z     vdW  Elec       q    Type
REMARK                         _______ _______ _______ _____ _____    ______ ____
ROOT
ATOM      1  C   UNL     1       0.611  10.263  19.399  0.00  0.00    +0.000 A 
ATOM      2  C   UNL     1      -0.166  10.135  20.587  0.00  0.00    +0.000 A 
ATOM      3  N   UNL     1       0.078   9.089  21.431  0.00  0.00    +0.000 N 
ATOM      4  C   UNL     1       0.867   8.060  21.061  0.00  0.00    +0.000 A 
ATOM      5  C   UNL     1       1.544   8.061  19.847  0.00  0.00    +0.000 A 
ATOM      6  C   UNL     1       2.356   6.994  19.472  0.00  0.00    +0.000 A 
ATOM      7  C   UNL     1       3.075   6.998  18.305  0.00  0.00    +0.000 A 
ATOM      8  C   UNL     1       3.042   8.065  17.450  0.00  0.00    +0.000 A 
ATOM      9  C   UNL     1       2.235   9.156  17.799  0.00  0.00    +0.000 A 
ATOM     10  C   UNL     1       1.455   9.184  18.995  0.00  0.00    +0.000 A 
ATOM     11  O   UNL     1       3.802   5.865  18.127  0.00  0.00    +0.000 OA
ATOM     12  C   UNL     1       3.465   5.126  19.316  0.00  0.00    +0.000 C 
ATOM     13  O   UNL     1       2.553   5.846  20.185  0.00  0.00    +0.000 OA
ATOM     14  C   UNL     1      -0.485   9.086  22.815  0.00  0.00    +0.000 C 
ATOM     15  C   UNL     1      -0.420  10.502  23.392  0.00  0.00    +0.000 C 
ATOM     16  C   UNL     1      -1.219  11.388  22.474  0.00  0.00    +0.000 A 
ATOM     17  C   UNL     1      -2.038  12.407  22.980  0.00  0.00    +0.000 A 
ATOM     18  C   UNL     1      -2.899  13.021  22.101  0.00  0.00    +0.000 A 
ATOM     19  C   UNL     1      -2.983  12.632  20.788  0.00  0.00    +0.000 A 
ATOM     20  C   UNL     1      -2.149  11.668  20.255  0.00  0.00    +0.000 A 
ATOM     21  C   UNL     1      -1.176  11.089  21.085  0.00  0.00    +0.000 A 
ATOM     22  O   UNL     1      -3.951  13.302  20.110  0.00  0.00    +0.000 OA
ATOM     23  C   UNL     1      -4.405  14.227  21.124  0.00  0.00    +0.000 C 
ATOM     24  O   UNL     1      -3.775  14.011  22.406  0.00  0.00    +0.000 OA
ENDROOT
BRANCH   1  25
ATOM     25  C   UNL     1       0.729  11.615  18.678  0.00  0.00    +0.000 C 
BRANCH  25  26
ATOM     26  C   UNL     1       1.884  12.414  19.301  0.00  0.00    +0.000 C 
BRANCH  26  27
ATOM     27  C   UNL     1       2.673  13.308  18.335  0.00  0.00    +0.000 C 
BRANCH  27  28
ATOM     28  C   UNL     1       2.591  14.756  18.842  0.00  0.00    +0.000 C 
BRANCH  28  29
ATOM     29  C   UNL     1       1.261  15.461  18.575  0.00  0.00    +0.000 C 
BRANCH  29  30
ATOM     30  C   UNL     1       0.731  16.086  19.875  0.00  0.00    +0.000 C 
BRANCH  30  32
ATOM     31  C   UNL     1       0.549  14.663  21.952  0.00  0.00    +0.000 C 
ATOM     32  C   UNL     1      -0.142  15.118  20.674  0.00  0.00    +0.000 C 
ENDBRANCH  30  32
ENDBRANCH  29  30
ENDBRANCH  28  29
ENDBRANCH  27  28
ENDBRANCH  26  27
ENDBRANCH  25  26
ENDBRANCH   1  25
TORSDOF 7
ENDMDL
MODEL 9
REMARK VINA RESULT:      -6.1      6.059      9.594
REMARK  Name = 
REMARK  8 active torsions:
REMARK  status: ('A' for Active; 'I' for Inactive)
REMARK    1  A    between atoms: C_1  and  C_2
REMARK    2  A    between atoms: C_2  and  C_3
REMARK    3  A    between atoms: C_3  and  C_4
REMARK    4  A    between atoms: C_4  and  C_5
REMARK    5  A    between atoms: C_5  and  C_6
REMARK    6  A    between atoms: C_6  and  C_7
REMARK    7  A    between atoms: C_7  and  C_8
REMARK    8  A    between atoms: C_8  and  C_9
REMARK                            x       y       z     vdW  Elec       q    Type
REMARK                         _______ _______ _______ _____ _____    ______ ____
ROOT
ATOM      1  C   UNL     1      -2.197  12.650  19.042  0.00  0.00    +0.000 A 
ATOM      2  C   UNL     1      -1.667  13.483  20.070  0.00  0.00    +0.000 A 
ATOM      3  N   UNL     1      -2.376  13.643  21.227  0.00  0.00    +0.000 N 
ATOM      4  C   UNL     1      -3.653  13.223  21.329  0.00  0.00    +0.000 A 
ATOM      5  C   UNL     1      -4.276  12.525  20.301  0.00  0.00    +0.000 A 
ATOM      6  C   UNL     1      -5.595  12.096  20.415  0.00  0.00    +0.000 A 
ATOM      7  C   UNL     1      -6.210  11.359  19.437  0.00  0.00    +0.000 A 
ATOM      8  C   UNL     1      -5.550  10.993  18.297  0.00  0.00    +0.000 A 
ATOM      9  C   UNL     1      -4.219  11.408  18.152  0.00  0.00    +0.000 A 
ATOM     10  C   UNL     1      -3.547  12.192  19.138  0.00  0.00    +0.000 A 
ATOM     11  O   UNL     1      -7.496  11.042  19.741  0.00  0.00    +0.000 OA
ATOM     12  C   UNL     1      -7.639  11.665  21.032  0.00  0.00    +0.000 C 
ATOM     13  O   UNL     1      -6.427  12.328  21.473  0.00  0.00    +0.000 OA
ATOM     14  C   UNL     1      -1.730  14.244  22.433  0.00  0.00    +0.000 C 
ATOM     15  C   UNL     1      -0.288  13.740  22.540  0.00  0.00    +0.000 C 
ATOM     16  C   UNL     1       0.415  14.152  21.275  0.00  0.00    +0.000 A 
ATOM     17  C   UNL     1       1.741  14.610  21.298  0.00  0.00    +0.000 A 
ATOM     18  C   UNL     1       2.234  15.174  20.144  0.00  0.00    +0.000 A 
ATOM     19  C   UNL     1       1.455  15.316  19.024  0.00  0.00    +0.000 A 
ATOM     20  C   UNL     1       0.167  14.825  18.961  0.00  0.00    +0.000 A 
ATOM     21  C   UNL     1      -0.347  14.142  20.075  0.00  0.00    +0.000 A 
ATOM     22  O   UNL     1       2.101  15.972  18.024  0.00  0.00    +0.000 OA
ATOM     23  C   UNL     1       3.412  16.143  18.611  0.00  0.00    +0.000 C 
ATOM     24  O   UNL     1       3.481  15.685  19.979  0.00  0.00    +0.000 OA
ENDROOT
BRANCH   1  25
ATOM     25  C   UNL     1      -1.280  12.053  17.963  0.00  0.00    +0.000 C 
BRANCH  25  26
ATOM     26  C   UNL     1      -0.662  10.752  18.497  0.00  0.00    +0.000 C 
BRANCH  26  27
ATOM     27  C   UNL     1       0.785  10.861  19.000  0.00  0.00    +0.000 C 
BRANCH  27  28
ATOM     28  C   UNL     1       0.895  10.084  20.322  0.00  0.00    +0.000 C 
BRANCH  28  29
ATOM     29  C   UNL     1      -0.387   9.379  20.766  0.00  0.00    +0.000 C 
BRANCH  29  30
ATOM     30  C   UNL     1      -0.154   8.670  22.109  0.00  0.00    +0.000 C 
BRANCH  30  32
ATOM     31  C   UNL     1      -1.274  10.641  23.219  0.00  0.00    +0.000 C 
ATOM     32  C   UNL     1      -0.124   9.645  23.286  0.00  0.00    +0.000 C 
ENDBRANCH  30  32
ENDBRANCH  29  30
ENDBRANCH  28  29
ENDBRANCH  27  28
ENDBRANCH  26  27
ENDBRANCH  25  26
ENDBRANCH   1  25
TORSDOF 7
ENDMDL
