MODEL 1
REMARK VINA RESULT:      -7.2      0.000      0.000
REMARK  Name = 
REMARK  7 active torsions:
REMARK  status: ('A' for Active; 'I' for Inactive)
REMARK    1  A    between atoms: C_1  and  C_2
REMARK    2  A    between atoms: C_5  and  S_6
REMARK    3  A    between atoms: S_6  and  N_9
REMARK    4  A    between atoms: C_16  and  N_17
REMARK    5  A    between atoms: N_17  and  C_18
REMARK    6  A    between atoms: C_18  and  N_20
REMARK    7  A    between atoms: C_21  and  C_23
REMARK                            x       y       z     vdW  Elec       q    Type
REMARK                         _______ _______ _______ _____ _____    ______ ____
ROOT
ATOM      1  C   UNL     1       7.619   5.047  15.160  0.00  0.00    +0.000 C 
ATOM      2  C   UNL     1       6.337   5.074  15.953  0.00  0.00    +0.000 A 
ATOM      3  C   UNL     1       5.275   4.295  15.459  0.00  0.00    +0.000 A 
ATOM      4  C   UNL     1       4.057   4.253  16.121  0.00  0.00    +0.000 A 
ATOM      5  C   UNL     1       3.887   4.988  17.291  0.00  0.00    +0.000 A 
ATOM      6  C   UNL     1       4.925   5.795  17.792  0.00  0.00    +0.000 A 
ATOM      7  C   UNL     1       6.165   5.841  17.135  0.00  0.00    +0.000 A 
ENDROOT
BRANCH   5   8
ATOM      8  S   UNL     1       2.262   4.997  18.038  0.00  0.00    +0.000 S 
ATOM      9  O   UNL     1       1.937   6.371  18.359  0.00  0.00    +0.000 OA
ATOM     10  O   UNL     1       1.396   4.211  17.179  0.00  0.00    +0.000 OA
BRANCH   8  11
ATOM     11  N   UNL     1       2.473   4.124  19.497  0.00  0.00    +0.000 NA
ATOM     12  C   UNL     1       1.253   3.952  20.330  0.00  0.00    +0.000 C 
ATOM     13  C   UNL     1       1.601   3.406  21.712  0.00  0.00    +0.000 C 
ATOM     14  C   UNL     1       2.418   2.125  21.606  0.00  0.00    +0.000 C 
ATOM     15  C   UNL     1       3.673   2.387  20.784  0.00  0.00    +0.000 C 
ATOM     16  C   UNL     1       3.321   2.910  19.395  0.00  0.00    +0.000 C 
ENDBRANCH   8  11
ENDBRANCH   5   8
BRANCH   7  17
ATOM     17  N   UNL     1       7.230   6.689  17.549  0.00  0.00    +0.000 N 
ATOM     18  H   UNL     1       7.564   7.323  16.823  0.00  0.00    +0.000 HD
BRANCH  17  19
ATOM     19  C   UNL     1       7.961   6.762  18.718  0.00  0.00    +0.000 C 
ATOM     20  S   UNL     1       8.200   5.563  19.861  0.00  0.00    +0.000 S 
BRANCH  19  21
ATOM     21  N   UNL     1       8.651   7.960  18.913  0.00  0.00    +0.000 N 
ATOM     22  C   UNL     1       8.411   9.209  18.345  0.00  0.00    +0.000 C 
ATOM     23  O   UNL     1       7.447   9.406  17.609  0.00  0.00    +0.000 OA
ATOM     24  H   UNL     1       9.420   7.910  19.569  0.00  0.00    +0.000 HD
BRANCH  22  25
ATOM     25  C   UNL     1       9.368  10.251  18.668  0.00  0.00    +0.000 A 
ATOM     26  C   UNL     1       9.717  10.778  19.899  0.00  0.00    +0.000 A 
ATOM     27  C   UNL     1      10.656  11.807  19.661  0.00  0.00    +0.000 A 
ATOM     28  C   UNL     1      10.823  11.857  18.298  0.00  0.00    +0.000 A 
ATOM     29  O   UNL     1      10.059  10.911  17.682  0.00  0.00    +0.000 OA
ENDBRANCH  22  25
ENDBRANCH  19  21
ENDBRANCH  17  19
ENDBRANCH   7  17
TORSDOF 6
ENDMDL
MODEL 2
REMARK VINA RESULT:      -7.2      4.231      7.611
REMARK  Name = 
REMARK  7 active torsions:
REMARK  status: ('A' for Active; 'I' for Inactive)
REMARK    1  A    between atoms: C_1  and  C_2
REMARK    2  A    between atoms: C_5  and  S_6
REMARK    3  A    between atoms: S_6  and  N_9
REMARK    4  A    between atoms: C_16  and  N_17
REMARK    5  A    between atoms: N_17  and  C_18
REMARK    6  A    between atoms: C_18  and  N_20
REMARK    7  A    between atoms: C_21  and  C_23
REMARK                            x       y       z     vdW  Elec       q    Type
REMARK                         _______ _______ _______ _____ _____    ______ ____
ROOT
ATOM      1  C   UNL     1       1.106   4.521  20.552  0.00  0.00    +0.000 C 
ATOM      2  C   UNL     1       2.426   4.812  19.885  0.00  0.00    +0.000 A 
ATOM      3  C   UNL     1       3.240   3.705  19.590  0.00  0.00    +0.000 A 
ATOM      4  C   UNL     1       4.472   3.871  18.974  0.00  0.00    +0.000 A 
ATOM      5  C   UNL     1       4.904   5.153  18.641  0.00  0.00    +0.000 A 
ATOM      6  C   UNL     1       4.119   6.279  18.949  0.00  0.00    +0.000 A 
ATOM      7  C   UNL     1       2.868   6.123  19.566  0.00  0.00    +0.000 A 
ENDROOT
BRANCH   5   8
ATOM      8  S   UNL     1       6.549   5.325  17.962  0.00  0.00    +0.000 S 
ATOM      9  O   UNL     1       6.965   6.696  18.168  0.00  0.00    +0.000 OA
ATOM     10  O   UNL     1       7.339   4.223  18.481  0.00  0.00    +0.000 OA
BRANCH   8  11
ATOM     11  N   UNL     1       6.332   5.060  16.283  0.00  0.00    +0.000 NA
ATOM     12  C   UNL     1       7.579   4.983  15.475  0.00  0.00    +0.000 C 
ATOM     13  C   UNL     1       7.269   5.016  13.980  0.00  0.00    +0.000 C 
ATOM     14  C   UNL     1       6.265   3.936  13.604  0.00  0.00    +0.000 C 
ATOM     15  C   UNL     1       4.998   4.104  14.433  0.00  0.00    +0.000 C 
ATOM     16  C   UNL     1       5.308   4.047  15.926  0.00  0.00    +0.000 C 
ENDBRANCH   8  11
ENDBRANCH   5   8
BRANCH   7  17
ATOM     17  N   UNL     1       2.059   7.223  19.966  0.00  0.00    +0.000 N 
ATOM     18  H   UNL     1       1.588   7.090  20.860  0.00  0.00    +0.000 HD
BRANCH  17  19
ATOM     19  C   UNL     1       1.716   8.404  19.338  0.00  0.00    +0.000 C 
ATOM     20  S   UNL     1       2.060   8.875  17.769  0.00  0.00    +0.000 S 
BRANCH  19  21
ATOM     21  N   UNL     1       0.910   9.263  20.086  0.00  0.00    +0.000 N 
ATOM     22  C   UNL     1       0.854   9.425  21.469  0.00  0.00    +0.000 C 
ATOM     23  O   UNL     1       1.620   8.826  22.219  0.00  0.00    +0.000 OA
ATOM     24  H   UNL     1       0.296   9.857  19.544  0.00  0.00    +0.000 HD
BRANCH  22  25
ATOM     25  C   UNL     1      -0.165  10.333  21.964  0.00  0.00    +0.000 A 
ATOM     26  C   UNL     1      -0.786  10.373  23.200  0.00  0.00    +0.000 A 
ATOM     27  C   UNL     1      -1.740  11.415  23.154  0.00  0.00    +0.000 A 
ATOM     28  C   UNL     1      -1.653  11.950  21.890  0.00  0.00    +0.000 A 
ATOM     29  O   UNL     1      -0.693  11.313  21.161  0.00  0.00    +0.000 OA
ENDBRANCH  22  25
ENDBRANCH  19  21
ENDBRANCH  17  19
ENDBRANCH   7  17
TORSDOF 6
ENDMDL
MODEL 3
REMARK VINA RESULT:      -7.0      4.828      6.502
REMARK  Name = 
REMARK  7 active torsions:
REMARK  status: ('A' for Active; 'I' for Inactive)
REMARK    1  A    between atoms: C_1  and  C_2
REMARK    2  A    between atoms: C_5  and  S_6
REMARK    3  A    between atoms: S_6  and  N_9
REMARK    4  A    between atoms: C_16  and  N_17
REMARK    5  A    between atoms: N_17  and  C_18
REMARK    6  A    between atoms: C_18  and  N_20
REMARK    7  A    between atoms: C_21  and  C_23
REMARK                            x       y       z     vdW  Elec       q    Type
REMARK                         _______ _______ _______ _____ _____    ______ ____
ROOT
ATOM      1  C   UNL     1       1.210   8.687  21.241  0.00  0.00    +0.000 C 
ATOM      2  C   UNL     1       1.676   7.555  20.361  0.00  0.00    +0.000 A 
ATOM      3  C   UNL     1       1.621   6.264  20.916  0.00  0.00    +0.000 A 
ATOM      4  C   UNL     1       2.026   5.158  20.184  0.00  0.00    +0.000 A 
ATOM      5  C   UNL     1       2.489   5.331  18.881  0.00  0.00    +0.000 A 
ATOM      6  C   UNL     1       2.578   6.615  18.313  0.00  0.00    +0.000 A 
ATOM      7  C   UNL     1       2.165   7.741  19.042  0.00  0.00    +0.000 A 
ENDROOT
BRANCH   5   8
ATOM      8  S   UNL     1       3.113   3.891  18.024  0.00  0.00    +0.000 S 
ATOM      9  O   UNL     1       3.373   2.870  19.018  0.00  0.00    +0.000 OA
ATOM     10  O   UNL     1       2.215   3.635  16.914  0.00  0.00    +0.000 OA
BRANCH   8  11
ATOM     11  N   UNL     1       4.607   4.415  17.369  0.00  0.00    +0.000 NA
ATOM     12  C   UNL     1       5.768   4.382  18.298  0.00  0.00    +0.000 C 
ATOM     13  C   UNL     1       6.970   5.112  17.705  0.00  0.00    +0.000 C 
ATOM     14  C   UNL     1       7.315   4.570  16.325  0.00  0.00    +0.000 C 
ATOM     15  C   UNL     1       6.099   4.680  15.415  0.00  0.00    +0.000 C 
ATOM     16  C   UNL     1       4.906   3.929  15.999  0.00  0.00    +0.000 C 
ENDBRANCH   8  11
ENDBRANCH   5   8
BRANCH   7  17
ATOM     17  N   UNL     1       2.294   9.071  18.551  0.00  0.00    +0.000 N 
ATOM     18  H   UNL     1       3.256   9.405  18.505  0.00  0.00    +0.000 HD
BRANCH  17  19
ATOM     19  C   UNL     1       1.364  10.031  18.206  0.00  0.00    +0.000 C 
ATOM     20  S   UNL     1      -0.279   9.831  17.953  0.00  0.00    +0.000 S 
BRANCH  19  21
ATOM     21  N   UNL     1       1.851  11.338  18.152  0.00  0.00    +0.000 N 
ATOM     22  C   UNL     1       1.718  12.359  19.091  0.00  0.00    +0.000 C 
ATOM     23  O   UNL     1       1.172  12.169  20.175  0.00  0.00    +0.000 OA
ATOM     24  H   UNL     1       2.384  11.563  17.322  0.00  0.00    +0.000 HD
BRANCH  22  25
ATOM     25  C   UNL     1       2.253  13.653  18.706  0.00  0.00    +0.000 A 
ATOM     26  C   UNL     1       1.669  14.905  18.775  0.00  0.00    +0.000 A 
ATOM     27  C   UNL     1       2.590  15.825  18.226  0.00  0.00    +0.000 A 
ATOM     28  C   UNL     1       3.683  15.083  17.845  0.00  0.00    +0.000 A 
ATOM     29  O   UNL     1       3.500  13.766  18.142  0.00  0.00    +0.000 OA
ENDBRANCH  22  25
ENDBRANCH  19  21
ENDBRANCH  17  19
ENDBRANCH   7  17
TORSDOF 6
ENDMDL
MODEL 4
REMARK VINA RESULT:      -7.0      4.811      7.144
REMARK  Name = 
REMARK  7 active torsions:
REMARK  status: ('A' for Active; 'I' for Inactive)
REMARK    1  A    between atoms: C_1  and  C_2
REMARK    2  A    between atoms: C_5  and  S_6
REMARK    3  A    between atoms: S_6  and  N_9
REMARK    4  A    between atoms: C_16  and  N_17
REMARK    5  A    between atoms: N_17  and  C_18
REMARK    6  A    between atoms: C_18  and  N_20
REMARK    7  A    between atoms: C_21  and  C_23
REMARK                            x       y       z     vdW  Elec       q    Type
REMARK                         _______ _______ _______ _____ _____    ______ ____
ROOT
ATOM      1  C   UNL     1       2.286   4.916  20.515  0.00  0.00    +0.000 C 
ATOM      2  C   UNL     1       2.125   6.329  20.013  0.00  0.00    +0.000 A 
ATOM      3  C   UNL     1       1.353   7.195  20.807  0.00  0.00    +0.000 A 
ATOM      4  C   UNL     1       1.150   8.514  20.430  0.00  0.00    +0.000 A 
ATOM      5  C   UNL     1       1.724   8.986  19.252  0.00  0.00    +0.000 A 
ATOM      6  C   UNL     1       2.480   8.133  18.427  0.00  0.00    +0.000 A 
ATOM      7  C   UNL     1       2.697   6.798  18.801  0.00  0.00    +0.000 A 
ENDROOT
BRANCH   5   8
ATOM      8  S   UNL     1       1.332  10.657  18.749  0.00  0.00    +0.000 S 
ATOM      9  O   UNL     1       1.739  11.542  19.820  0.00  0.00    +0.000 OA
ATOM     10  O   UNL     1       1.853  10.828  17.405  0.00  0.00    +0.000 OA
BRANCH   8  11
ATOM     11  N   UNL     1      -0.378  10.667  18.646  0.00  0.00    +0.000 NA
ATOM     12  C   UNL     1      -1.035  11.972  18.925  0.00  0.00    +0.000 C 
ATOM     13  C   UNL     1      -2.546  11.808  19.070  0.00  0.00    +0.000 C 
ATOM     14  C   UNL     1      -3.140  11.107  17.857  0.00  0.00    +0.000 C 
ATOM     15  C   UNL     1      -2.457   9.760  17.659  0.00  0.00    +0.000 C 
ATOM     16  C   UNL     1      -0.950   9.929  17.491  0.00  0.00    +0.000 C 
ENDBRANCH   8  11
ENDBRANCH   5   8
BRANCH   7  17
ATOM     17  N   UNL     1       3.392   5.867  17.979  0.00  0.00    +0.000 N 
ATOM     18  H   UNL     1       2.794   5.362  17.325  0.00  0.00    +0.000 HD
BRANCH  17  19
ATOM     19  C   UNL     1       4.707   5.448  17.952  0.00  0.00    +0.000 C 
ATOM     20  S   UNL     1       5.747   5.232  19.247  0.00  0.00    +0.000 S 
BRANCH  19  21
ATOM     21  N   UNL     1       5.188   5.077  16.696  0.00  0.00    +0.000 N 
ATOM     22  C   UNL     1       6.414   5.379  16.106  0.00  0.00    +0.000 C 
ATOM     23  O   UNL     1       7.287   5.993  16.715  0.00  0.00    +0.000 OA
ATOM     24  H   UNL     1       4.562   4.500  16.150  0.00  0.00    +0.000 HD
BRANCH  22  25
ATOM     25  C   UNL     1       6.590   4.932  14.736  0.00  0.00    +0.000 A 
ATOM     26  C   UNL     1       5.890   3.975  14.023  0.00  0.00    +0.000 A 
ATOM     27  C   UNL     1       6.492   3.882  12.748  0.00  0.00    +0.000 A 
ATOM     28  C   UNL     1       7.531   4.782  12.755  0.00  0.00    +0.000 A 
ATOM     29  O   UNL     1       7.595   5.437  13.949  0.00  0.00    +0.000 OA
ENDBRANCH  22  25
ENDBRANCH  19  21
ENDBRANCH  17  19
ENDBRANCH   7  17
TORSDOF 6
ENDMDL
MODEL 5
REMARK VINA RESULT:      -6.9      4.695      6.395
REMARK  Name = 
REMARK  7 active torsions:
REMARK  status: ('A' for Active; 'I' for Inactive)
REMARK    1  A    between atoms: C_1  and  C_2
REMARK    2  A    between atoms: C_5  and  S_6
REMARK    3  A    between atoms: S_6  and  N_9
REMARK    4  A    between atoms: C_16  and  N_17
REMARK    5  A    between atoms: N_17  and  C_18
REMARK    6  A    between atoms: C_18  and  N_20
REMARK    7  A    between atoms: C_21  and  C_23
REMARK                            x       y       z     vdW  Elec       q    Type
REMARK                         _______ _______ _______ _____ _____    ______ ____
ROOT
ATOM      1  C   UNL     1       1.388   8.558  21.104  0.00  0.00    +0.000 C 
ATOM      2  C   UNL     1       1.790   7.383  20.249  0.00  0.00    +0.000 A 
ATOM      3  C   UNL     1       1.765   6.119  20.865  0.00  0.00    +0.000 A 
ATOM      4  C   UNL     1       2.115   4.977  20.160  0.00  0.00    +0.000 A 
ATOM      5  C   UNL     1       2.493   5.086  18.823  0.00  0.00    +0.000 A 
ATOM      6  C   UNL     1       2.551   6.342  18.192  0.00  0.00    +0.000 A 
ATOM      7  C   UNL     1       2.192   7.504  18.893  0.00  0.00    +0.000 A 
ENDROOT
BRANCH   5   8
ATOM      8  S   UNL     1       3.052   3.604  17.995  0.00  0.00    +0.000 S 
ATOM      9  O   UNL     1       3.078   2.539  18.976  0.00  0.00    +0.000 OA
ATOM     10  O   UNL     1       2.269   3.475  16.780  0.00  0.00    +0.000 OA
BRANCH   8  11
ATOM     11  N   UNL     1       4.662   3.969  17.536  0.00  0.00    +0.000 NA
ATOM     12  C   UNL     1       4.845   4.436  16.136  0.00  0.00    +0.000 C 
ATOM     13  C   UNL     1       6.323   4.473  15.756  0.00  0.00    +0.000 C 
ATOM     14  C   UNL     1       7.125   5.299  16.753  0.00  0.00    +0.000 C 
ATOM     15  C   UNL     1       6.930   4.736  18.155  0.00  0.00    +0.000 C 
ATOM     16  C   UNL     1       5.454   4.723  18.541  0.00  0.00    +0.000 C 
ENDBRANCH   8  11
ENDBRANCH   5   8
BRANCH   7  17
ATOM     17  N   UNL     1       2.295   8.808  18.334  0.00  0.00    +0.000 N 
ATOM     18  H   UNL     1       3.253   9.106  18.148  0.00  0.00    +0.000 HD
BRANCH  17  19
ATOM     19  C   UNL     1       1.358   9.788  18.075  0.00  0.00    +0.000 C 
ATOM     20  S   UNL     1      -0.295   9.606  17.873  0.00  0.00    +0.000 S 
BRANCH  19  21
ATOM     21  N   UNL     1       1.848  11.094  18.070  0.00  0.00    +0.000 N 
ATOM     22  C   UNL     1       1.709  12.083  19.042  0.00  0.00    +0.000 C 
ATOM     23  O   UNL     1       1.153  11.858  20.114  0.00  0.00    +0.000 OA
ATOM     24  H   UNL     1       2.389  11.347  17.253  0.00  0.00    +0.000 HD
BRANCH  22  25
ATOM     25  C   UNL     1       2.251  13.388  18.707  0.00  0.00    +0.000 A 
ATOM     26  C   UNL     1       1.642  14.630  18.738  0.00  0.00    +0.000 A 
ATOM     27  C   UNL     1       2.587  15.569  18.266  0.00  0.00    +0.000 A 
ATOM     28  C   UNL     1       3.719  14.847  17.967  0.00  0.00    +0.000 A 
ATOM     29  O   UNL     1       3.535  13.525  18.242  0.00  0.00    +0.000 OA
ENDBRANCH  22  25
ENDBRANCH  19  21
ENDBRANCH  17  19
ENDBRANCH   7  17
TORSDOF 6
ENDMDL
MODEL 6
REMARK VINA RESULT:      -6.9      4.356      7.603
REMARK  Name = 
REMARK  7 active torsions:
REMARK  status: ('A' for Active; 'I' for Inactive)
REMARK    1  A    between atoms: C_1  and  C_2
REMARK    2  A    between atoms: C_5  and  S_6
REMARK    3  A    between atoms: S_6  and  N_9
REMARK    4  A    between atoms: C_16  and  N_17
REMARK    5  A    between atoms: N_17  and  C_18
REMARK    6  A    between atoms: C_18  and  N_20
REMARK    7  A    between atoms: C_21  and  C_23
REMARK                            x       y       z     vdW  Elec       q    Type
REMARK                         _______ _______ _______ _____ _____    ______ ____
ROOT
ATOM      1  C   UNL     1       1.560   3.964  18.963  0.00  0.00    +0.000 C 
ATOM      2  C   UNL     1       2.823   4.429  18.284  0.00  0.00    +0.000 A 
ATOM      3  C   UNL     1       3.807   3.452  18.050  0.00  0.00    +0.000 A 
ATOM      4  C   UNL     1       5.002   3.782  17.428  0.00  0.00    +0.000 A 
ATOM      5  C   UNL     1       5.226   5.097  17.027  0.00  0.00    +0.000 A 
ATOM      6  C   UNL     1       4.267   6.097  17.272  0.00  0.00    +0.000 A 
ATOM      7  C   UNL     1       3.051   5.775  17.895  0.00  0.00    +0.000 A 
ENDROOT
BRANCH   5   8
ATOM      8  S   UNL     1       6.829   5.495  16.342  0.00  0.00    +0.000 S 
ATOM      9  O   UNL     1       7.008   6.927  16.455  0.00  0.00    +0.000 OA
ATOM     10  O   UNL     1       7.784   4.578  16.936  0.00  0.00    +0.000 OA
BRANCH   8  11
ATOM     11  N   UNL     1       6.683   5.087  14.684  0.00  0.00    +0.000 NA
ATOM     12  C   UNL     1       7.886   5.341  13.847  0.00  0.00    +0.000 C 
ATOM     13  C   UNL     1       7.564   5.198  12.362  0.00  0.00    +0.000 C 
ATOM     14  C   UNL     1       6.925   3.848  12.066  0.00  0.00    +0.000 C 
ATOM     15  C   UNL     1       5.675   3.677  12.920  0.00  0.00    +0.000 C 
ATOM     16  C   UNL     1       6.005   3.796  14.405  0.00  0.00    +0.000 C 
ENDBRANCH   8  11
ENDBRANCH   5   8
BRANCH   7  17
ATOM     17  N   UNL     1       2.072   6.750  18.234  0.00  0.00    +0.000 N 
ATOM     18  H   UNL     1       1.113   6.406  18.201  0.00  0.00    +0.000 HD
BRANCH  17  19
ATOM     19  C   UNL     1       2.159   8.099  18.515  0.00  0.00    +0.000 C 
ATOM     20  S   UNL     1       2.821   9.309  17.566  0.00  0.00    +0.000 S 
BRANCH  19  21
ATOM     21  N   UNL     1       1.538   8.501  19.698  0.00  0.00    +0.000 N 
ATOM     22  C   UNL     1       0.511   9.426  19.874  0.00  0.00    +0.000 C 
ATOM     23  O   UNL     1      -0.036   9.970  18.918  0.00  0.00    +0.000 OA
ATOM     24  H   UNL     1       1.874   8.045  20.536  0.00  0.00    +0.000 HD
BRANCH  22  25
ATOM     25  C   UNL     1       0.137   9.710  21.248  0.00  0.00    +0.000 A 
ATOM     26  C   UNL     1       0.491   9.053  22.413  0.00  0.00    +0.000 A 
ATOM     27  C   UNL     1      -0.183   9.696  23.475  0.00  0.00    +0.000 A 
ATOM     28  C   UNL     1      -0.917  10.706  22.900  0.00  0.00    +0.000 A 
ATOM     29  O   UNL     1      -0.723  10.736  21.551  0.00  0.00    +0.000 OA
ENDBRANCH  22  25
ENDBRANCH  19  21
ENDBRANCH  17  19
ENDBRANCH   7  17
TORSDOF 6
ENDMDL
MODEL 7
REMARK VINA RESULT:      -6.9      3.920      5.739
REMARK  Name = 
REMARK  7 active torsions:
REMARK  status: ('A' for Active; 'I' for Inactive)
REMARK    1  A    between atoms: C_1  and  C_2
REMARK    2  A    between atoms: C_5  and  S_6
REMARK    3  A    between atoms: S_6  and  N_9
REMARK    4  A    between atoms: C_16  and  N_17
REMARK    5  A    between atoms: N_17  and  C_18
REMARK    6  A    between atoms: C_18  and  N_20
REMARK    7  A    between atoms: C_21  and  C_23
REMARK                            x       y       z     vdW  Elec       q    Type
REMARK                         _______ _______ _______ _____ _____    ______ ____
ROOT
ATOM      1  C   UNL     1       3.260   2.692  18.247  0.00  0.00    +0.000 C 
ATOM      2  C   UNL     1       3.006   4.178  18.262  0.00  0.00    +0.000 A 
ATOM      3  C   UNL     1       1.708   4.598  17.920  0.00  0.00    +0.000 A 
ATOM      4  C   UNL     1       1.377   5.945  17.908  0.00  0.00    +0.000 A 
ATOM      5  C   UNL     1       2.342   6.891  18.244  0.00  0.00    +0.000 A 
ATOM      6  C   UNL     1       3.654   6.498  18.566  0.00  0.00    +0.000 A 
ATOM      7  C   UNL     1       4.000   5.137  18.588  0.00  0.00    +0.000 A 
ENDROOT
BRANCH   5   8
ATOM      8  S   UNL     1       1.900   8.617  18.095  0.00  0.00    +0.000 S 
ATOM      9  O   UNL     1       3.112   9.354  17.802  0.00  0.00    +0.000 OA
ATOM     10  O   UNL     1       0.756   8.687  17.206  0.00  0.00    +0.000 OA
BRANCH   8  11
ATOM     11  N   UNL     1       1.362   9.043  19.665  0.00  0.00    +0.000 NA
ATOM     12  C   UNL     1       0.049   9.738  19.732  0.00  0.00    +0.000 C 
ATOM     13  C   UNL     1      -0.205  10.305  21.127  0.00  0.00    +0.000 C 
ATOM     14  C   UNL     1      -0.064   9.225  22.191  0.00  0.00    +0.000 C 
ATOM     15  C   UNL     1       1.317   8.591  22.096  0.00  0.00    +0.000 C 
ATOM     16  C   UNL     1       1.558   8.005  20.708  0.00  0.00    +0.000 C 
ENDBRANCH   8  11
ENDBRANCH   5   8
BRANCH   7  17
ATOM     17  N   UNL     1       5.324   4.679  18.836  0.00  0.00    +0.000 N 
ATOM     18  H   UNL     1       5.397   4.015  19.606  0.00  0.00    +0.000 HD
BRANCH  17  19
ATOM     19  C   UNL     1       6.546   5.024  18.293  0.00  0.00    +0.000 C 
ATOM     20  S   UNL     1       7.891   5.630  19.085  0.00  0.00    +0.000 S 
BRANCH  19  21
ATOM     21  N   UNL     1       6.694   4.744  16.934  0.00  0.00    +0.000 N 
ATOM     22  C   UNL     1       6.452   5.573  15.841  0.00  0.00    +0.000 C 
ATOM     23  O   UNL     1       6.123   6.748  15.984  0.00  0.00    +0.000 OA
ATOM     24  H   UNL     1       7.037   3.817  16.722  0.00  0.00    +0.000 HD
BRANCH  22  25
ATOM     25  C   UNL     1       6.604   4.964  14.532  0.00  0.00    +0.000 A 
ATOM     26  C   UNL     1       5.947   3.876  13.983  0.00  0.00    +0.000 A 
ATOM     27  C   UNL     1       6.501   3.658  12.702  0.00  0.00    +0.000 A 
ATOM     28  C   UNL     1       7.471   4.619  12.541  0.00  0.00    +0.000 A 
ATOM     29  O   UNL     1       7.536   5.427  13.637  0.00  0.00    +0.000 OA
ENDBRANCH  22  25
ENDBRANCH  19  21
ENDBRANCH  17  19
ENDBRANCH   7  17
TORSDOF 6
ENDMDL
MODEL 8
REMARK VINA RESULT:      -6.9      4.070      7.269
REMARK  Name = 
REMARK  7 active torsions:
REMARK  status: ('A' for Active; 'I' for Inactive)
REMARK    1  A    between atoms: C_1  and  C_2
REMARK    2  A    between atoms: C_5  and  S_6
REMARK    3  A    between atoms: S_6  and  N_9
REMARK    4  A    between atoms: C_16  and  N_17
REMARK    5  A    between atoms: N_17  and  C_18
REMARK    6  A    between atoms: C_18  and  N_20
REMARK    7  A    between atoms: C_21  and  C_23
REMARK                            x       y       z     vdW  Elec       q    Type
REMARK                         _______ _______ _______ _____ _____    ______ ____
ROOT
ATOM      1  C   UNL     1       1.002   3.855  19.956  0.00  0.00    +0.000 C 
ATOM      2  C   UNL     1       2.095   4.172  18.967  0.00  0.00    +0.000 A 
ATOM      3  C   UNL     1       2.659   3.081  18.283  0.00  0.00    +0.000 A 
ATOM      4  C   UNL     1       3.670   3.271  17.352  0.00  0.00    +0.000 A 
ATOM      5  C   UNL     1       4.127   4.561  17.090  0.00  0.00    +0.000 A 
ATOM      6  C   UNL     1       3.596   5.666  17.781  0.00  0.00    +0.000 A 
ATOM      7  C   UNL     1       2.569   5.487  18.720  0.00  0.00    +0.000 A 
ENDROOT
BRANCH   5   8
ATOM      8  S   UNL     1       5.512   4.741  15.975  0.00  0.00    +0.000 S 
ATOM      9  O   UNL     1       5.998   3.413  15.664  0.00  0.00    +0.000 OA
ATOM     10  O   UNL     1       5.092   5.643  14.918  0.00  0.00    +0.000 OA
BRANCH   8  11
ATOM     11  N   UNL     1       6.694   5.555  16.911  0.00  0.00    +0.000 NA
ATOM     12  C   UNL     1       6.616   7.041  16.899  0.00  0.00    +0.000 C 
ATOM     13  C   UNL     1       7.858   7.662  17.535  0.00  0.00    +0.000 C 
ATOM     14  C   UNL     1       8.098   7.103  18.930  0.00  0.00    +0.000 C 
ATOM     15  C   UNL     1       8.215   5.586  18.860  0.00  0.00    +0.000 C 
ATOM     16  C   UNL     1       6.963   4.967  18.246  0.00  0.00    +0.000 C 
ENDBRANCH   8  11
ENDBRANCH   5   8
BRANCH   7  17
ATOM     17  N   UNL     1       2.039   6.552  19.501  0.00  0.00    +0.000 N 
ATOM     18  H   UNL     1       1.568   6.249  20.353  0.00  0.00    +0.000 HD
BRANCH  17  19
ATOM     19  C   UNL     1       1.962   7.914  19.289  0.00  0.00    +0.000 C 
ATOM     20  S   UNL     1       2.554   8.790  17.990  0.00  0.00    +0.000 S 
BRANCH  19  21
ATOM     21  N   UNL     1       1.221   8.623  20.236  0.00  0.00    +0.000 N 
ATOM     22  C   UNL     1       0.224   9.574  20.031  0.00  0.00    +0.000 C 
ATOM     23  O   UNL     1      -0.178   9.852  18.904  0.00  0.00    +0.000 OA
ATOM     24  H   UNL     1       1.433   8.400  21.200  0.00  0.00    +0.000 HD
BRANCH  22  25
ATOM     25  C   UNL     1      -0.300  10.216  21.222  0.00  0.00    +0.000 A 
ATOM     26  C   UNL     1      -0.488   9.700  22.493  0.00  0.00    +0.000 A 
ATOM     27  C   UNL     1      -1.075  10.721  23.274  0.00  0.00    +0.000 A 
ATOM     28  C   UNL     1      -1.219  11.802  22.436  0.00  0.00    +0.000 A 
ATOM     29  O   UNL     1      -0.741  11.516  21.192  0.00  0.00    +0.000 OA
ENDBRANCH  22  25
ENDBRANCH  19  21
ENDBRANCH  17  19
ENDBRANCH   7  17
TORSDOF 6
ENDMDL
MODEL 9
REMARK VINA RESULT:      -6.9      5.574      8.116
REMARK  Name = 
REMARK  7 active torsions:
REMARK  status: ('A' for Active; 'I' for Inactive)
REMARK    1  A    between atoms: C_1  and  C_2
REMARK    2  A    between atoms: C_5  and  S_6
REMARK    3  A    between atoms: S_6  and  N_9
REMARK    4  A    between atoms: C_16  and  N_17
REMARK    5  A    between atoms: N_17  and  C_18
REMARK    6  A    between atoms: C_18  and  N_20
REMARK    7  A    between atoms: C_21  and  C_23
REMARK                            x       y       z     vdW  Elec       q    Type
REMARK                         _______ _______ _______ _____ _____    ______ ____
ROOT
ATOM      1  C   UNL     1       2.073  10.299  17.878  0.00  0.00    +0.000 C 
ATOM      2  C   UNL     1       1.997   8.988  18.620  0.00  0.00    +0.000 A 
ATOM      3  C   UNL     1       2.428   7.846  17.923  0.00  0.00    +0.000 A 
ATOM      4  C   UNL     1       2.399   6.595  18.522  0.00  0.00    +0.000 A 
ATOM      5  C   UNL     1       1.941   6.473  19.832  0.00  0.00    +0.000 A 
ATOM      6  C   UNL     1       1.481   7.598  20.541  0.00  0.00    +0.000 A 
ATOM      7  C   UNL     1       1.512   8.869  19.948  0.00  0.00    +0.000 A 
ENDROOT
BRANCH   5   8
ATOM      8  S   UNL     1       1.809   4.826  20.515  0.00  0.00    +0.000 S 
ATOM      9  O   UNL     1       2.584   4.796  21.737  0.00  0.00    +0.000 OA
ATOM     10  O   UNL     1       0.399   4.482  20.522  0.00  0.00    +0.000 OA
BRANCH   8  11
ATOM     11  N   UNL     1       2.578   3.832  19.350  0.00  0.00    +0.000 NA
ATOM     12  C   UNL     1       3.970   3.420  19.670  0.00  0.00    +0.000 C 
ATOM     13  C   UNL     1       4.645   2.774  18.463  0.00  0.00    +0.000 C 
ATOM     14  C   UNL     1       3.809   1.624  17.918  0.00  0.00    +0.000 C 
ATOM     15  C   UNL     1       2.416   2.127  17.567  0.00  0.00    +0.000 C 
ATOM     16  C   UNL     1       1.735   2.751  18.782  0.00  0.00    +0.000 C 
ENDBRANCH   8  11
ENDBRANCH   5   8
BRANCH   7  17
ATOM     17  N   UNL     1       0.997  10.033  20.585  0.00  0.00    +0.000 N 
ATOM     18  H   UNL     1       1.697  10.573  21.094  0.00  0.00    +0.000 HD
BRANCH  17  19
ATOM     19  C   UNL     1      -0.283  10.531  20.722  0.00  0.00    +0.000 C 
ATOM     20  S   UNL     1      -0.947  11.319  22.042  0.00  0.00    +0.000 S 
BRANCH  19  21
ATOM     21  N   UNL     1      -1.083  10.437  19.583  0.00  0.00    +0.000 N 
ATOM     22  C   UNL     1      -1.332  11.401  18.608  0.00  0.00    +0.000 C 
ATOM     23  O   UNL     1      -0.770  12.493  18.625  0.00  0.00    +0.000 OA
ATOM     24  H   UNL     1      -1.529   9.539  19.444  0.00  0.00    +0.000 HD
BRANCH  22  25
ATOM     25  C   UNL     1      -2.295  11.039  17.584  0.00  0.00    +0.000 A 
ATOM     26  C   UNL     1      -2.205  10.086  16.585  0.00  0.00    +0.000 A 
ATOM     27  C   UNL     1      -3.392  10.170  15.821  0.00  0.00    +0.000 A 
ATOM     28  C   UNL     1      -4.138  11.174  16.392  0.00  0.00    +0.000 A 
ATOM     29  O   UNL     1      -3.493  11.702  17.470  0.00  0.00    +0.000 OA
ENDBRANCH  22  25
ENDBRANCH  19  21
ENDBRANCH  17  19
ENDBRANCH   7  17
TORSDOF 6
ENDMDL
