MODEL 1
REMARK VINA RESULT:      -6.5      0.000      0.000
REMARK  Name = 
REMARK  12 active torsions:
REMARK  status: ('A' for Active; 'I' for Inactive)
REMARK    1  A    between atoms: C_1  and  C_2
REMARK    2  A    between atoms: C_2  and  C_3
REMARK    3  A    between atoms: C_3  and  N_4
REMARK    4  A    between atoms: C_5  and  C_6
REMARK    5  A    between atoms: N_10  and  C_11
REMARK    6  A    between atoms: C_11  and  C_12
REMARK    7  A    between atoms: C_12  and  C_13
REMARK    8  A    between atoms: C_13  and  C_14
REMARK    9  A    between atoms: C_14  and  N_15
REMARK   10  A    between atoms: N_15  and  C_16
REMARK   11  A    between atoms: N_15  and  C_17
REMARK   12  A    between atoms: C_19  and  C_20
REMARK                            x       y       z     vdW  Elec       q    Type
REMARK                         _______ _______ _______ _____ _____    ______ ____
ROOT
ATOM      1  N   UNL     1       2.976   4.641  18.100  0.00  0.00    +0.000 N 
ATOM      2  C   UNL     1       3.105   5.304  19.304  0.00  0.00    +0.000 A 
ATOM      3  C   UNL     1       2.062   5.295  20.363  0.00  0.00    +0.000 C 
ATOM      4  N   UNL     1       4.284   5.916  19.370  0.00  0.00    +0.000 NA
ATOM      5  C   UNL     1       4.930   5.648  18.163  0.00  0.00    +0.000 A 
ATOM      6  C   UNL     1       6.183   6.002  17.606  0.00  0.00    +0.000 A 
ATOM      7  N   UNL     1       7.171   6.702  18.276  0.00  0.00    +0.000 N 
ATOM      8  N   UNL     1       6.449   5.549  16.343  0.00  0.00    +0.000 NA
ATOM      9  C   UNL     1       5.561   4.768  15.695  0.00  0.00    +0.000 A 
ATOM     10  C   UNL     1       5.938   4.241  14.349  0.00  0.00    +0.000 C 
ATOM     11  N   UNL     1       4.355   4.383  16.150  0.00  0.00    +0.000 NA
ATOM     12  C   UNL     1       4.105   4.861  17.372  0.00  0.00    +0.000 A 
ATOM     13  H   UNL     1       6.924   6.990  19.226  0.00  0.00    +0.000 HD
ENDROOT
BRANCH   1  14
ATOM     14  C   UNL     1       1.876   3.812  17.645  0.00  0.00    +0.000 C 
BRANCH  14  16
ATOM     15  C   UNL     1       0.620   2.125  19.017  0.00  0.00    +0.000 C 
ATOM     16  C   UNL     1       1.910   2.418  18.268  0.00  0.00    +0.000 C 
ENDBRANCH  14  16
ENDBRANCH   1  14
BRANCH   7  17
ATOM     17  C   UNL     1       8.042   7.554  17.496  0.00  0.00    +0.000 C 
BRANCH  17  18
ATOM     18  C   UNL     1       7.804   9.038  17.809  0.00  0.00    +0.000 C 
BRANCH  18  19
ATOM     19  C   UNL     1       8.964   9.652  18.596  0.00  0.00    +0.000 C 
BRANCH  19  20
ATOM     20  C   UNL     1       9.077  11.173  18.415  0.00  0.00    +0.000 C 
BRANCH  20  21
ATOM     21  N   UNL     1       9.936  11.845  19.407  0.00  0.00    +0.000 NA
ATOM     22  C   UNL     1       9.631  11.435  20.780  0.00  0.00    +0.000 C 
ATOM     23  C   UNL     1      11.344  11.573  19.116  0.00  0.00    +0.000 C 
ENDBRANCH  20  21
ENDBRANCH  19  20
ENDBRANCH  18  19
ENDBRANCH  17  18
ENDBRANCH   7  17
TORSDOF 7
ENDMDL
MODEL 2
REMARK VINA RESULT:      -6.5      4.020      5.844
REMARK  Name = 
REMARK  12 active torsions:
REMARK  status: ('A' for Active; 'I' for Inactive)
REMARK    1  A    between atoms: C_1  and  C_2
REMARK    2  A    between atoms: C_2  and  C_3
REMARK    3  A    between atoms: C_3  and  N_4
REMARK    4  A    between atoms: C_5  and  C_6
REMARK    5  A    between atoms: N_10  and  C_11
REMARK    6  A    between atoms: C_11  and  C_12
REMARK    7  A    between atoms: C_12  and  C_13
REMARK    8  A    between atoms: C_13  and  C_14
REMARK    9  A    between atoms: C_14  and  N_15
REMARK   10  A    between atoms: N_15  and  C_16
REMARK   11  A    between atoms: N_15  and  C_17
REMARK   12  A    between atoms: C_19  and  C_20
REMARK                            x       y       z     vdW  Elec       q    Type
REMARK                         _______ _______ _______ _____ _____    ______ ____
ROOT
ATOM      1  N   UNL     1       3.384   3.887  19.697  0.00  0.00    +0.000 N 
ATOM      2  C   UNL     1       2.440   4.176  20.661  0.00  0.00    +0.000 A 
ATOM      3  C   UNL     1       2.013   3.212  21.708  0.00  0.00    +0.000 C 
ATOM      4  N   UNL     1       2.000   5.423  20.519  0.00  0.00    +0.000 NA
ATOM      5  C   UNL     1       2.677   5.951  19.418  0.00  0.00    +0.000 A 
ATOM      6  C   UNL     1       2.666   7.199  18.749  0.00  0.00    +0.000 A 
ATOM      7  N   UNL     1       1.951   8.308  19.166  0.00  0.00    +0.000 N 
ATOM      8  N   UNL     1       3.481   7.323  17.657  0.00  0.00    +0.000 NA
ATOM      9  C   UNL     1       4.281   6.304  17.282  0.00  0.00    +0.000 A 
ATOM     10  C   UNL     1       5.206   6.524  16.128  0.00  0.00    +0.000 C 
ATOM     11  N   UNL     1       4.356   5.093  17.861  0.00  0.00    +0.000 NA
ATOM     12  C   UNL     1       3.531   4.985  18.905  0.00  0.00    +0.000 A 
ATOM     13  H   UNL     1       1.381   8.161  20.003  0.00  0.00    +0.000 HD
ENDROOT
BRANCH   1  14
ATOM     14  C   UNL     1       4.148   2.666  19.526  0.00  0.00    +0.000 C 
BRANCH  14  16
ATOM     15  C   UNL     1       2.119   2.054  18.179  0.00  0.00    +0.000 C 
ATOM     16  C   UNL     1       3.601   1.797  18.395  0.00  0.00    +0.000 C 
ENDBRANCH  14  16
ENDBRANCH   1  14
BRANCH   7  17
ATOM     17  C   UNL     1       1.474   9.224  18.153  0.00  0.00    +0.000 C 
BRANCH  17  18
ATOM     18  C   UNL     1       1.099  10.585  18.758  0.00  0.00    +0.000 C 
BRANCH  18  19
ATOM     19  C   UNL     1       0.040  10.452  19.855  0.00  0.00    +0.000 C 
BRANCH  19  20
ATOM     20  C   UNL     1       0.336  11.321  21.086  0.00  0.00    +0.000 C 
BRANCH  20  21
ATOM     21  N   UNL     1       0.131  10.640  22.378  0.00  0.00    +0.000 NA
ATOM     22  C   UNL     1      -1.132  11.021  23.016  0.00  0.00    +0.000 C 
ATOM     23  C   UNL     1       0.166   9.189  22.191  0.00  0.00    +0.000 C 
ENDBRANCH  20  21
ENDBRANCH  19  20
ENDBRANCH  18  19
ENDBRANCH  17  18
ENDBRANCH   7  17
TORSDOF 7
ENDMDL
MODEL 3
REMARK VINA RESULT:      -6.5      1.680      2.501
REMARK  Name = 
REMARK  12 active torsions:
REMARK  status: ('A' for Active; 'I' for Inactive)
REMARK    1  A    between atoms: C_1  and  C_2
REMARK    2  A    between atoms: C_2  and  C_3
REMARK    3  A    between atoms: C_3  and  N_4
REMARK    4  A    between atoms: C_5  and  C_6
REMARK    5  A    between atoms: N_10  and  C_11
REMARK    6  A    between atoms: C_11  and  C_12
REMARK    7  A    between atoms: C_12  and  C_13
REMARK    8  A    between atoms: C_13  and  C_14
REMARK    9  A    between atoms: C_14  and  N_15
REMARK   10  A    between atoms: N_15  and  C_16
REMARK   11  A    between atoms: N_15  and  C_17
REMARK   12  A    between atoms: C_19  and  C_20
REMARK                            x       y       z     vdW  Elec       q    Type
REMARK                         _______ _______ _______ _____ _____    ______ ____
ROOT
ATOM      1  N   UNL     1       3.325   4.125  19.726  0.00  0.00    +0.000 N 
ATOM      2  C   UNL     1       4.430   3.303  19.649  0.00  0.00    +0.000 A 
ATOM      3  C   UNL     1       4.517   1.978  20.317  0.00  0.00    +0.000 C 
ATOM      4  N   UNL     1       5.370   3.860  18.891  0.00  0.00    +0.000 NA
ATOM      5  C   UNL     1       4.855   5.088  18.474  0.00  0.00    +0.000 A 
ATOM      6  C   UNL     1       5.340   6.148  17.670  0.00  0.00    +0.000 A 
ATOM      7  N   UNL     1       6.542   6.128  16.984  0.00  0.00    +0.000 N 
ATOM      8  N   UNL     1       4.519   7.231  17.512  0.00  0.00    +0.000 NA
ATOM      9  C   UNL     1       3.292   7.245  18.070  0.00  0.00    +0.000 A 
ATOM     10  C   UNL     1       2.410   8.422  17.800  0.00  0.00    +0.000 C 
ATOM     11  N   UNL     1       2.754   6.284  18.841  0.00  0.00    +0.000 NA
ATOM     12  C   UNL     1       3.584   5.251  19.006  0.00  0.00    +0.000 A 
ATOM     13  H   UNL     1       7.100   5.281  17.121  0.00  0.00    +0.000 HD
ENDROOT
BRANCH   1  14
ATOM     14  C   UNL     1       2.066   3.877  20.403  0.00  0.00    +0.000 C 
BRANCH  14  16
ATOM     15  C   UNL     1       1.020   2.157  18.902  0.00  0.00    +0.000 C 
ATOM     16  C   UNL     1       0.933   3.582  19.423  0.00  0.00    +0.000 C 
ENDBRANCH  14  16
ENDBRANCH   1  14
BRANCH   7  17
ATOM     17  C   UNL     1       7.228   7.386  16.784  0.00  0.00    +0.000 C 
BRANCH  17  18
ATOM     18  C   UNL     1       7.989   7.817  18.046  0.00  0.00    +0.000 C 
BRANCH  18  19
ATOM     19  C   UNL     1       8.206   9.331  18.095  0.00  0.00    +0.000 C 
BRANCH  19  20
ATOM     20  C   UNL     1       9.367   9.744  19.012  0.00  0.00    +0.000 C 
BRANCH  20  21
ATOM     21  N   UNL     1       9.352  11.162  19.416  0.00  0.00    +0.000 NA
ATOM     22  C   UNL     1       9.205  11.329  20.864  0.00  0.00    +0.000 C 
ATOM     23  C   UNL     1      10.579  11.823  18.969  0.00  0.00    +0.000 C 
ENDBRANCH  20  21
ENDBRANCH  19  20
ENDBRANCH  18  19
ENDBRANCH  17  18
ENDBRANCH   7  17
TORSDOF 7
ENDMDL
MODEL 4
REMARK VINA RESULT:      -6.4      0.783      1.050
REMARK  Name = 
REMARK  12 active torsions:
REMARK  status: ('A' for Active; 'I' for Inactive)
REMARK    1  A    between atoms: C_1  and  C_2
REMARK    2  A    between atoms: C_2  and  C_3
REMARK    3  A    between atoms: C_3  and  N_4
REMARK    4  A    between atoms: C_5  and  C_6
REMARK    5  A    between atoms: N_10  and  C_11
REMARK    6  A    between atoms: C_11  and  C_12
REMARK    7  A    between atoms: C_12  and  C_13
REMARK    8  A    between atoms: C_13  and  C_14
REMARK    9  A    between atoms: C_14  and  N_15
REMARK   10  A    between atoms: N_15  and  C_16
REMARK   11  A    between atoms: N_15  and  C_17
REMARK   12  A    between atoms: C_19  and  C_20
REMARK                            x       y       z     vdW  Elec       q    Type
REMARK                         _______ _______ _______ _____ _____    ______ ____
ROOT
ATOM      1  N   UNL     1       3.394   4.357  17.975  0.00  0.00    +0.000 N 
ATOM      2  C   UNL     1       3.464   4.991  19.198  0.00  0.00    +0.000 A 
ATOM      3  C   UNL     1       2.443   4.831  20.266  0.00  0.00    +0.000 C 
ATOM      4  N   UNL     1       4.567   5.730  19.274  0.00  0.00    +0.000 NA
ATOM      5  C   UNL     1       5.223   5.575  18.052  0.00  0.00    +0.000 A 
ATOM      6  C   UNL     1       6.421   6.085  17.495  0.00  0.00    +0.000 A 
ATOM      7  N   UNL     1       7.333   6.871  18.178  0.00  0.00    +0.000 N 
ATOM      8  N   UNL     1       6.720   5.706  16.215  0.00  0.00    +0.000 NA
ATOM      9  C   UNL     1       5.917   4.850  15.551  0.00  0.00    +0.000 A 
ATOM     10  C   UNL     1       6.333   4.412  14.184  0.00  0.00    +0.000 C 
ATOM     11  N   UNL     1       4.768   4.318  16.004  0.00  0.00    +0.000 NA
ATOM     12  C   UNL     1       4.482   4.725  17.244  0.00  0.00    +0.000 A 
ATOM     13  H   UNL     1       7.067   7.099  19.139  0.00  0.00    +0.000 HD
ENDROOT
BRANCH   1  14
ATOM     14  C   UNL     1       2.389   3.423  17.504  0.00  0.00    +0.000 C 
BRANCH  14  16
ATOM     15  C   UNL     1       3.686   1.410  18.259  0.00  0.00    +0.000 C 
ATOM     16  C   UNL     1       2.357   2.142  18.335  0.00  0.00    +0.000 C 
ENDBRANCH  14  16
ENDBRANCH   1  14
BRANCH   7  17
ATOM     17  C   UNL     1       8.092   7.840  17.419  0.00  0.00    +0.000 C 
BRANCH  17  18
ATOM     18  C   UNL     1       7.851   9.268  17.929  0.00  0.00    +0.000 C 
BRANCH  18  19
ATOM     19  C   UNL     1       8.963   9.737  18.869  0.00  0.00    +0.000 C 
BRANCH  19  20
ATOM     20  C   UNL     1       9.747  10.939  18.323  0.00  0.00    +0.000 C 
BRANCH  20  21
ATOM     21  N   UNL     1      10.030  11.989  19.319  0.00  0.00    +0.000 NA
ATOM     22  C   UNL     1      11.417  11.953  19.791  0.00  0.00    +0.000 C 
ATOM     23  C   UNL     1       9.739  13.307  18.755  0.00  0.00    +0.000 C 
ENDBRANCH  20  21
ENDBRANCH  19  20
ENDBRANCH  18  19
ENDBRANCH  17  18
ENDBRANCH   7  17
TORSDOF 7
ENDMDL
MODEL 5
REMARK VINA RESULT:      -6.4      1.350      1.625
REMARK  Name = 
REMARK  12 active torsions:
REMARK  status: ('A' for Active; 'I' for Inactive)
REMARK    1  A    between atoms: C_1  and  C_2
REMARK    2  A    between atoms: C_2  and  C_3
REMARK    3  A    between atoms: C_3  and  N_4
REMARK    4  A    between atoms: C_5  and  C_6
REMARK    5  A    between atoms: N_10  and  C_11
REMARK    6  A    between atoms: C_11  and  C_12
REMARK    7  A    between atoms: C_12  and  C_13
REMARK    8  A    between atoms: C_13  and  C_14
REMARK    9  A    between atoms: C_14  and  N_15
REMARK   10  A    between atoms: N_15  and  C_16
REMARK   11  A    between atoms: N_15  and  C_17
REMARK   12  A    between atoms: C_19  and  C_20
REMARK                            x       y       z     vdW  Elec       q    Type
REMARK                         _______ _______ _______ _____ _____    ______ ____
ROOT
ATOM      1  N   UNL     1       4.508   3.829  18.171  0.00  0.00    +0.000 N 
ATOM      2  C   UNL     1       4.531   4.342  19.452  0.00  0.00    +0.000 A 
ATOM      3  C   UNL     1       3.665   3.843  20.553  0.00  0.00    +0.000 C 
ATOM      4  N   UNL     1       5.435   5.312  19.547  0.00  0.00    +0.000 NA
ATOM      5  C   UNL     1       6.007   5.435  18.279  0.00  0.00    +0.000 A 
ATOM      6  C   UNL     1       7.004   6.267  17.715  0.00  0.00    +0.000 A 
ATOM      7  N   UNL     1       7.764   7.178  18.429  0.00  0.00    +0.000 N 
ATOM      8  N   UNL     1       7.276   6.094  16.386  0.00  0.00    +0.000 NA
ATOM      9  C   UNL     1       6.640   5.139  15.677  0.00  0.00    +0.000 A 
ATOM     10  C   UNL     1       7.032   4.945  14.248  0.00  0.00    +0.000 C 
ATOM     11  N   UNL     1       5.686   4.307  16.133  0.00  0.00    +0.000 NA
ATOM     12  C   UNL     1       5.418   4.514  17.425  0.00  0.00    +0.000 A 
ATOM     13  H   UNL     1       7.532   7.244  19.423  0.00  0.00    +0.000 HD
ENDROOT
BRANCH   1  14
ATOM     14  C   UNL     1       3.710   2.732  17.657  0.00  0.00    +0.000 C 
BRANCH  14  16
ATOM     15  C   UNL     1       1.317   3.216  18.244  0.00  0.00    +0.000 C 
ATOM     16  C   UNL     1       2.355   3.201  17.133  0.00  0.00    +0.000 C 
ENDBRANCH  14  16
ENDBRANCH   1  14
BRANCH   7  17
ATOM     17  C   UNL     1       8.213   8.369  17.741  0.00  0.00    +0.000 C 
BRANCH  17  18
ATOM     18  C   UNL     1       8.790   9.401  18.720  0.00  0.00    +0.000 C 
BRANCH  18  19
ATOM     19  C   UNL     1       9.096  10.734  18.034  0.00  0.00    +0.000 C 
BRANCH  19  20
ATOM     20  C   UNL     1       9.312  11.886  19.026  0.00  0.00    +0.000 C 
BRANCH  20  21
ATOM     21  N   UNL     1      10.544  12.664  18.800  0.00  0.00    +0.000 NA
ATOM     22  C   UNL     1      11.457  12.006  17.862  0.00  0.00    +0.000 C 
ATOM     23  C   UNL     1      10.210  13.999  18.303  0.00  0.00    +0.000 C 
ENDBRANCH  20  21
ENDBRANCH  19  20
ENDBRANCH  18  19
ENDBRANCH  17  18
ENDBRANCH   7  17
TORSDOF 7
ENDMDL
MODEL 6
REMARK VINA RESULT:      -6.3      1.741      2.750
REMARK  Name = 
REMARK  12 active torsions:
REMARK  status: ('A' for Active; 'I' for Inactive)
REMARK    1  A    between atoms: C_1  and  C_2
REMARK    2  A    between atoms: C_2  and  C_3
REMARK    3  A    between atoms: C_3  and  N_4
REMARK    4  A    between atoms: C_5  and  C_6
REMARK    5  A    between atoms: N_10  and  C_11
REMARK    6  A    between atoms: C_11  and  C_12
REMARK    7  A    between atoms: C_12  and  C_13
REMARK    8  A    between atoms: C_13  and  C_14
REMARK    9  A    between atoms: C_14  and  N_15
REMARK   10  A    between atoms: N_15  and  C_16
REMARK   11  A    between atoms: N_15  and  C_17
REMARK   12  A    between atoms: C_19  and  C_20
REMARK                            x       y       z     vdW  Elec       q    Type
REMARK                         _______ _______ _______ _____ _____    ______ ____
ROOT
ATOM      1  N   UNL     1       2.667   4.027  18.526  0.00  0.00    +0.000 N 
ATOM      2  C   UNL     1       3.767   3.215  18.337  0.00  0.00    +0.000 A 
ATOM      3  C   UNL     1       3.760   1.750  18.590  0.00  0.00    +0.000 C 
ATOM      4  N   UNL     1       4.796   3.927  17.889  0.00  0.00    +0.000 NA
ATOM      5  C   UNL     1       4.346   5.245  17.798  0.00  0.00    +0.000 A 
ATOM      6  C   UNL     1       4.935   6.471  17.403  0.00  0.00    +0.000 A 
ATOM      7  N   UNL     1       6.212   6.599  16.883  0.00  0.00    +0.000 N 
ATOM      8  N   UNL     1       4.149   7.588  17.478  0.00  0.00    +0.000 NA
ATOM      9  C   UNL     1       2.862   7.493  17.872  0.00  0.00    +0.000 A 
ATOM     10  C   UNL     1       2.030   8.734  17.862  0.00  0.00    +0.000 C 
ATOM     11  N   UNL     1       2.226   6.373  18.258  0.00  0.00    +0.000 NA
ATOM     12  C   UNL     1       3.021   5.301  18.204  0.00  0.00    +0.000 A 
ATOM     13  H   UNL     1       6.741   5.725  16.827  0.00  0.00    +0.000 HD
ENDROOT
BRANCH   1  14
ATOM     14  C   UNL     1       1.333   3.647  18.951  0.00  0.00    +0.000 C 
BRANCH  14  16
ATOM     15  C   UNL     1       1.425   2.783  21.307  0.00  0.00    +0.000 C 
ATOM     16  C   UNL     1       1.083   3.970  20.422  0.00  0.00    +0.000 C 
ENDBRANCH  14  16
ENDBRANCH   1  14
BRANCH   7  17
ATOM     17  C   UNL     1       6.927   7.829  17.143  0.00  0.00    +0.000 C 
BRANCH  17  18
ATOM     18  C   UNL     1       8.079   7.611  18.135  0.00  0.00    +0.000 C 
BRANCH  18  19
ATOM     19  C   UNL     1       8.514   8.917  18.804  0.00  0.00    +0.000 C 
BRANCH  19  20
ATOM     20  C   UNL     1       8.973   9.985  17.801  0.00  0.00    +0.000 C 
BRANCH  20  21
ATOM     21  N   UNL     1       9.553  11.192  18.416  0.00  0.00    +0.000 NA
ATOM     22  C   UNL     1       8.803  12.406  18.083  0.00  0.00    +0.000 C 
ATOM     23  C   UNL     1       9.611  11.036  19.870  0.00  0.00    +0.000 C 
ENDBRANCH  20  21
ENDBRANCH  19  20
ENDBRANCH  18  19
ENDBRANCH  17  18
ENDBRANCH   7  17
TORSDOF 7
ENDMDL
MODEL 7
REMARK VINA RESULT:      -6.3      0.811      1.136
REMARK  Name = 
REMARK  12 active torsions:
REMARK  status: ('A' for Active; 'I' for Inactive)
REMARK    1  A    between atoms: C_1  and  C_2
REMARK    2  A    between atoms: C_2  and  C_3
REMARK    3  A    between atoms: C_3  and  N_4
REMARK    4  A    between atoms: C_5  and  C_6
REMARK    5  A    between atoms: N_10  and  C_11
REMARK    6  A    between atoms: C_11  and  C_12
REMARK    7  A    between atoms: C_12  and  C_13
REMARK    8  A    between atoms: C_13  and  C_14
REMARK    9  A    between atoms: C_14  and  N_15
REMARK   10  A    between atoms: N_15  and  C_16
REMARK   11  A    between atoms: N_15  and  C_17
REMARK   12  A    between atoms: C_19  and  C_20
REMARK                            x       y       z     vdW  Elec       q    Type
REMARK                         _______ _______ _______ _____ _____    ______ ____
ROOT
ATOM      1  N   UNL     1       2.870   4.606  18.189  0.00  0.00    +0.000 N 
ATOM      2  C   UNL     1       2.971   5.282  19.388  0.00  0.00    +0.000 A 
ATOM      3  C   UNL     1       1.918   5.259  20.437  0.00  0.00    +0.000 C 
ATOM      4  N   UNL     1       4.134   5.923  19.461  0.00  0.00    +0.000 NA
ATOM      5  C   UNL     1       4.799   5.659  18.263  0.00  0.00    +0.000 A 
ATOM      6  C   UNL     1       6.049   6.037  17.716  0.00  0.00    +0.000 A 
ATOM      7  N   UNL     1       7.014   6.767  18.390  0.00  0.00    +0.000 N 
ATOM      8  N   UNL     1       6.339   5.580  16.460  0.00  0.00    +0.000 NA
ATOM      9  C   UNL     1       5.476   4.772  15.811  0.00  0.00    +0.000 A 
ATOM     10  C   UNL     1       5.880   4.241  14.473  0.00  0.00    +0.000 C 
ATOM     11  N   UNL     1       4.275   4.363  16.257  0.00  0.00    +0.000 NA
ATOM     12  C   UNL     1       4.002   4.845  17.471  0.00  0.00    +0.000 A 
ATOM     13  H   UNL     1       6.749   7.058  19.334  0.00  0.00    +0.000 HD
ENDROOT
BRANCH   1  14
ATOM     14  C   UNL     1       1.795   3.746  17.732  0.00  0.00    +0.000 C 
BRANCH  14  16
ATOM     15  C   UNL     1       1.607   1.873  19.394  0.00  0.00    +0.000 C 
ATOM     16  C   UNL     1       2.081   2.271  18.006  0.00  0.00    +0.000 C 
ENDBRANCH  14  16
ENDBRANCH   1  14
BRANCH   7  17
ATOM     17  C   UNL     1       7.872   7.633  17.611  0.00  0.00    +0.000 C 
BRANCH  17  18
ATOM     18  C   UNL     1       8.606   8.645  18.501  0.00  0.00    +0.000 C 
BRANCH  18  19
ATOM     19  C   UNL     1       8.592  10.053  17.901  0.00  0.00    +0.000 C 
BRANCH  19  20
ATOM     20  C   UNL     1       9.565  11.015  18.597  0.00  0.00    +0.000 C 
BRANCH  20  21
ATOM     21  N   UNL     1       9.315  12.442  18.324  0.00  0.00    +0.000 NA
ATOM     22  C   UNL     1       8.158  12.650  17.450  0.00  0.00    +0.000 C 
ATOM     23  C   UNL     1       9.115  13.166  19.581  0.00  0.00    +0.000 C 
ENDBRANCH  20  21
ENDBRANCH  19  20
ENDBRANCH  18  19
ENDBRANCH  17  18
ENDBRANCH   7  17
TORSDOF 7
ENDMDL
MODEL 8
REMARK VINA RESULT:      -6.2      4.435      6.795
REMARK  Name = 
REMARK  12 active torsions:
REMARK  status: ('A' for Active; 'I' for Inactive)
REMARK    1  A    between atoms: C_1  and  C_2
REMARK    2  A    between atoms: C_2  and  C_3
REMARK    3  A    between atoms: C_3  and  N_4
REMARK    4  A    between atoms: C_5  and  C_6
REMARK    5  A    between atoms: N_10  and  C_11
REMARK    6  A    between atoms: C_11  and  C_12
REMARK    7  A    between atoms: C_12  and  C_13
REMARK    8  A    between atoms: C_13  and  C_14
REMARK    9  A    between atoms: C_14  and  N_15
REMARK   10  A    between atoms: N_15  and  C_16
REMARK   11  A    between atoms: N_15  and  C_17
REMARK   12  A    between atoms: C_19  and  C_20
REMARK                            x       y       z     vdW  Elec       q    Type
REMARK                         _______ _______ _______ _____ _____    ______ ____
ROOT
ATOM      1  N   UNL     1       3.273   3.943  19.711  0.00  0.00    +0.000 N 
ATOM      2  C   UNL     1       2.313   4.245  20.655  0.00  0.00    +0.000 A 
ATOM      3  C   UNL     1       1.861   3.293  21.703  0.00  0.00    +0.000 C 
ATOM      4  N   UNL     1       1.882   5.493  20.493  0.00  0.00    +0.000 NA
ATOM      5  C   UNL     1       2.582   6.007  19.400  0.00  0.00    +0.000 A 
ATOM      6  C   UNL     1       2.589   7.249  18.720  0.00  0.00    +0.000 A 
ATOM      7  N   UNL     1       1.872   8.366  19.114  0.00  0.00    +0.000 N 
ATOM      8  N   UNL     1       3.425   7.359  17.642  0.00  0.00    +0.000 NA
ATOM      9  C   UNL     1       4.226   6.333  17.291  0.00  0.00    +0.000 A 
ATOM     10  C   UNL     1       5.173   6.538  16.153  0.00  0.00    +0.000 C 
ATOM     11  N   UNL     1       4.285   5.127  17.882  0.00  0.00    +0.000 NA
ATOM     12  C   UNL     1       3.440   5.033  18.912  0.00  0.00    +0.000 A 
ATOM     13  H   UNL     1       1.286   8.229  19.941  0.00  0.00    +0.000 HD
ENDROOT
BRANCH   1  14
ATOM     14  C   UNL     1       4.034   2.716  19.566  0.00  0.00    +0.000 C 
BRANCH  14  16
ATOM     15  C   UNL     1       2.046   2.077  18.172  0.00  0.00    +0.000 C 
ATOM     16  C   UNL     1       3.531   1.860  18.405  0.00  0.00    +0.000 C 
ENDBRANCH  14  16
ENDBRANCH   1  14
BRANCH   7  17
ATOM     17  C   UNL     1       1.419   9.275  18.084  0.00  0.00    +0.000 C 
BRANCH  17  18
ATOM     18  C   UNL     1       0.551  10.399  18.668  0.00  0.00    +0.000 C 
BRANCH  18  19
ATOM     19  C   UNL     1      -0.915  10.267  18.250  0.00  0.00    +0.000 C 
BRANCH  19  20
ATOM     20  C   UNL     1      -1.554  11.609  17.863  0.00  0.00    +0.000 C 
BRANCH  20  21
ATOM     21  N   UNL     1      -3.025  11.634  17.953  0.00  0.00    +0.000 NA
ATOM     22  C   UNL     1      -3.630  10.346  17.605  0.00  0.00    +0.000 C 
ATOM     23  C   UNL     1      -3.438  12.019  19.304  0.00  0.00    +0.000 C 
ENDBRANCH  20  21
ENDBRANCH  19  20
ENDBRANCH  18  19
ENDBRANCH  17  18
ENDBRANCH   7  17
TORSDOF 7
ENDMDL
MODEL 9
REMARK VINA RESULT:      -6.2      5.435      8.243
REMARK  Name = 
REMARK  12 active torsions:
REMARK  status: ('A' for Active; 'I' for Inactive)
REMARK    1  A    between atoms: C_1  and  C_2
REMARK    2  A    between atoms: C_2  and  C_3
REMARK    3  A    between atoms: C_3  and  N_4
REMARK    4  A    between atoms: C_5  and  C_6
REMARK    5  A    between atoms: N_10  and  C_11
REMARK    6  A    between atoms: C_11  and  C_12
REMARK    7  A    between atoms: C_12  and  C_13
REMARK    8  A    between atoms: C_13  and  C_14
REMARK    9  A    between atoms: C_14  and  N_15
REMARK   10  A    between atoms: N_15  and  C_16
REMARK   11  A    between atoms: N_15  and  C_17
REMARK   12  A    between atoms: C_19  and  C_20
REMARK                            x       y       z     vdW  Elec       q    Type
REMARK                         _______ _______ _______ _____ _____    ______ ____
ROOT
ATOM      1  N   UNL     1       2.408   6.624  19.625  0.00  0.00    +0.000 N 
ATOM      2  C   UNL     1       2.840   6.883  18.340  0.00  0.00    +0.000 A 
ATOM      3  C   UNL     1       3.632   5.921  17.530  0.00  0.00    +0.000 C 
ATOM      4  N   UNL     1       2.432   8.086  17.948  0.00  0.00    +0.000 NA
ATOM      5  C   UNL     1       1.722   8.624  19.022  0.00  0.00    +0.000 A 
ATOM      6  C   UNL     1       1.047   9.847  19.255  0.00  0.00    +0.000 A 
ATOM      7  N   UNL     1       0.866  10.838  18.305  0.00  0.00    +0.000 N 
ATOM      8  N   UNL     1       0.477  10.015  20.487  0.00  0.00    +0.000 NA
ATOM      9  C   UNL     1       0.531   9.029  21.405  0.00  0.00    +0.000 A 
ATOM     10  C   UNL     1      -0.176   9.239  22.706  0.00  0.00    +0.000 C 
ATOM     11  N   UNL     1       1.145   7.841  21.266  0.00  0.00    +0.000 NA
ATOM     12  C   UNL     1       1.719   7.711  20.067  0.00  0.00    +0.000 A 
ATOM     13  H   UNL     1       1.293  10.644  17.396  0.00  0.00    +0.000 HD
ENDROOT
BRANCH   1  14
ATOM     14  C   UNL     1       2.589   5.415  20.406  0.00  0.00    +0.000 C 
BRANCH  14  16
ATOM     15  C   UNL     1       1.541   3.284  21.223  0.00  0.00    +0.000 C 
ATOM     16  C   UNL     1       1.412   4.453  20.261  0.00  0.00    +0.000 C 
ENDBRANCH  14  16
ENDBRANCH   1  14
BRANCH   7  17
ATOM     17  C   UNL     1       0.802  12.209  18.763  0.00  0.00    +0.000 C 
BRANCH  17  18
ATOM     18  C   UNL     1      -0.497  12.892  18.312  0.00  0.00    +0.000 C 
BRANCH  18  19
ATOM     19  C   UNL     1      -1.716  12.370  19.077  0.00  0.00    +0.000 C 
BRANCH  19  20
ATOM     20  C   UNL     1      -2.828  11.849  18.155  0.00  0.00    +0.000 C 
BRANCH  20  21
ATOM     21  N   UNL     1      -2.434  10.711  17.304  0.00  0.00    +0.000 NA
ATOM     22  C   UNL     1      -3.145   9.479  17.654  0.00  0.00    +0.000 C 
ATOM     23  C   UNL     1      -2.674  11.032  15.897  0.00  0.00    +0.000 C 
ENDBRANCH  20  21
ENDBRANCH  19  20
ENDBRANCH  18  19
ENDBRANCH  17  18
ENDBRANCH   7  17
TORSDOF 7
ENDMDL
