MODEL 1
REMARK VINA RESULT:      -7.4      0.000      0.000
REMARK  Name = 
REMARK  11 active torsions:
REMARK  status: ('A' for Active; 'I' for Inactive)
REMARK    1  A    between atoms: C_1  and  C_2
REMARK    2  A    between atoms: C_2  and  C_3
REMARK    3  A    between atoms: C_3  and  O_4
REMARK    4  A    between atoms: C_26  and  C_27
REMARK    5  A    between atoms: C_27  and  C_28
REMARK    6  A    between atoms: C_28  and  N_29
REMARK    7  A    between atoms: N_29  and  C_30
REMARK    8  A    between atoms: C_30  and  C_31
REMARK    9  A    between atoms: C_31  and  O_32
REMARK   10  A    between atoms: O_32  and  C_33
REMARK   11  A    between atoms: C_33  and  C_34
REMARK                            x       y       z     vdW  Elec       q    Type
REMARK                         _______ _______ _______ _____ _____    ______ ____
ROOT
ATOM      1  C   UNL     1       0.603  12.003  19.315  0.00  0.00    +0.000 C 
ATOM      2  C   UNL     1      -0.709  11.746  20.138  0.00  0.00    +0.000 C 
ATOM      3  O   UNL     1      -1.868  11.852  19.749  0.00  0.00    +0.000 OA
ATOM      4  O   UNL     1      -0.441  11.035  21.256  0.00  0.00    +0.000 OA
ATOM      5  C   UNL     1      -0.539   9.720  20.769  0.00  0.00    +0.000 C 
ATOM      6  C   UNL     1       0.506   9.508  19.693  0.00  0.00    +0.000 A 
ATOM      7  C   UNL     1       0.981  10.446  18.819  0.00  0.00    +0.000 A 
ATOM      8  C   UNL     1       2.075   9.858  17.841  0.00  0.00    +0.000 A 
ATOM      9  C   UNL     1       2.662   8.618  18.034  0.00  0.00    +0.000 A 
ATOM     10  N   UNL     1       2.294   7.989  19.208  0.00  0.00    +0.000 N 
ATOM     11  C   UNL     1       1.208   8.252  19.963  0.00  0.00    +0.000 A 
ATOM     12  O   UNL     1       0.888   7.510  20.894  0.00  0.00    +0.000 OA
ATOM     13  C   UNL     1       3.155   6.933  19.635  0.00  0.00    +0.000 C 
ATOM     14  C   UNL     1       3.993   6.636  18.464  0.00  0.00    +0.000 A 
ATOM     15  C   UNL     1       3.689   7.558  17.435  0.00  0.00    +0.000 A 
ATOM     16  N   UNL     1       4.101   7.288  16.182  0.00  0.00    +0.000 NA
ATOM     17  C   UNL     1       4.912   6.158  15.975  0.00  0.00    +0.000 A 
ATOM     18  C   UNL     1       5.320   5.735  14.700  0.00  0.00    +0.000 A 
ATOM     19  C   UNL     1       6.184   4.629  14.438  0.00  0.00    +0.000 A 
ATOM     20  C   UNL     1       6.698   3.905  15.491  0.00  0.00    +0.000 A 
ATOM     21  C   UNL     1       6.298   4.249  16.774  0.00  0.00    +0.000 A 
ATOM     22  C   UNL     1       5.386   5.315  17.043  0.00  0.00    +0.000 A 
ATOM     23  C   UNL     1       4.880   5.540  18.331  0.00  0.00    +0.000 A 
ENDROOT
BRANCH   1  25
ATOM     24  C   UNL     1       1.217  14.721  18.808  0.00  0.00    +0.000 C 
ATOM     25  C   UNL     1       0.240  13.509  18.829  0.00  0.00    +0.000 C 
ENDBRANCH   1  25
BRANCH   1  26
ATOM     26  O   UNL     1       1.811  12.232  20.096  0.00  0.00    +0.000 OA
ATOM     27  H   UNL     1       2.534  12.531  19.522  0.00  0.00    +0.000 HD
ENDBRANCH   1  26
BRANCH  23  28
ATOM     28  C   UNL     1       5.324   4.654  19.514  0.00  0.00    +0.000 C 
BRANCH  28  29
ATOM     29  C   UNL     1       4.459   3.457  19.941  0.00  0.00    +0.000 C 
BRANCH  29  30
ATOM     30  N   UNL     1       4.868   2.172  19.339  0.00  0.00    +0.000 NA
ATOM     31  H   UNL     1       5.301   1.593  20.060  0.00  0.00    +0.000 HD
BRANCH  30  32
ATOM     32  C   UNL     1       3.651   1.490  18.856  0.00  0.00    +0.000 C 
BRANCH  32  33
ATOM     33  C   UNL     1       2.425   2.396  18.736  0.00  0.00    +0.000 C 
BRANCH  33  34
ATOM     34  O   UNL     1       1.408   1.989  19.676  0.00  0.00    +0.000 OA
BRANCH  34  35
ATOM     35  C   UNL     1       1.298   2.770  20.778  0.00  0.00    +0.000 C 
ATOM     36  C   UNL     1       0.837   4.157  20.428  0.00  0.00    +0.000 C 
ATOM     37  O   UNL     1       1.559   2.419  21.920  0.00  0.00    +0.000 OA
ENDBRANCH  34  35
ENDBRANCH  33  34
ENDBRANCH  32  33
ENDBRANCH  30  32
ENDBRANCH  29  30
ENDBRANCH  28  29
ENDBRANCH  23  28
TORSDOF 9
ENDMDL
MODEL 2
REMARK VINA RESULT:      -7.3      2.931      5.404
REMARK  Name = 
REMARK  11 active torsions:
REMARK  status: ('A' for Active; 'I' for Inactive)
REMARK    1  A    between atoms: C_1  and  C_2
REMARK    2  A    between atoms: C_2  and  C_3
REMARK    3  A    between atoms: C_3  and  O_4
REMARK    4  A    between atoms: C_26  and  C_27
REMARK    5  A    between atoms: C_27  and  C_28
REMARK    6  A    between atoms: C_28  and  N_29
REMARK    7  A    between atoms: N_29  and  C_30
REMARK    8  A    between atoms: C_30  and  C_31
REMARK    9  A    between atoms: C_31  and  O_32
REMARK   10  A    between atoms: O_32  and  C_33
REMARK   11  A    between atoms: C_33  and  C_34
REMARK                            x       y       z     vdW  Elec       q    Type
REMARK                         _______ _______ _______ _____ _____    ______ ____
ROOT
ATOM      1  C   UNL     1      -1.758  12.999  19.956  0.00  0.00    +0.000 C 
ATOM      2  C   UNL     1      -1.001  14.373  19.908  0.00  0.00    +0.000 C 
ATOM      3  O   UNL     1      -0.796  15.146  20.839  0.00  0.00    +0.000 OA
ATOM      4  O   UNL     1      -0.262  14.474  18.781  0.00  0.00    +0.000 OA
ATOM      5  C   UNL     1       0.940  13.873  19.191  0.00  0.00    +0.000 C 
ATOM      6  C   UNL     1       0.672  12.431  19.572  0.00  0.00    +0.000 A 
ATOM      7  C   UNL     1      -0.475  11.930  20.121  0.00  0.00    +0.000 A 
ATOM      8  C   UNL     1      -0.391  10.373  20.375  0.00  0.00    +0.000 A 
ATOM      9  C   UNL     1       0.622   9.583  19.856  0.00  0.00    +0.000 A 
ATOM     10  N   UNL     1       1.486  10.250  19.009  0.00  0.00    +0.000 N 
ATOM     11  C   UNL     1       1.675  11.582  18.926  0.00  0.00    +0.000 A 
ATOM     12  O   UNL     1       2.599  12.052  18.258  0.00  0.00    +0.000 OA
ATOM     13  C   UNL     1       2.273   9.417  18.156  0.00  0.00    +0.000 C 
ATOM     14  C   UNL     1       2.136   8.067  18.720  0.00  0.00    +0.000 A 
ATOM     15  C   UNL     1       1.223   8.109  19.799  0.00  0.00    +0.000 A 
ATOM     16  N   UNL     1       1.181   7.069  20.653  0.00  0.00    +0.000 NA
ATOM     17  C   UNL     1       1.967   5.939  20.366  0.00  0.00    +0.000 A 
ATOM     18  C   UNL     1       2.067   4.839  21.235  0.00  0.00    +0.000 A 
ATOM     19  C   UNL     1       2.806   3.647  20.970  0.00  0.00    +0.000 A 
ATOM     20  C   UNL     1       3.473   3.515  19.771  0.00  0.00    +0.000 A 
ATOM     21  C   UNL     1       3.446   4.585  18.889  0.00  0.00    +0.000 A 
ATOM     22  C   UNL     1       2.759   5.806  19.171  0.00  0.00    +0.000 A 
ATOM     23  C   UNL     1       2.878   6.923  18.333  0.00  0.00    +0.000 A 
ENDROOT
BRANCH   1  25
ATOM     24  C   UNL     1      -4.532  12.885  20.515  0.00  0.00    +0.000 C 
ATOM     25  C   UNL     1      -3.130  13.552  20.625  0.00  0.00    +0.000 C 
ENDBRANCH   1  25
BRANCH   1  26
ATOM     26  O   UNL     1      -2.240  12.492  18.678  0.00  0.00    +0.000 OA
ATOM     27  H   UNL     1      -1.934  11.582  18.536  0.00  0.00    +0.000 HD
ENDBRANCH   1  26
BRANCH  23  28
ATOM     28  C   UNL     1       3.735   6.857  17.052  0.00  0.00    +0.000 C 
BRANCH  28  29
ATOM     29  C   UNL     1       5.233   7.196  17.114  0.00  0.00    +0.000 C 
BRANCH  29  30
ATOM     30  N   UNL     1       6.044   6.543  16.068  0.00  0.00    +0.000 NA
ATOM     31  H   UNL     1       7.031   6.728  16.252  0.00  0.00    +0.000 HD
BRANCH  30  32
ATOM     32  C   UNL     1       5.814   5.087  16.157  0.00  0.00    +0.000 C 
BRANCH  32  33
ATOM     33  C   UNL     1       6.555   4.266  15.101  0.00  0.00    +0.000 C 
BRANCH  33  34
ATOM     34  O   UNL     1       7.626   5.044  14.523  0.00  0.00    +0.000 OA
BRANCH  34  35
ATOM     35  C   UNL     1       7.625   5.102  13.168  0.00  0.00    +0.000 C 
ATOM     36  C   UNL     1       6.774   4.017  12.569  0.00  0.00    +0.000 C 
ATOM     37  O   UNL     1       8.249   5.911  12.497  0.00  0.00    +0.000 OA
ENDBRANCH  34  35
ENDBRANCH  33  34
ENDBRANCH  32  33
ENDBRANCH  30  32
ENDBRANCH  29  30
ENDBRANCH  28  29
ENDBRANCH  23  28
TORSDOF 9
ENDMDL
MODEL 3
REMARK VINA RESULT:      -7.2      2.797      9.025
REMARK  Name = 
REMARK  11 active torsions:
REMARK  status: ('A' for Active; 'I' for Inactive)
REMARK    1  A    between atoms: C_1  and  C_2
REMARK    2  A    between atoms: C_2  and  C_3
REMARK    3  A    between atoms: C_3  and  O_4
REMARK    4  A    between atoms: C_26  and  C_27
REMARK    5  A    between atoms: C_27  and  C_28
REMARK    6  A    between atoms: C_28  and  N_29
REMARK    7  A    between atoms: N_29  and  C_30
REMARK    8  A    between atoms: C_30  and  C_31
REMARK    9  A    between atoms: C_31  and  O_32
REMARK   10  A    between atoms: O_32  and  C_33
REMARK   11  A    between atoms: C_33  and  C_34
REMARK                            x       y       z     vdW  Elec       q    Type
REMARK                         _______ _______ _______ _____ _____    ______ ____
ROOT
ATOM      1  C   UNL     1       2.802   4.890  18.046  0.00  0.00    +0.000 C 
ATOM      2  C   UNL     1       2.929   3.981  19.321  0.00  0.00    +0.000 C 
ATOM      3  O   UNL     1       3.955   3.527  19.816  0.00  0.00    +0.000 OA
ATOM      4  O   UNL     1       1.796   4.030  20.057  0.00  0.00    +0.000 OA
ATOM      5  C   UNL     1       2.053   5.143  20.875  0.00  0.00    +0.000 C 
ATOM      6  C   UNL     1       2.223   6.372  20.006  0.00  0.00    +0.000 A 
ATOM      7  C   UNL     1       2.742   6.414  18.742  0.00  0.00    +0.000 A 
ATOM      8  C   UNL     1       2.752   7.877  18.145  0.00  0.00    +0.000 A 
ATOM      9  C   UNL     1       2.072   8.931  18.732  0.00  0.00    +0.000 A 
ATOM     10  N   UNL     1       1.296   8.574  19.818  0.00  0.00    +0.000 N 
ATOM     11  C   UNL     1       1.409   7.455  20.562  0.00  0.00    +0.000 A 
ATOM     12  O   UNL     1       0.776   7.325  21.613  0.00  0.00    +0.000 OA
ATOM     13  C   UNL     1       0.290   9.516  20.191  0.00  0.00    +0.000 C 
ATOM     14  C   UNL     1       0.648  10.749  19.475  0.00  0.00    +0.000 A 
ATOM     15  C   UNL     1       1.763  10.491  18.643  0.00  0.00    +0.000 A 
ATOM     16  N   UNL     1       2.449  11.534  18.139  0.00  0.00    +0.000 NA
ATOM     17  C   UNL     1       1.957  12.831  18.371  0.00  0.00    +0.000 A 
ATOM     18  C   UNL     1       2.643  13.989  17.969  0.00  0.00    +0.000 A 
ATOM     19  C   UNL     1       2.165  15.325  18.132  0.00  0.00    +0.000 A 
ATOM     20  C   UNL     1       0.930  15.539  18.704  0.00  0.00    +0.000 A 
ATOM     21  C   UNL     1       0.223  14.435  19.159  0.00  0.00    +0.000 A 
ATOM     22  C   UNL     1       0.720  13.099  19.056  0.00  0.00    +0.000 A 
ATOM     23  C   UNL     1       0.057  12.023  19.663  0.00  0.00    +0.000 A 
ENDROOT
BRANCH   1  25
ATOM     24  C   UNL     1       4.854   4.314  16.181  0.00  0.00    +0.000 C 
ATOM     25  C   UNL     1       3.611   3.916  17.029  0.00  0.00    +0.000 C 
ENDBRANCH   1  25
BRANCH   1  26
ATOM     26  O   UNL     1       1.487   4.933  17.423  0.00  0.00    +0.000 OA
ATOM     27  H   UNL     1       1.558   5.228  16.501  0.00  0.00    +0.000 HD
ENDBRANCH   1  26
BRANCH  23  28
ATOM     28  C   UNL     1      -1.258  12.246  20.437  0.00  0.00    +0.000 C 
BRANCH  28  29
ATOM     29  C   UNL     1      -2.598  12.264  19.683  0.00  0.00    +0.000 C 
BRANCH  29  30
ATOM     30  N   UNL     1      -3.517  13.338  20.110  0.00  0.00    +0.000 NA
ATOM     31  H   UNL     1      -3.804  13.873  19.289  0.00  0.00    +0.000 HD
BRANCH  30  32
ATOM     32  C   UNL     1      -4.712  12.705  20.701  0.00  0.00    +0.000 C 
BRANCH  32  33
ATOM     33  C   UNL     1      -5.240  13.403  21.955  0.00  0.00    +0.000 C 
BRANCH  33  34
ATOM     34  O   UNL     1      -5.018  12.578  23.119  0.00  0.00    +0.000 OA
BRANCH  34  35
ATOM     35  C   UNL     1      -3.753  12.599  23.606  0.00  0.00    +0.000 C 
ATOM     36  C   UNL     1      -3.364  13.974  24.073  0.00  0.00    +0.000 C 
ATOM     37  O   UNL     1      -2.997  11.639  23.647  0.00  0.00    +0.000 OA
ENDBRANCH  34  35
ENDBRANCH  33  34
ENDBRANCH  32  33
ENDBRANCH  30  32
ENDBRANCH  29  30
ENDBRANCH  28  29
ENDBRANCH  23  28
TORSDOF 9
ENDMDL
MODEL 4
REMARK VINA RESULT:      -7.2      2.886      8.577
REMARK  Name = 
REMARK  11 active torsions:
REMARK  status: ('A' for Active; 'I' for Inactive)
REMARK    1  A    between atoms: C_1  and  C_2
REMARK    2  A    between atoms: C_2  and  C_3
REMARK    3  A    between atoms: C_3  and  O_4
REMARK    4  A    between atoms: C_26  and  C_27
REMARK    5  A    between atoms: C_27  and  C_28
REMARK    6  A    between atoms: C_28  and  N_29
REMARK    7  A    between atoms: N_29  and  C_30
REMARK    8  A    between atoms: C_30  and  C_31
REMARK    9  A    between atoms: C_31  and  O_32
REMARK   10  A    between atoms: O_32  and  C_33
REMARK   11  A    between atoms: C_33  and  C_34
REMARK                            x       y       z     vdW  Elec       q    Type
REMARK                         _______ _______ _______ _____ _____    ______ ____
ROOT
ATOM      1  C   UNL     1       2.708   4.893  18.011  0.00  0.00    +0.000 C 
ATOM      2  C   UNL     1       2.856   3.992  19.288  0.00  0.00    +0.000 C 
ATOM      3  O   UNL     1       3.886   3.506  19.745  0.00  0.00    +0.000 OA
ATOM      4  O   UNL     1       1.758   4.087  20.071  0.00  0.00    +0.000 OA
ATOM      5  C   UNL     1       2.088   5.198  20.866  0.00  0.00    +0.000 C 
ATOM      6  C   UNL     1       2.265   6.412  19.978  0.00  0.00    +0.000 A 
ATOM      7  C   UNL     1       2.732   6.425  18.693  0.00  0.00    +0.000 A 
ATOM      8  C   UNL     1       2.769   7.882  18.081  0.00  0.00    +0.000 A 
ATOM      9  C   UNL     1       2.152   8.964  18.685  0.00  0.00    +0.000 A 
ATOM     10  N   UNL     1       1.410   8.644  19.807  0.00  0.00    +0.000 N 
ATOM     11  C   UNL     1       1.514   7.529  20.556  0.00  0.00    +0.000 A 
ATOM     12  O   UNL     1       0.923   7.431  21.635  0.00  0.00    +0.000 OA
ATOM     13  C   UNL     1       0.455   9.626  20.211  0.00  0.00    +0.000 C 
ATOM     14  C   UNL     1       0.826  10.838  19.469  0.00  0.00    +0.000 A 
ATOM     15  C   UNL     1       1.895  10.533  18.594  0.00  0.00    +0.000 A 
ATOM     16  N   UNL     1       2.596  11.546  18.051  0.00  0.00    +0.000 NA
ATOM     17  C   UNL     1       2.161  12.862  18.289  0.00  0.00    +0.000 A 
ATOM     18  C   UNL     1       2.869  13.992  17.848  0.00  0.00    +0.000 A 
ATOM     19  C   UNL     1       2.447  15.345  18.016  0.00  0.00    +0.000 A 
ATOM     20  C   UNL     1       1.245  15.608  18.638  0.00  0.00    +0.000 A 
ATOM     21  C   UNL     1       0.520  14.534  19.133  0.00  0.00    +0.000 A 
ATOM     22  C   UNL     1       0.964  13.181  19.023  0.00  0.00    +0.000 A 
ATOM     23  C   UNL     1       0.289  12.134  19.668  0.00  0.00    +0.000 A 
ENDROOT
BRANCH   1  25
ATOM     24  C   UNL     1       4.762   4.164  16.202  0.00  0.00    +0.000 C 
ATOM     25  C   UNL     1       3.438   3.882  16.971  0.00  0.00    +0.000 C 
ENDBRANCH   1  25
BRANCH   1  26
ATOM     26  O   UNL     1       1.370   4.978  17.443  0.00  0.00    +0.000 OA
ATOM     27  H   UNL     1       0.895   4.141  17.566  0.00  0.00    +0.000 HD
ENDBRANCH   1  26
BRANCH  23  28
ATOM     28  C   UNL     1      -0.983  12.412  20.495  0.00  0.00    +0.000 C 
BRANCH  28  29
ATOM     29  C   UNL     1      -2.367  12.129  19.888  0.00  0.00    +0.000 C 
BRANCH  29  30
ATOM     30  N   UNL     1      -2.450  12.376  18.434  0.00  0.00    +0.000 NA
ATOM     31  H   UNL     1      -1.558  12.754  18.112  0.00  0.00    +0.000 HD
BRANCH  30  32
ATOM     32  C   UNL     1      -2.681  11.080  17.766  0.00  0.00    +0.000 C 
BRANCH  32  33
ATOM     33  C   UNL     1      -4.073  10.927  17.151  0.00  0.00    +0.000 C 
BRANCH  33  34
ATOM     34  O   UNL     1      -4.019  11.159  15.726  0.00  0.00    +0.000 OA
BRANCH  34  35
ATOM     35  C   UNL     1      -3.436  10.169  15.006  0.00  0.00    +0.000 C 
ATOM     36  C   UNL     1      -3.966  10.124  13.600  0.00  0.00    +0.000 C 
ATOM     37  O   UNL     1      -2.599   9.386  15.432  0.00  0.00    +0.000 OA
ENDBRANCH  34  35
ENDBRANCH  33  34
ENDBRANCH  32  33
ENDBRANCH  30  32
ENDBRANCH  29  30
ENDBRANCH  28  29
ENDBRANCH  23  28
TORSDOF 9
ENDMDL
MODEL 5
REMARK VINA RESULT:      -7.1      3.027      9.075
REMARK  Name = 
REMARK  11 active torsions:
REMARK  status: ('A' for Active; 'I' for Inactive)
REMARK    1  A    between atoms: C_1  and  C_2
REMARK    2  A    between atoms: C_2  and  C_3
REMARK    3  A    between atoms: C_3  and  O_4
REMARK    4  A    between atoms: C_26  and  C_27
REMARK    5  A    between atoms: C_27  and  C_28
REMARK    6  A    between atoms: C_28  and  N_29
REMARK    7  A    between atoms: N_29  and  C_30
REMARK    8  A    between atoms: C_30  and  C_31
REMARK    9  A    between atoms: C_31  and  O_32
REMARK   10  A    between atoms: O_32  and  C_33
REMARK   11  A    between atoms: C_33  and  C_34
REMARK                            x       y       z     vdW  Elec       q    Type
REMARK                         _______ _______ _______ _____ _____    ______ ____
ROOT
ATOM      1  C   UNL     1       2.688   5.048  17.999  0.00  0.00    +0.000 C 
ATOM      2  C   UNL     1       2.796   4.137  19.273  0.00  0.00    +0.000 C 
ATOM      3  O   UNL     1       3.813   3.655  19.763  0.00  0.00    +0.000 OA
ATOM      4  O   UNL     1       1.670   4.218  20.016  0.00  0.00    +0.000 OA
ATOM      5  C   UNL     1       1.963   5.324  20.832  0.00  0.00    +0.000 C 
ATOM      6  C   UNL     1       2.162   6.547  19.961  0.00  0.00    +0.000 A 
ATOM      7  C   UNL     1       2.675   6.574  18.694  0.00  0.00    +0.000 A 
ATOM      8  C   UNL     1       2.722   8.036  18.095  0.00  0.00    +0.000 A 
ATOM      9  C   UNL     1       2.075   9.109  18.685  0.00  0.00    +0.000 A 
ATOM     10  N   UNL     1       1.296   8.774  19.776  0.00  0.00    +0.000 N 
ATOM     11  C   UNL     1       1.382   7.653  20.520  0.00  0.00    +0.000 A 
ATOM     12  O   UNL     1       0.752   7.542  21.576  0.00  0.00    +0.000 OA
ATOM     13  C   UNL     1       0.319   9.745  20.154  0.00  0.00    +0.000 C 
ATOM     14  C   UNL     1       0.707  10.966  19.435  0.00  0.00    +0.000 A 
ATOM     15  C   UNL     1       1.809  10.677  18.597  0.00  0.00    +0.000 A 
ATOM     16  N   UNL     1       2.522  11.699  18.088  0.00  0.00    +0.000 NA
ATOM     17  C   UNL     1       2.068  13.010  18.322  0.00  0.00    +0.000 A 
ATOM     18  C   UNL     1       2.783  14.149  17.915  0.00  0.00    +0.000 A 
ATOM     19  C   UNL     1       2.344  15.497  18.080  0.00  0.00    +0.000 A 
ATOM     20  C   UNL     1       1.119  15.746  18.659  0.00  0.00    +0.000 A 
ATOM     21  C   UNL     1       0.384  14.663  19.119  0.00  0.00    +0.000 A 
ATOM     22  C   UNL     1       0.842  13.313  19.014  0.00  0.00    +0.000 A 
ATOM     23  C   UNL     1       0.153  12.256  19.625  0.00  0.00    +0.000 A 
ENDROOT
BRANCH   1  25
ATOM     24  C   UNL     1       4.840   4.325  16.305  0.00  0.00    +0.000 C 
ATOM     25  C   UNL     1       3.463   4.052  16.978  0.00  0.00    +0.000 C 
ENDBRANCH   1  25
BRANCH   1  26
ATOM     26  O   UNL     1       1.370   5.128  17.383  0.00  0.00    +0.000 OA
ATOM     27  H   UNL     1       1.218   6.016  17.022  0.00  0.00    +0.000 HD
ENDBRANCH   1  26
BRANCH  23  28
ATOM     28  C   UNL     1      -1.151  12.517  20.408  0.00  0.00    +0.000 C 
BRANCH  28  29
ATOM     29  C   UNL     1      -2.510  12.260  19.737  0.00  0.00    +0.000 C 
BRANCH  29  30
ATOM     30  N   UNL     1      -3.572  13.201  20.145  0.00  0.00    +0.000 NA
ATOM     31  H   UNL     1      -4.336  13.149  19.469  0.00  0.00    +0.000 HD
BRANCH  30  32
ATOM     32  C   UNL     1      -4.079  12.772  21.463  0.00  0.00    +0.000 C 
BRANCH  32  33
ATOM     33  C   UNL     1      -5.553  13.097  21.707  0.00  0.00    +0.000 C 
BRANCH  33  34
ATOM     34  O   UNL     1      -6.356  11.903  21.583  0.00  0.00    +0.000 OA
BRANCH  34  35
ATOM     35  C   UNL     1      -6.738  11.597  20.319  0.00  0.00    +0.000 C 
ATOM     36  C   UNL     1      -7.300  10.205  20.234  0.00  0.00    +0.000 C 
ATOM     37  O   UNL     1      -6.627  12.335  19.351  0.00  0.00    +0.000 OA
ENDBRANCH  34  35
ENDBRANCH  33  34
ENDBRANCH  32  33
ENDBRANCH  30  32
ENDBRANCH  29  30
ENDBRANCH  28  29
ENDBRANCH  23  28
TORSDOF 9
ENDMDL
MODEL 6
REMARK VINA RESULT:      -7.1      2.472      4.807
REMARK  Name = 
REMARK  11 active torsions:
REMARK  status: ('A' for Active; 'I' for Inactive)
REMARK    1  A    between atoms: C_1  and  C_2
REMARK    2  A    between atoms: C_2  and  C_3
REMARK    3  A    between atoms: C_3  and  O_4
REMARK    4  A    between atoms: C_26  and  C_27
REMARK    5  A    between atoms: C_27  and  C_28
REMARK    6  A    between atoms: C_28  and  N_29
REMARK    7  A    between atoms: N_29  and  C_30
REMARK    8  A    between atoms: C_30  and  C_31
REMARK    9  A    between atoms: C_31  and  O_32
REMARK   10  A    between atoms: O_32  and  C_33
REMARK   11  A    between atoms: C_33  and  C_34
REMARK                            x       y       z     vdW  Elec       q    Type
REMARK                         _______ _______ _______ _____ _____    ______ ____
ROOT
ATOM      1  C   UNL     1      -1.782  12.633  19.779  0.00  0.00    +0.000 C 
ATOM      2  C   UNL     1      -1.074  14.034  19.749  0.00  0.00    +0.000 C 
ATOM      3  O   UNL     1      -0.916  14.812  20.685  0.00  0.00    +0.000 OA
ATOM      4  O   UNL     1      -0.318  14.164  18.636  0.00  0.00    +0.000 OA
ATOM      5  C   UNL     1       0.897  13.606  19.069  0.00  0.00    +0.000 C 
ATOM      6  C   UNL     1       0.674  12.154  19.443  0.00  0.00    +0.000 A 
ATOM      7  C   UNL     1      -0.466  11.611  19.968  0.00  0.00    +0.000 A 
ATOM      8  C   UNL     1      -0.330  10.057  20.221  0.00  0.00    +0.000 A 
ATOM      9  C   UNL     1       0.720   9.306  19.720  0.00  0.00    +0.000 A 
ATOM     10  N   UNL     1       1.577  10.005  18.891  0.00  0.00    +0.000 N 
ATOM     11  C   UNL     1       1.719  11.343  18.815  0.00  0.00    +0.000 A 
ATOM     12  O   UNL     1       2.639  11.848  18.166  0.00  0.00    +0.000 OA
ATOM     13  C   UNL     1       2.410   9.203  18.053  0.00  0.00    +0.000 C 
ATOM     14  C   UNL     1       2.310   7.847  18.611  0.00  0.00    +0.000 A 
ATOM     15  C   UNL     1       1.374   7.854  19.672  0.00  0.00    +0.000 A 
ATOM     16  N   UNL     1       1.353   6.811  20.524  0.00  0.00    +0.000 NA
ATOM     17  C   UNL     1       2.185   5.710  20.251  0.00  0.00    +0.000 A 
ATOM     18  C   UNL     1       2.307   4.613  21.119  0.00  0.00    +0.000 A 
ATOM     19  C   UNL     1       3.094   3.449  20.866  0.00  0.00    +0.000 A 
ATOM     20  C   UNL     1       3.788   3.343  19.681  0.00  0.00    +0.000 A 
ATOM     21  C   UNL     1       3.740   4.414  18.801  0.00  0.00    +0.000 A 
ATOM     22  C   UNL     1       3.004   5.609  19.071  0.00  0.00    +0.000 A 
ATOM     23  C   UNL     1       3.100   6.732  18.237  0.00  0.00    +0.000 A 
ENDROOT
BRANCH   1  25
ATOM     24  C   UNL     1      -4.608  12.715  19.947  0.00  0.00    +0.000 C 
ATOM     25  C   UNL     1      -3.187  13.135  20.421  0.00  0.00    +0.000 C 
ENDBRANCH   1  25
BRANCH   1  26
ATOM     26  O   UNL     1      -2.221  12.113  18.491  0.00  0.00    +0.000 OA
ATOM     27  H   UNL     1      -2.922  12.672  18.121  0.00  0.00    +0.000 HD
ENDBRANCH   1  26
BRANCH  23  28
ATOM     28  C   UNL     1       3.984   6.699  16.973  0.00  0.00    +0.000 C 
BRANCH  28  29
ATOM     29  C   UNL     1       5.217   7.612  16.878  0.00  0.00    +0.000 C 
BRANCH  29  30
ATOM     30  N   UNL     1       6.478   6.896  16.601  0.00  0.00    +0.000 NA
ATOM     31  H   UNL     1       7.234   7.578  16.521  0.00  0.00    +0.000 HD
BRANCH  30  32
ATOM     32  C   UNL     1       6.760   6.012  17.748  0.00  0.00    +0.000 C 
BRANCH  32  33
ATOM     33  C   UNL     1       7.404   4.677  17.371  0.00  0.00    +0.000 C 
BRANCH  33  34
ATOM     34  O   UNL     1       7.434   4.522  15.936  0.00  0.00    +0.000 OA
BRANCH  34  35
ATOM     35  C   UNL     1       6.327   3.956  15.396  0.00  0.00    +0.000 C 
ATOM     36  C   UNL     1       6.285   4.137  13.905  0.00  0.00    +0.000 C 
ATOM     37  O   UNL     1       5.449   3.384  16.026  0.00  0.00    +0.000 OA
ENDBRANCH  34  35
ENDBRANCH  33  34
ENDBRANCH  32  33
ENDBRANCH  30  32
ENDBRANCH  29  30
ENDBRANCH  28  29
ENDBRANCH  23  28
TORSDOF 9
ENDMDL
MODEL 7
REMARK VINA RESULT:      -7.1      2.785      8.826
REMARK  Name = 
REMARK  11 active torsions:
REMARK  status: ('A' for Active; 'I' for Inactive)
REMARK    1  A    between atoms: C_1  and  C_2
REMARK    2  A    between atoms: C_2  and  C_3
REMARK    3  A    between atoms: C_3  and  O_4
REMARK    4  A    between atoms: C_26  and  C_27
REMARK    5  A    between atoms: C_27  and  C_28
REMARK    6  A    between atoms: C_28  and  N_29
REMARK    7  A    between atoms: N_29  and  C_30
REMARK    8  A    between atoms: C_30  and  C_31
REMARK    9  A    between atoms: C_31  and  O_32
REMARK   10  A    between atoms: O_32  and  C_33
REMARK   11  A    between atoms: C_33  and  C_34
REMARK                            x       y       z     vdW  Elec       q    Type
REMARK                         _______ _______ _______ _____ _____    ______ ____
ROOT
ATOM      1  C   UNL     1       2.709   4.903  18.043  0.00  0.00    +0.000 C 
ATOM      2  C   UNL     1       2.852   4.001  19.321  0.00  0.00    +0.000 C 
ATOM      3  O   UNL     1       3.883   3.528  19.789  0.00  0.00    +0.000 OA
ATOM      4  O   UNL     1       1.743   4.080  20.089  0.00  0.00    +0.000 OA
ATOM      5  C   UNL     1       2.048   5.193  20.891  0.00  0.00    +0.000 C 
ATOM      6  C   UNL     1       2.220   6.412  20.007  0.00  0.00    +0.000 A 
ATOM      7  C   UNL     1       2.703   6.433  18.729  0.00  0.00    +0.000 A 
ATOM      8  C   UNL     1       2.728   7.891  18.119  0.00  0.00    +0.000 A 
ATOM      9  C   UNL     1       2.088   8.964  18.718  0.00  0.00    +0.000 A 
ATOM     10  N   UNL     1       1.337   8.632  19.829  0.00  0.00    +0.000 N 
ATOM     11  C   UNL     1       1.446   7.516  20.578  0.00  0.00    +0.000 A 
ATOM     12  O   UNL     1       0.843   7.409  21.648  0.00  0.00    +0.000 OA
ATOM     13  C   UNL     1       0.363   9.600  20.223  0.00  0.00    +0.000 C 
ATOM     14  C   UNL     1       0.727  10.819  19.487  0.00  0.00    +0.000 A 
ATOM     15  C   UNL     1       1.811  10.530  18.626  0.00  0.00    +0.000 A 
ATOM     16  N   UNL     1       2.506  11.553  18.094  0.00  0.00    +0.000 NA
ATOM     17  C   UNL     1       2.049  12.863  18.329  0.00  0.00    +0.000 A 
ATOM     18  C   UNL     1       2.748  14.003  17.899  0.00  0.00    +0.000 A 
ATOM     19  C   UNL     1       2.305  15.350  18.064  0.00  0.00    +0.000 A 
ATOM     20  C   UNL     1       1.092  15.595  18.671  0.00  0.00    +0.000 A 
ATOM     21  C   UNL     1       0.375  14.511  19.155  0.00  0.00    +0.000 A 
ATOM     22  C   UNL     1       0.838  13.164  19.048  0.00  0.00    +0.000 A 
ATOM     23  C   UNL     1       0.170  12.107  19.682  0.00  0.00    +0.000 A 
ENDROOT
BRANCH   1  25
ATOM     24  C   UNL     1       4.826   4.180  16.306  0.00  0.00    +0.000 C 
ATOM     25  C   UNL     1       3.466   3.904  17.011  0.00  0.00    +0.000 C 
ENDBRANCH   1  25
BRANCH   1  26
ATOM     26  O   UNL     1       1.377   4.971  17.458  0.00  0.00    +0.000 OA
ATOM     27  H   UNL     1       0.907   5.758  17.775  0.00  0.00    +0.000 HD
ENDBRANCH   1  26
BRANCH  23  28
ATOM     28  C   UNL     1      -1.117  12.365  20.493  0.00  0.00    +0.000 C 
BRANCH  28  29
ATOM     29  C   UNL     1      -2.488  12.267  19.805  0.00  0.00    +0.000 C 
BRANCH  29  30
ATOM     30  N   UNL     1      -2.417  12.074  18.343  0.00  0.00    +0.000 NA
ATOM     31  H   UNL     1      -1.511  11.664  18.108  0.00  0.00    +0.000 HD
BRANCH  30  32
ATOM     32  C   UNL     1      -3.478  11.122  17.958  0.00  0.00    +0.000 C 
BRANCH  32  33
ATOM     33  C   UNL     1      -4.441  11.649  16.894  0.00  0.00    +0.000 C 
BRANCH  33  34
ATOM     34  O   UNL     1      -5.808  11.427  17.302  0.00  0.00    +0.000 OA
BRANCH  34  35
ATOM     35  C   UNL     1      -6.112  11.863  18.549  0.00  0.00    +0.000 C 
ATOM     36  C   UNL     1      -6.736  10.774  19.377  0.00  0.00    +0.000 C 
ATOM     37  O   UNL     1      -5.933  12.999  18.962  0.00  0.00    +0.000 OA
ENDBRANCH  34  35
ENDBRANCH  33  34
ENDBRANCH  32  33
ENDBRANCH  30  32
ENDBRANCH  29  30
ENDBRANCH  28  29
ENDBRANCH  23  28
TORSDOF 9
ENDMDL
MODEL 8
REMARK VINA RESULT:      -7.0      2.758      5.130
REMARK  Name = 
REMARK  11 active torsions:
REMARK  status: ('A' for Active; 'I' for Inactive)
REMARK    1  A    between atoms: C_1  and  C_2
REMARK    2  A    between atoms: C_2  and  C_3
REMARK    3  A    between atoms: C_3  and  O_4
REMARK    4  A    between atoms: C_26  and  C_27
REMARK    5  A    between atoms: C_27  and  C_28
REMARK    6  A    between atoms: C_28  and  N_29
REMARK    7  A    between atoms: N_29  and  C_30
REMARK    8  A    between atoms: C_30  and  C_31
REMARK    9  A    between atoms: C_31  and  O_32
REMARK   10  A    between atoms: O_32  and  C_33
REMARK   11  A    between atoms: C_33  and  C_34
REMARK                            x       y       z     vdW  Elec       q    Type
REMARK                         _______ _______ _______ _____ _____    ______ ____
ROOT
ATOM      1  C   UNL     1      -1.604  12.227  19.986  0.00  0.00    +0.000 C 
ATOM      2  C   UNL     1      -0.878  13.604  19.787  0.00  0.00    +0.000 C 
ATOM      3  O   UNL     1      -0.602  14.435  20.646  0.00  0.00    +0.000 OA
ATOM      4  O   UNL     1      -0.247  13.644  18.592  0.00  0.00    +0.000 OA
ATOM      5  C   UNL     1       0.997  13.083  18.924  0.00  0.00    +0.000 C 
ATOM      6  C   UNL     1       0.790  11.664  19.414  0.00  0.00    +0.000 A 
ATOM      7  C   UNL     1      -0.294  11.185  20.096  0.00  0.00    +0.000 A 
ATOM      8  C   UNL     1      -0.161   9.647  20.434  0.00  0.00    +0.000 A 
ATOM      9  C   UNL     1       0.813   8.839  19.871  0.00  0.00    +0.000 A 
ATOM     10  N   UNL     1       1.586   9.462  18.909  0.00  0.00    +0.000 N 
ATOM     11  C   UNL     1       1.743  10.789  18.731  0.00  0.00    +0.000 A 
ATOM     12  O   UNL     1       2.594  11.227  17.953  0.00  0.00    +0.000 OA
ATOM     13  C   UNL     1       2.305   8.588  18.039  0.00  0.00    +0.000 C 
ATOM     14  C   UNL     1       2.243   7.273  18.693  0.00  0.00    +0.000 A 
ATOM     15  C   UNL     1       1.431   7.371  19.847  0.00  0.00    +0.000 A 
ATOM     16  N   UNL     1       1.485   6.384  20.762  0.00  0.00    +0.000 NA
ATOM     17  C   UNL     1       2.260   5.247  20.472  0.00  0.00    +0.000 A 
ATOM     18  C   UNL     1       2.458   4.204  21.392  0.00  0.00    +0.000 A 
ATOM     19  C   UNL     1       3.190   3.007  21.131  0.00  0.00    +0.000 A 
ATOM     20  C   UNL     1       3.746   2.808  19.886  0.00  0.00    +0.000 A 
ATOM     21  C   UNL     1       3.621   3.823  18.948  0.00  0.00    +0.000 A 
ATOM     22  C   UNL     1       2.942   5.051  19.219  0.00  0.00    +0.000 A 
ATOM     23  C   UNL     1       2.965   6.116  18.308  0.00  0.00    +0.000 A 
ENDROOT
BRANCH   1  25
ATOM     24  C   UNL     1      -4.352  12.897  20.143  0.00  0.00    +0.000 C 
ATOM     25  C   UNL     1      -2.919  12.804  20.744  0.00  0.00    +0.000 C 
ENDBRANCH   1  25
BRANCH   1  26
ATOM     26  O   UNL     1      -2.193  11.638  18.791  0.00  0.00    +0.000 OA
ATOM     27  H   UNL     1      -2.626  10.796  19.005  0.00  0.00    +0.000 HD
ENDBRANCH   1  26
BRANCH  23  28
ATOM     28  C   UNL     1       3.702   5.981  16.960  0.00  0.00    +0.000 C 
BRANCH  28  29
ATOM     29  C   UNL     1       5.231   6.130  16.905  0.00  0.00    +0.000 C 
BRANCH  29  30
ATOM     30  N   UNL     1       5.777   6.256  15.539  0.00  0.00    +0.000 NA
ATOM     31  H   UNL     1       6.231   7.167  15.448  0.00  0.00    +0.000 HD
BRANCH  30  32
ATOM     32  C   UNL     1       6.795   5.203  15.357  0.00  0.00    +0.000 C 
BRANCH  32  33
ATOM     33  C   UNL     1       6.249   3.889  14.795  0.00  0.00    +0.000 C 
BRANCH  33  34
ATOM     34  O   UNL     1       5.386   4.147  13.667  0.00  0.00    +0.000 OA
BRANCH  34  35
ATOM     35  C   UNL     1       5.738   3.516  12.519  0.00  0.00    +0.000 C 
ATOM     36  C   UNL     1       7.133   3.879  12.095  0.00  0.00    +0.000 C 
ATOM     37  O   UNL     1       5.018   2.762  11.881  0.00  0.00    +0.000 OA
ENDBRANCH  34  35
ENDBRANCH  33  34
ENDBRANCH  32  33
ENDBRANCH  30  32
ENDBRANCH  29  30
ENDBRANCH  28  29
ENDBRANCH  23  28
TORSDOF 9
ENDMDL
MODEL 9
REMARK VINA RESULT:      -7.0      3.192      9.183
REMARK  Name = 
REMARK  11 active torsions:
REMARK  status: ('A' for Active; 'I' for Inactive)
REMARK    1  A    between atoms: C_1  and  C_2
REMARK    2  A    between atoms: C_2  and  C_3
REMARK    3  A    between atoms: C_3  and  O_4
REMARK    4  A    between atoms: C_26  and  C_27
REMARK    5  A    between atoms: C_27  and  C_28
REMARK    6  A    between atoms: C_28  and  N_29
REMARK    7  A    between atoms: N_29  and  C_30
REMARK    8  A    between atoms: C_30  and  C_31
REMARK    9  A    between atoms: C_31  and  O_32
REMARK   10  A    between atoms: O_32  and  C_33
REMARK   11  A    between atoms: C_33  and  C_34
REMARK                            x       y       z     vdW  Elec       q    Type
REMARK                         _______ _______ _______ _____ _____    ______ ____
ROOT
ATOM      1  C   UNL     1       2.781   4.916  17.940  0.00  0.00    +0.000 C 
ATOM      2  C   UNL     1       2.997   3.989  19.189  0.00  0.00    +0.000 C 
ATOM      3  O   UNL     1       4.057   3.543  19.614  0.00  0.00    +0.000 OA
ATOM      4  O   UNL     1       1.909   4.008  19.992  0.00  0.00    +0.000 OA
ATOM      5  C   UNL     1       2.199   5.112  20.812  0.00  0.00    +0.000 C 
ATOM      6  C   UNL     1       2.298   6.357  19.955  0.00  0.00    +0.000 A 
ATOM      7  C   UNL     1       2.741   6.428  18.664  0.00  0.00    +0.000 A 
ATOM      8  C   UNL     1       2.694   7.900  18.091  0.00  0.00    +0.000 A 
ATOM      9  C   UNL     1       2.035   8.934  18.736  0.00  0.00    +0.000 A 
ATOM     10  N   UNL     1       1.331   8.547  19.860  0.00  0.00    +0.000 N 
ATOM     11  C   UNL     1       1.504   7.418  20.577  0.00  0.00    +0.000 A 
ATOM     12  O   UNL     1       0.938   7.263  21.662  0.00  0.00    +0.000 OA
ATOM     13  C   UNL     1       0.336   9.468  20.308  0.00  0.00    +0.000 C 
ATOM     14  C   UNL     1       0.632  10.718  19.593  0.00  0.00    +0.000 A 
ATOM     15  C   UNL     1       1.699  10.490  18.692  0.00  0.00    +0.000 A 
ATOM     16  N   UNL     1       2.339  11.551  18.166  0.00  0.00    +0.000 NA
ATOM     17  C   UNL     1       1.843  12.837  18.448  0.00  0.00    +0.000 A 
ATOM     18  C   UNL     1       2.486  14.012  18.026  0.00  0.00    +0.000 A 
ATOM     19  C   UNL     1       2.000  15.337  18.239  0.00  0.00    +0.000 A 
ATOM     20  C   UNL     1       0.798  15.523  18.888  0.00  0.00    +0.000 A 
ATOM     21  C   UNL     1       0.137  14.401  19.366  0.00  0.00    +0.000 A 
ATOM     22  C   UNL     1       0.645  13.075  19.211  0.00  0.00    +0.000 A 
ATOM     23  C   UNL     1       0.035  11.979  19.837  0.00  0.00    +0.000 A 
ENDROOT
BRANCH   1  25
ATOM     24  C   UNL     1       4.935   4.250  16.225  0.00  0.00    +0.000 C 
ATOM     25  C   UNL     1       3.541   3.971  16.860  0.00  0.00    +0.000 C 
ENDBRANCH   1  25
BRANCH   1  26
ATOM     26  O   UNL     1       1.430   4.949  17.397  0.00  0.00    +0.000 OA
ATOM     27  H   UNL     1       0.821   4.458  17.972  0.00  0.00    +0.000 HD
ENDBRANCH   1  26
BRANCH  23  28
ATOM     28  C   UNL     1      -1.234  12.170  20.693  0.00  0.00    +0.000 C 
BRANCH  28  29
ATOM     29  C   UNL     1      -1.121  12.252  22.224  0.00  0.00    +0.000 C 
BRANCH  29  30
ATOM     30  N   UNL     1      -2.361  11.897  22.941  0.00  0.00    +0.000 NA
ATOM     31  H   UNL     1      -2.235  12.093  23.935  0.00  0.00    +0.000 HD
BRANCH  30  32
ATOM     32  C   UNL     1      -3.446  12.755  22.426  0.00  0.00    +0.000 C 
BRANCH  32  33
ATOM     33  C   UNL     1      -4.454  13.201  23.487  0.00  0.00    +0.000 C 
BRANCH  33  34
ATOM     34  O   UNL     1      -5.490  12.208  23.642  0.00  0.00    +0.000 OA
BRANCH  34  35
ATOM     35  C   UNL     1      -6.757  12.680  23.546  0.00  0.00    +0.000 C 
ATOM     36  C   UNL     1      -7.378  12.332  22.222  0.00  0.00    +0.000 C 
ATOM     37  O   UNL     1      -7.334  13.330  24.406  0.00  0.00    +0.000 OA
ENDBRANCH  34  35
ENDBRANCH  33  34
ENDBRANCH  32  33
ENDBRANCH  30  32
ENDBRANCH  29  30
ENDBRANCH  28  29
ENDBRANCH  23  28
TORSDOF 9
ENDMDL
