MODEL 1
REMARK VINA RESULT:      -7.9      0.000      0.000
REMARK  Name = 
REMARK  6 active torsions:
REMARK  status: ('A' for Active; 'I' for Inactive)
REMARK    1  A    between atoms: C_2  and  OXT_3
REMARK    2  A    between atoms: C_2  and  CA_4
REMARK    3  A    between atoms: C_9  and  C_10
REMARK    4  A    between atoms: N_12  and  C_13
REMARK    5  A    between atoms: C_13  and  C_14
REMARK    6  A    between atoms: C_14  and  C_15
REMARK                            x       y       z     vdW  Elec       q    Type
REMARK                         _______ _______ _______ _____ _____    ______ ____
ROOT
ATOM      1  C   UNL     1       5.592   5.340  18.851  0.00  0.00    +0.000 C 
ATOM      2  O   UNL     1       6.191   4.842  19.795  0.00  0.00    +0.000 OA
ATOM      3  N   UNL     1       4.442   6.082  19.077  0.00  0.00    +0.000 N 
ATOM      4  H   UNL     1       4.205   6.159  20.059  0.00  0.00    +0.000 HD
ENDROOT
BRANCH   1  10
ATOM      5  CA  UNL     1       7.030   6.070  16.896  0.00  0.00    +0.000 A 
ATOM      6  N   UNL     1       7.508   5.896  15.611  0.00  0.00    +0.000 NA
ATOM      7  C   UNL     1       7.090   4.774  14.978  0.00  0.00    +0.000 A 
ATOM      8  C   UNL     1       6.181   3.904  15.543  0.00  0.00    +0.000 A 
ATOM      9  N   UNL     1       5.662   4.113  16.772  0.00  0.00    +0.000 NA
ATOM     10  C   UNL     1       6.122   5.200  17.469  0.00  0.00    +0.000 A 
BRANCH   5  12
ATOM     11  O   UNL     1       7.589   8.389  17.282  0.00  0.00    +0.000 OA
ATOM     12  C   UNL     1       7.658   7.217  17.601  0.00  0.00    +0.000 C 
BRANCH  12  13
ATOM     13  OXT UNL     1       8.252   6.786  18.747  0.00  0.00    +0.000 OA
ATOM     14  HXT UNL     1       8.038   7.402  19.488  0.00  0.00    +0.000 HD
ENDBRANCH  12  13
ENDBRANCH   5  12
ENDBRANCH   1  10
BRANCH   3  15
ATOM     15  C   UNL     1       3.644   6.839  18.117  0.00  0.00    +0.000 C 
BRANCH  15  16
ATOM     16  C   UNL     1       2.271   6.214  17.833  0.00  0.00    +0.000 C 
BRANCH  16  17
ATOM     17  C   UNL     1       2.194   4.741  18.103  0.00  0.00    +0.000 A 
ATOM     18  C   UNL     1       2.200   3.718  17.175  0.00  0.00    +0.000 A 
ATOM     19  N   UNL     1       2.062   2.530  17.839  0.00  0.00    +0.000 N 
ATOM     20  C   UNL     1       1.965   2.748  19.192  0.00  0.00    +0.000 A 
ATOM     21  C   UNL     1       1.788   1.835  20.240  0.00  0.00    +0.000 A 
ATOM     22  C   UNL     1       1.711   2.346  21.539  0.00  0.00    +0.000 A 
ATOM     23  C   UNL     1       1.816   3.714  21.777  0.00  0.00    +0.000 A 
ATOM     24  C   UNL     1       1.990   4.612  20.717  0.00  0.00    +0.000 A 
ATOM     25  C   UNL     1       2.060   4.125  19.394  0.00  0.00    +0.000 A 
ATOM     26  H   UNL     1       2.020   1.620  17.402  0.00  0.00    +0.000 HD
ENDBRANCH  16  17
ENDBRANCH  15  16
ENDBRANCH   3  15
TORSDOF 6
ENDMDL
MODEL 2
REMARK VINA RESULT:      -7.7      3.123      4.557
REMARK  Name = 
REMARK  6 active torsions:
REMARK  status: ('A' for Active; 'I' for Inactive)
REMARK    1  A    between atoms: C_2  and  OXT_3
REMARK    2  A    between atoms: C_2  and  CA_4
REMARK    3  A    between atoms: C_9  and  C_10
REMARK    4  A    between atoms: N_12  and  C_13
REMARK    5  A    between atoms: C_13  and  C_14
REMARK    6  A    between atoms: C_14  and  C_15
REMARK                            x       y       z     vdW  Elec       q    Type
REMARK                         _______ _______ _______ _____ _____    ______ ____
ROOT
ATOM      1  C   UNL     1       4.875   4.080  19.041  0.00  0.00    +0.000 C 
ATOM      2  O   UNL     1       5.148   3.093  19.712  0.00  0.00    +0.000 OA
ATOM      3  N   UNL     1       3.888   4.955  19.469  0.00  0.00    +0.000 N 
ATOM      4  H   UNL     1       3.476   4.687  20.355  0.00  0.00    +0.000 HD
ENDROOT
BRANCH   1  10
ATOM      5  CA  UNL     1       6.765   5.169  17.751  0.00  0.00    +0.000 A 
ATOM      6  N   UNL     1       7.451   5.407  16.574  0.00  0.00    +0.000 NA
ATOM      7  C   UNL     1       6.991   4.747  15.485  0.00  0.00    +0.000 A 
ATOM      8  C   UNL     1       5.863   3.956  15.525  0.00  0.00    +0.000 A 
ATOM      9  N   UNL     1       5.153   3.780  16.660  0.00  0.00    +0.000 NA
ATOM     10  C   UNL     1       5.636   4.374  17.797  0.00  0.00    +0.000 A 
BRANCH   5  12
ATOM     11  O   UNL     1       7.496   5.288  20.051  0.00  0.00    +0.000 OA
ATOM     12  C   UNL     1       7.419   5.775  18.939  0.00  0.00    +0.000 C 
BRANCH  12  13
ATOM     13  OXT UNL     1       8.033   6.937  18.585  0.00  0.00    +0.000 OA
ATOM     14  HXT UNL     1       8.260   6.918  17.624  0.00  0.00    +0.000 HD
ENDBRANCH  12  13
ENDBRANCH   5  12
ENDBRANCH   1  10
BRANCH   3  15
ATOM     15  C   UNL     1       3.484   6.230  18.882  0.00  0.00    +0.000 C 
BRANCH  15  16
ATOM     16  C   UNL     1       2.360   6.931  19.656  0.00  0.00    +0.000 C 
BRANCH  16  17
ATOM     17  C   UNL     1       1.912   8.230  19.055  0.00  0.00    +0.000 A 
ATOM     18  C   UNL     1       2.257   8.745  17.820  0.00  0.00    +0.000 A 
ATOM     19  N   UNL     1       1.671   9.973  17.684  0.00  0.00    +0.000 N 
ATOM     20  C   UNL     1       0.942  10.282  18.807  0.00  0.00    +0.000 A 
ATOM     21  C   UNL     1       0.207  11.434  19.115  0.00  0.00    +0.000 A 
ATOM     22  C   UNL     1      -0.436  11.482  20.355  0.00  0.00    +0.000 A 
ATOM     23  C   UNL     1      -0.351  10.415  21.246  0.00  0.00    +0.000 A 
ATOM     24  C   UNL     1       0.391   9.272  20.923  0.00  0.00    +0.000 A 
ATOM     25  C   UNL     1       1.059   9.202  19.681  0.00  0.00    +0.000 A 
ATOM     26  H   UNL     1       1.769  10.580  16.882  0.00  0.00    +0.000 HD
ENDBRANCH  16  17
ENDBRANCH  15  16
ENDBRANCH   3  15
TORSDOF 6
ENDMDL
MODEL 3
REMARK VINA RESULT:      -7.7      2.156      3.357
REMARK  Name = 
REMARK  6 active torsions:
REMARK  status: ('A' for Active; 'I' for Inactive)
REMARK    1  A    between atoms: C_2  and  OXT_3
REMARK    2  A    between atoms: C_2  and  CA_4
REMARK    3  A    between atoms: C_9  and  C_10
REMARK    4  A    between atoms: N_12  and  C_13
REMARK    5  A    between atoms: C_13  and  C_14
REMARK    6  A    between atoms: C_14  and  C_15
REMARK                            x       y       z     vdW  Elec       q    Type
REMARK                         _______ _______ _______ _____ _____    ______ ____
ROOT
ATOM      1  C   UNL     1       5.451   6.400  16.203  0.00  0.00    +0.000 C 
ATOM      2  O   UNL     1       5.768   5.941  15.113  0.00  0.00    +0.000 OA
ATOM      3  N   UNL     1       4.257   7.092  16.340  0.00  0.00    +0.000 N 
ATOM      4  H   UNL     1       3.724   7.139  15.480  0.00  0.00    +0.000 HD
ENDROOT
BRANCH   1  10
ATOM      5  CA  UNL     1       6.193   5.084  18.238  0.00  0.00    +0.000 A 
ATOM      6  N   UNL     1       7.024   4.902  19.327  0.00  0.00    +0.000 NA
ATOM      7  C   UNL     1       8.016   5.813  19.465  0.00  0.00    +0.000 A 
ATOM      8  C   UNL     1       8.139   6.901  18.626  0.00  0.00    +0.000 A 
ATOM      9  N   UNL     1       7.283   7.116  17.605  0.00  0.00    +0.000 NA
ATOM     10  C   UNL     1       6.313   6.170  17.392  0.00  0.00    +0.000 A 
BRANCH   5  12
ATOM     11  O   UNL     1       4.716   3.635  16.989  0.00  0.00    +0.000 OA
ATOM     12  C   UNL     1       5.241   3.961  18.038  0.00  0.00    +0.000 C 
BRANCH  12  13
ATOM     13  OXT UNL     1       5.110   3.255  19.193  0.00  0.00    +0.000 OA
ATOM     14  HXT UNL     1       5.981   2.866  19.449  0.00  0.00    +0.000 HD
ENDBRANCH  12  13
ENDBRANCH   5  12
ENDBRANCH   1  10
BRANCH   3  15
ATOM     15  C   UNL     1       3.647   7.623  17.555  0.00  0.00    +0.000 C 
BRANCH  15  16
ATOM     16  C   UNL     1       2.247   7.058  17.835  0.00  0.00    +0.000 C 
BRANCH  16  17
ATOM     17  C   UNL     1       2.159   6.204  19.064  0.00  0.00    +0.000 A 
ATOM     18  C   UNL     1       2.401   6.587  20.369  0.00  0.00    +0.000 A 
ATOM     19  N   UNL     1       2.257   5.491  21.176  0.00  0.00    +0.000 N 
ATOM     20  C   UNL     1       1.923   4.388  20.428  0.00  0.00    +0.000 A 
ATOM     21  C   UNL     1       1.706   3.062  20.826  0.00  0.00    +0.000 A 
ATOM     22  C   UNL     1       1.385   2.131  19.834  0.00  0.00    +0.000 A 
ATOM     23  C   UNL     1       1.278   2.515  18.500  0.00  0.00    +0.000 A 
ATOM     24  C   UNL     1       1.501   3.844  18.120  0.00  0.00    +0.000 A 
ATOM     25  C   UNL     1       1.837   4.804  19.100  0.00  0.00    +0.000 A 
ATOM     26  H   UNL     1       2.392   5.483  22.178  0.00  0.00    +0.000 HD
ENDBRANCH  16  17
ENDBRANCH  15  16
ENDBRANCH   3  15
TORSDOF 6
ENDMDL
MODEL 4
REMARK VINA RESULT:      -7.6      4.046      6.269
REMARK  Name = 
REMARK  6 active torsions:
REMARK  status: ('A' for Active; 'I' for Inactive)
REMARK    1  A    between atoms: C_2  and  OXT_3
REMARK    2  A    between atoms: C_2  and  CA_4
REMARK    3  A    between atoms: C_9  and  C_10
REMARK    4  A    between atoms: N_12  and  C_13
REMARK    5  A    between atoms: C_13  and  C_14
REMARK    6  A    between atoms: C_14  and  C_15
REMARK                            x       y       z     vdW  Elec       q    Type
REMARK                         _______ _______ _______ _____ _____    ______ ____
ROOT
ATOM      1  C   UNL     1       1.822   4.668  18.180  0.00  0.00    +0.000 C 
ATOM      2  O   UNL     1       1.232   4.184  17.223  0.00  0.00    +0.000 OA
ATOM      3  N   UNL     1       2.175   6.009  18.168  0.00  0.00    +0.000 N 
ATOM      4  H   UNL     1       1.879   6.490  17.327  0.00  0.00    +0.000 HD
ENDROOT
BRANCH   1  10
ATOM      5  CA  UNL     1       3.339   3.266  19.648  0.00  0.00    +0.000 A 
ATOM      6  N   UNL     1       3.570   2.510  20.782  0.00  0.00    +0.000 NA
ATOM      7  C   UNL     1       2.536   2.434  21.653  0.00  0.00    +0.000 A 
ATOM      8  C   UNL     1       1.305   2.999  21.390  0.00  0.00    +0.000 A 
ATOM      9  N   UNL     1       1.062   3.677  20.248  0.00  0.00    +0.000 NA
ATOM     10  C   UNL     1       2.111   3.838  19.380  0.00  0.00    +0.000 A 
BRANCH   5  12
ATOM     11  O   UNL     1       5.542   4.111  19.123  0.00  0.00    +0.000 OA
ATOM     12  C   UNL     1       4.558   3.461  18.822  0.00  0.00    +0.000 C 
BRANCH  12  13
ATOM     13  OXT UNL     1       4.476   2.707  17.692  0.00  0.00    +0.000 OA
ATOM     14  HXT UNL     1       3.593   2.834  17.267  0.00  0.00    +0.000 HD
ENDBRANCH  12  13
ENDBRANCH   5  12
ENDBRANCH   1  10
BRANCH   3  15
ATOM     15  C   UNL     1       2.780   6.801  19.235  0.00  0.00    +0.000 C 
BRANCH  15  16
ATOM     16  C   UNL     1       1.784   7.226  20.323  0.00  0.00    +0.000 C 
BRANCH  16  17
ATOM     17  C   UNL     1       1.237   8.612  20.153  0.00  0.00    +0.000 A 
ATOM     18  C   UNL     1       1.372   9.437  19.053  0.00  0.00    +0.000 A 
ATOM     19  N   UNL     1       0.765  10.631  19.331  0.00  0.00    +0.000 N 
ATOM     20  C   UNL     1       0.229  10.613  20.596  0.00  0.00    +0.000 A 
ATOM     21  C   UNL     1      -0.451  11.614  21.300  0.00  0.00    +0.000 A 
ATOM     22  C   UNL     1      -0.882  11.317  22.597  0.00  0.00    +0.000 A 
ATOM     23  C   UNL     1      -0.647  10.065  23.160  0.00  0.00    +0.000 A 
ATOM     24  C   UNL     1       0.038   9.077  22.442  0.00  0.00    +0.000 A 
ATOM     25  C   UNL     1       0.493   9.353  21.134  0.00  0.00    +0.000 A 
ATOM     26  H   UNL     1       0.727  11.424  18.706  0.00  0.00    +0.000 HD
ENDBRANCH  16  17
ENDBRANCH  15  16
ENDBRANCH   3  15
TORSDOF 6
ENDMDL
MODEL 5
REMARK VINA RESULT:      -7.6      2.606      6.230
REMARK  Name = 
REMARK  6 active torsions:
REMARK  status: ('A' for Active; 'I' for Inactive)
REMARK    1  A    between atoms: C_2  and  OXT_3
REMARK    2  A    between atoms: C_2  and  CA_4
REMARK    3  A    between atoms: C_9  and  C_10
REMARK    4  A    between atoms: N_12  and  C_13
REMARK    5  A    between atoms: C_13  and  C_14
REMARK    6  A    between atoms: C_14  and  C_15
REMARK                            x       y       z     vdW  Elec       q    Type
REMARK                         _______ _______ _______ _____ _____    ______ ____
ROOT
ATOM      1  C   UNL     1       4.174   2.975  19.716  0.00  0.00    +0.000 C 
ATOM      2  O   UNL     1       4.598   2.367  20.691  0.00  0.00    +0.000 OA
ATOM      3  N   UNL     1       4.439   2.502  18.439  0.00  0.00    +0.000 N 
ATOM      4  H   UNL     1       4.973   1.641  18.437  0.00  0.00    +0.000 HD
ENDROOT
BRANCH   1  10
ATOM      5  CA  UNL     1       2.072   4.175  20.467  0.00  0.00    +0.000 A 
ATOM      6  N   UNL     1       1.324   5.326  20.626  0.00  0.00    +0.000 NA
ATOM      7  C   UNL     1       1.938   6.477  20.261  0.00  0.00    +0.000 A 
ATOM      8  C   UNL     1       3.192   6.494  19.687  0.00  0.00    +0.000 A 
ATOM      9  N   UNL     1       3.892   5.361  19.467  0.00  0.00    +0.000 NA
ATOM     10  C   UNL     1       3.330   4.186  19.896  0.00  0.00    +0.000 A 
BRANCH   5  12
ATOM     11  O   UNL     1       1.652   2.475  22.133  0.00  0.00    +0.000 OA
ATOM     12  C   UNL     1       1.420   2.972  21.046  0.00  0.00    +0.000 C 
BRANCH  12  13
ATOM     13  OXT UNL     1       0.422   2.546  20.225  0.00  0.00    +0.000 OA
ATOM     14  HXT UNL     1      -0.234   2.019  20.741  0.00  0.00    +0.000 HD
ENDBRANCH  12  13
ENDBRANCH   5  12
ENDBRANCH   1  10
BRANCH   3  15
ATOM     15  C   UNL     1       3.947   3.008  17.161  0.00  0.00    +0.000 C 
BRANCH  15  16
ATOM     16  C   UNL     1       5.066   3.407  16.189  0.00  0.00    +0.000 C 
BRANCH  16  17
ATOM     17  C   UNL     1       5.484   4.844  16.283  0.00  0.00    +0.000 A 
ATOM     18  C   UNL     1       5.084   5.887  15.471  0.00  0.00    +0.000 A 
ATOM     19  N   UNL     1       5.738   7.021  15.868  0.00  0.00    +0.000 N 
ATOM     20  C   UNL     1       6.566   6.748  16.930  0.00  0.00    +0.000 A 
ATOM     21  C   UNL     1       7.436   7.590  17.634  0.00  0.00    +0.000 A 
ATOM     22  C   UNL     1       8.176   7.031  18.680  0.00  0.00    +0.000 A 
ATOM     23  C   UNL     1       8.043   5.685  19.011  0.00  0.00    +0.000 A 
ATOM     24  C   UNL     1       7.171   4.857  18.294  0.00  0.00    +0.000 A 
ATOM     25  C   UNL     1       6.418   5.392  17.226  0.00  0.00    +0.000 A 
ATOM     26  H   UNL     1       5.644   7.930  15.436  0.00  0.00    +0.000 HD
ENDBRANCH  16  17
ENDBRANCH  15  16
ENDBRANCH   3  15
TORSDOF 6
ENDMDL
MODEL 6
REMARK VINA RESULT:      -7.6      2.131      3.316
REMARK  Name = 
REMARK  6 active torsions:
REMARK  status: ('A' for Active; 'I' for Inactive)
REMARK    1  A    between atoms: C_2  and  OXT_3
REMARK    2  A    between atoms: C_2  and  CA_4
REMARK    3  A    between atoms: C_9  and  C_10
REMARK    4  A    between atoms: N_12  and  C_13
REMARK    5  A    between atoms: C_13  and  C_14
REMARK    6  A    between atoms: C_14  and  C_15
REMARK                            x       y       z     vdW  Elec       q    Type
REMARK                         _______ _______ _______ _____ _____    ______ ____
ROOT
ATOM      1  C   UNL     1       5.260   6.623  16.241  0.00  0.00    +0.000 C 
ATOM      2  O   UNL     1       5.472   6.038  15.187  0.00  0.00    +0.000 OA
ATOM      3  N   UNL     1       3.970   7.015  16.565  0.00  0.00    +0.000 N 
ATOM      4  H   UNL     1       3.286   6.748  15.867  0.00  0.00    +0.000 HD
ENDROOT
BRANCH   1  10
ATOM      5  CA  UNL     1       6.794   5.950  18.143  0.00  0.00    +0.000 A 
ATOM      6  N   UNL     1       7.839   6.212  19.009  0.00  0.00    +0.000 NA
ATOM      7  C   UNL     1       8.473   7.394  18.819  0.00  0.00    +0.000 A 
ATOM      8  C   UNL     1       8.052   8.315  17.883  0.00  0.00    +0.000 A 
ATOM      9  N   UNL     1       6.987   8.086  17.085  0.00  0.00    +0.000 NA
ATOM     10  C   UNL     1       6.370   6.867  17.200  0.00  0.00    +0.000 A 
BRANCH   5  12
ATOM     11  O   UNL     1       5.626   4.132  19.224  0.00  0.00    +0.000 OA
ATOM     12  C   UNL     1       6.255   4.573  18.280  0.00  0.00    +0.000 C 
BRANCH  12  13
ATOM     13  OXT UNL     1       6.471   3.876  17.132  0.00  0.00    +0.000 OA
ATOM     14  HXT UNL     1       5.955   4.279  16.393  0.00  0.00    +0.000 HD
ENDBRANCH  12  13
ENDBRANCH   5  12
ENDBRANCH   1  10
BRANCH   3  15
ATOM     15  C   UNL     1       3.486   7.623  17.802  0.00  0.00    +0.000 C 
BRANCH  15  16
ATOM     16  C   UNL     1       2.092   7.135  18.220  0.00  0.00    +0.000 C 
BRANCH  16  17
ATOM     17  C   UNL     1       2.100   5.969  19.162  0.00  0.00    +0.000 A 
ATOM     18  C   UNL     1       1.982   6.004  20.538  0.00  0.00    +0.000 A 
ATOM     19  N   UNL     1       2.089   4.726  21.014  0.00  0.00    +0.000 N 
ATOM     20  C   UNL     1       2.278   3.844  19.978  0.00  0.00    +0.000 A 
ATOM     21  C   UNL     1       2.463   2.455  19.999  0.00  0.00    +0.000 A 
ATOM     22  C   UNL     1       2.645   1.806  18.775  0.00  0.00    +0.000 A 
ATOM     23  C   UNL     1       2.632   2.519  17.578  0.00  0.00    +0.000 A 
ATOM     24  C   UNL     1       2.449   3.907  17.576  0.00  0.00    +0.000 A 
ATOM     25  C   UNL     1       2.273   4.590  18.799  0.00  0.00    +0.000 A 
ATOM     26  H   UNL     1       2.053   4.462  21.990  0.00  0.00    +0.000 HD
ENDBRANCH  16  17
ENDBRANCH  15  16
ENDBRANCH   3  15
TORSDOF 6
ENDMDL
MODEL 7
REMARK VINA RESULT:      -7.6      1.061      1.801
REMARK  Name = 
REMARK  6 active torsions:
REMARK  status: ('A' for Active; 'I' for Inactive)
REMARK    1  A    between atoms: C_2  and  OXT_3
REMARK    2  A    between atoms: C_2  and  CA_4
REMARK    3  A    between atoms: C_9  and  C_10
REMARK    4  A    between atoms: N_12  and  C_13
REMARK    5  A    between atoms: C_13  and  C_14
REMARK    6  A    between atoms: C_14  and  C_15
REMARK                            x       y       z     vdW  Elec       q    Type
REMARK                         _______ _______ _______ _____ _____    ______ ____
ROOT
ATOM      1  C   UNL     1       5.741   5.316  18.902  0.00  0.00    +0.000 C 
ATOM      2  O   UNL     1       6.323   4.753  19.819  0.00  0.00    +0.000 OA
ATOM      3  N   UNL     1       4.647   6.124  19.172  0.00  0.00    +0.000 N 
ATOM      4  H   UNL     1       4.433   6.188  20.160  0.00  0.00    +0.000 HD
ENDROOT
BRANCH   1  10
ATOM      5  CA  UNL     1       7.108   6.069  16.905  0.00  0.00    +0.000 A 
ATOM      6  N   UNL     1       7.554   5.901  15.607  0.00  0.00    +0.000 NA
ATOM      7  C   UNL     1       7.142   4.767  14.991  0.00  0.00    +0.000 A 
ATOM      8  C   UNL     1       6.268   3.880  15.583  0.00  0.00    +0.000 A 
ATOM      9  N   UNL     1       5.779   4.083  16.825  0.00  0.00    +0.000 NA
ATOM     10  C   UNL     1       6.235   5.182  17.506  0.00  0.00    +0.000 A 
BRANCH   5  12
ATOM     11  O   UNL     1       7.677   8.394  17.234  0.00  0.00    +0.000 OA
ATOM     12  C   UNL     1       7.731   7.231  17.588  0.00  0.00    +0.000 C 
BRANCH  12  13
ATOM     13  OXT UNL     1       8.299   6.830  18.758  0.00  0.00    +0.000 OA
ATOM     14  HXT UNL     1       7.856   7.278  19.517  0.00  0.00    +0.000 HD
ENDBRANCH  12  13
ENDBRANCH   5  12
ENDBRANCH   1  10
BRANCH   3  15
ATOM     15  C   UNL     1       3.883   6.960  18.250  0.00  0.00    +0.000 C 
BRANCH  15  16
ATOM     16  C   UNL     1       2.365   6.883  18.467  0.00  0.00    +0.000 C 
BRANCH  16  17
ATOM     17  C   UNL     1       1.913   5.696  19.264  0.00  0.00    +0.000 A 
ATOM     18  C   UNL     1       1.411   5.694  20.550  0.00  0.00    +0.000 A 
ATOM     19  N   UNL     1       1.168   4.398  20.918  0.00  0.00    +0.000 N 
ATOM     20  C   UNL     1       1.502   3.541  19.897  0.00  0.00    +0.000 A 
ATOM     21  C   UNL     1       1.446   2.143  19.841  0.00  0.00    +0.000 A 
ATOM     22  C   UNL     1       1.865   1.524  18.660  0.00  0.00    +0.000 A 
ATOM     23  C   UNL     1       2.314   2.276  17.578  0.00  0.00    +0.000 A 
ATOM     24  C   UNL     1       2.365   3.673  17.653  0.00  0.00    +0.000 A 
ATOM     25  C   UNL     1       1.958   4.325  18.837  0.00  0.00    +0.000 A 
ATOM     26  H   UNL     1       0.811   4.105  21.817  0.00  0.00    +0.000 HD
ENDBRANCH  16  17
ENDBRANCH  15  16
ENDBRANCH   3  15
TORSDOF 6
ENDMDL
MODEL 8
REMARK VINA RESULT:      -7.6      2.242      6.050
REMARK  Name = 
REMARK  6 active torsions:
REMARK  status: ('A' for Active; 'I' for Inactive)
REMARK    1  A    between atoms: C_2  and  OXT_3
REMARK    2  A    between atoms: C_2  and  CA_4
REMARK    3  A    between atoms: C_9  and  C_10
REMARK    4  A    between atoms: N_12  and  C_13
REMARK    5  A    between atoms: C_13  and  C_14
REMARK    6  A    between atoms: C_14  and  C_15
REMARK                            x       y       z     vdW  Elec       q    Type
REMARK                         _______ _______ _______ _____ _____    ______ ____
ROOT
ATOM      1  C   UNL     1       1.827   3.874  17.682  0.00  0.00    +0.000 C 
ATOM      2  O   UNL     1       0.832   4.368  17.168  0.00  0.00    +0.000 OA
ATOM      3  N   UNL     1       2.890   3.477  16.885  0.00  0.00    +0.000 N 
ATOM      4  H   UNL     1       2.739   3.660  15.900  0.00  0.00    +0.000 HD
ENDROOT
BRANCH   1  10
ATOM      5  CA  UNL     1       2.396   4.747  19.992  0.00  0.00    +0.000 A 
ATOM      6  N   UNL     1       2.458   4.595  21.365  0.00  0.00    +0.000 NA
ATOM      7  C   UNL     1       1.952   3.436  21.848  0.00  0.00    +0.000 A 
ATOM      8  C   UNL     1       1.483   2.435  21.023  0.00  0.00    +0.000 A 
ATOM      9  N   UNL     1       1.488   2.557  19.679  0.00  0.00    +0.000 NA
ATOM     10  C   UNL     1       1.924   3.750  19.161  0.00  0.00    +0.000 A 
BRANCH   5  12
ATOM     11  O   UNL     1       3.383   6.377  18.506  0.00  0.00    +0.000 OA
ATOM     12  C   UNL     1       2.798   6.103  19.538  0.00  0.00    +0.000 C 
BRANCH  12  13
ATOM     13  OXT UNL     1       2.320   7.041  20.400  0.00  0.00    +0.000 OA
ATOM     14  HXT UNL     1       1.756   7.687  19.913  0.00  0.00    +0.000 HD
ENDBRANCH  12  13
ENDBRANCH   5  12
ENDBRANCH   1  10
BRANCH   3  15
ATOM     15  C   UNL     1       4.196   2.969  17.296  0.00  0.00    +0.000 C 
BRANCH  15  16
ATOM     16  C   UNL     1       5.333   3.358  16.341  0.00  0.00    +0.000 C 
BRANCH  16  17
ATOM     17  C   UNL     1       5.672   4.819  16.344  0.00  0.00    +0.000 A 
ATOM     18  C   UNL     1       5.239   5.781  15.454  0.00  0.00    +0.000 A 
ATOM     19  N   UNL     1       5.823   6.973  15.786  0.00  0.00    +0.000 N 
ATOM     20  C   UNL     1       6.636   6.818  16.882  0.00  0.00    +0.000 A 
ATOM     21  C   UNL     1       7.442   7.752  17.545  0.00  0.00    +0.000 A 
ATOM     22  C   UNL     1       8.184   7.306  18.643  0.00  0.00    +0.000 A 
ATOM     23  C   UNL     1       8.113   5.980  19.063  0.00  0.00    +0.000 A 
ATOM     24  C   UNL     1       7.304   5.059  18.387  0.00  0.00    +0.000 A 
ATOM     25  C   UNL     1       6.552   5.480  17.268  0.00  0.00    +0.000 A 
ATOM     26  H   UNL     1       5.692   7.844  15.290  0.00  0.00    +0.000 HD
ENDBRANCH  16  17
ENDBRANCH  15  16
ENDBRANCH   3  15
TORSDOF 6
ENDMDL
MODEL 9
REMARK VINA RESULT:      -7.6      2.702      3.906
REMARK  Name = 
REMARK  6 active torsions:
REMARK  status: ('A' for Active; 'I' for Inactive)
REMARK    1  A    between atoms: C_2  and  OXT_3
REMARK    2  A    between atoms: C_2  and  CA_4
REMARK    3  A    between atoms: C_9  and  C_10
REMARK    4  A    between atoms: N_12  and  C_13
REMARK    5  A    between atoms: C_13  and  C_14
REMARK    6  A    between atoms: C_14  and  C_15
REMARK                            x       y       z     vdW  Elec       q    Type
REMARK                         _______ _______ _______ _____ _____    ______ ____
ROOT
ATOM      1  C   UNL     1       5.006   4.301  18.489  0.00  0.00    +0.000 C 
ATOM      2  O   UNL     1       5.518   3.578  19.334  0.00  0.00    +0.000 OA
ATOM      3  N   UNL     1       3.813   4.950  18.768  0.00  0.00    +0.000 N 
ATOM      4  H   UNL     1       3.469   4.766  19.703  0.00  0.00    +0.000 HD
ENDROOT
BRANCH   1  10
ATOM      5  CA  UNL     1       6.836   5.283  17.036  0.00  0.00    +0.000 A 
ATOM      6  N   UNL     1       7.445   5.462  15.808  0.00  0.00    +0.000 NA
ATOM      7  C   UNL     1       6.886   4.787  14.775  0.00  0.00    +0.000 A 
ATOM      8  C   UNL     1       5.737   4.039  14.918  0.00  0.00    +0.000 A 
ATOM      9  N   UNL     1       5.104   3.922  16.106  0.00  0.00    +0.000 NA
ATOM     10  C   UNL     1       5.687   4.532  17.187  0.00  0.00    +0.000 A 
BRANCH   5  12
ATOM     11  O   UNL     1       7.725   7.091  18.372  0.00  0.00    +0.000 OA
ATOM     12  C   UNL     1       7.593   5.900  18.156  0.00  0.00    +0.000 C 
BRANCH  12  13
ATOM     13  OXT UNL     1       8.044   4.931  18.998  0.00  0.00    +0.000 OA
ATOM     14  HXT UNL     1       7.333   4.682  19.635  0.00  0.00    +0.000 HD
ENDBRANCH  12  13
ENDBRANCH   5  12
ENDBRANCH   1  10
BRANCH   3  15
ATOM     15  C   UNL     1       3.096   5.927  17.954  0.00  0.00    +0.000 C 
BRANCH  15  16
ATOM     16  C   UNL     1       3.517   7.378  18.225  0.00  0.00    +0.000 C 
BRANCH  16  17
ATOM     17  C   UNL     1       2.374   8.338  18.368  0.00  0.00    +0.000 A 
ATOM     18  C   UNL     1       1.886   9.208  17.412  0.00  0.00    +0.000 A 
ATOM     19  N   UNL     1       0.872   9.938  17.969  0.00  0.00    +0.000 N 
ATOM     20  C   UNL     1       0.678   9.567  19.277  0.00  0.00    +0.000 A 
ATOM     21  C   UNL     1      -0.224  10.060  20.229  0.00  0.00    +0.000 A 
ATOM     22  C   UNL     1      -0.193   9.494  21.507  0.00  0.00    +0.000 A 
ATOM     23  C   UNL     1       0.699   8.471  21.814  0.00  0.00    +0.000 A 
ATOM     24  C   UNL     1       1.596   7.992  20.851  0.00  0.00    +0.000 A 
ATOM     25  C   UNL     1       1.594   8.553  19.556  0.00  0.00    +0.000 A 
ATOM     26  H   UNL     1       0.347  10.661  17.496  0.00  0.00    +0.000 HD
ENDBRANCH  16  17
ENDBRANCH  15  16
ENDBRANCH   3  15
TORSDOF 6
ENDMDL
