MODEL 1
REMARK VINA RESULT:      -7.3      0.000      0.000
REMARK  Name = 
REMARK  10 active torsions:
REMARK  status: ('A' for Active; 'I' for Inactive)
REMARK    1  A    between atoms: C_1  and  C_2
REMARK    2  A    between atoms: C_2  and  C_3
REMARK    3  A    between atoms: C_3  and  C_4
REMARK    4  A    between atoms: C_4  and  P_5
REMARK    5  A    between atoms: P_5  and  O_7
REMARK    6  A    between atoms: P_5  and  O_10
REMARK    7  A    between atoms: O_7  and  C_8
REMARK    8  A    between atoms: C_8  and  C_9
REMARK    9  A    between atoms: O_10  and  C_11
REMARK   10  A    between atoms: C_11  and  N_12
REMARK                            x       y       z     vdW  Elec       q    Type
REMARK                         _______ _______ _______ _____ _____    ______ ____
ROOT
ATOM      1  C   UNL     1       5.974   5.231  19.286  0.00  0.00    +0.000 C 
ENDROOT
BRANCH   1   2
ATOM      2  N   UNL     1       4.883   4.417  18.802  0.00  0.00    +0.000 N 
ATOM      3  C   UNL     1       4.545   3.233  19.394  0.00  0.00    +0.000 C 
ATOM      4  O   UNL     1       5.180   2.533  20.169  0.00  0.00    +0.000 OA
ATOM      5  C   UNL     1       3.134   2.986  19.067  0.00  0.00    +0.000 A 
ATOM      6  C   UNL     1       2.278   1.965  19.435  0.00  0.00    +0.000 A 
ATOM      7  C   UNL     1       0.923   2.091  19.085  0.00  0.00    +0.000 A 
ATOM      8  C   UNL     1       0.453   3.233  18.405  0.00  0.00    +0.000 A 
ATOM      9  C   UNL     1       1.333   4.257  18.050  0.00  0.00    +0.000 A 
ATOM     10  C   UNL     1       2.671   4.089  18.375  0.00  0.00    +0.000 A 
ATOM     11  C   UNL     1       3.780   5.021  18.225  0.00  0.00    +0.000 C 
ATOM     12  O   UNL     1       3.642   6.148  17.793  0.00  0.00    +0.000 OA
ENDBRANCH   1   2
BRANCH   1  13
ATOM     13  O   UNL     1       7.068   5.298  18.431  0.00  0.00    +0.000 OA
BRANCH  13  14
ATOM     14  P   UNL     1       6.959   5.236  16.705  0.00  0.00    +0.000 P 
ATOM     15  O   UNL     1       8.079   4.186  16.642  0.00  0.00    +0.000 OA
BRANCH  14  16
ATOM     16  C   UNL     1       6.843   5.168  14.880  0.00  0.00    +0.000 C 
BRANCH  16  17
ATOM     17  C   UNL     1       6.514   3.834  14.213  0.00  0.00    +0.000 C 
BRANCH  17  19
ATOM     18  C   UNL     1       5.761   2.801  12.010  0.00  0.00    +0.000 C 
ATOM     19  C   UNL     1       5.564   3.918  13.022  0.00  0.00    +0.000 C 
ENDBRANCH  17  19
ENDBRANCH  16  17
ENDBRANCH  14  16
BRANCH  14  20
ATOM     20  O   UNL     1       7.700   6.763  16.680  0.00  0.00    +0.000 OA
BRANCH  20  21
ATOM     21  C   UNL     1       7.279   7.916  17.456  0.00  0.00    +0.000 C 
ATOM     22  C   UNL     1       8.339   8.822  18.155  0.00  0.00    +0.000 C 
ENDBRANCH  20  21
ENDBRANCH  14  20
ENDBRANCH  13  14
ENDBRANCH   1  13
TORSDOF 8
ENDMDL
MODEL 2
REMARK VINA RESULT:      -6.9      1.679      4.177
REMARK  Name = 
REMARK  10 active torsions:
REMARK  status: ('A' for Active; 'I' for Inactive)
REMARK    1  A    between atoms: C_1  and  C_2
REMARK    2  A    between atoms: C_2  and  C_3
REMARK    3  A    between atoms: C_3  and  C_4
REMARK    4  A    between atoms: C_4  and  P_5
REMARK    5  A    between atoms: P_5  and  O_7
REMARK    6  A    between atoms: P_5  and  O_10
REMARK    7  A    between atoms: O_7  and  C_8
REMARK    8  A    between atoms: C_8  and  C_9
REMARK    9  A    between atoms: O_10  and  C_11
REMARK   10  A    between atoms: C_11  and  N_12
REMARK                            x       y       z     vdW  Elec       q    Type
REMARK                         _______ _______ _______ _____ _____    ______ ____
ROOT
ATOM      1  C   UNL     1       4.408   4.020  16.699  0.00  0.00    +0.000 C 
ENDROOT
BRANCH   1   2
ATOM      2  N   UNL     1       3.749   3.283  17.753  0.00  0.00    +0.000 N 
ATOM      3  C   UNL     1       4.319   3.118  18.984  0.00  0.00    +0.000 C 
ATOM      4  O   UNL     1       5.479   3.268  19.339  0.00  0.00    +0.000 OA
ATOM      5  C   UNL     1       3.219   2.873  19.927  0.00  0.00    +0.000 A 
ATOM      6  C   UNL     1       3.218   2.679  21.296  0.00  0.00    +0.000 A 
ATOM      7  C   UNL     1       1.974   2.624  21.946  0.00  0.00    +0.000 A 
ATOM      8  C   UNL     1       0.772   2.787  21.228  0.00  0.00    +0.000 A 
ATOM      9  C   UNL     1       0.796   2.990  19.847  0.00  0.00    +0.000 A 
ATOM     10  C   UNL     1       2.036   3.002  19.226  0.00  0.00    +0.000 A 
ATOM     11  C   UNL     1       2.369   3.293  17.837  0.00  0.00    +0.000 C 
ATOM     12  O   UNL     1       1.536   3.609  17.011  0.00  0.00    +0.000 OA
ENDBRANCH   1   2
BRANCH   1  13
ATOM     13  O   UNL     1       4.524   5.385  16.934  0.00  0.00    +0.000 OA
BRANCH  13  14
ATOM     14  P   UNL     1       6.022   6.251  16.919  0.00  0.00    +0.000 P 
ATOM     15  O   UNL     1       5.284   7.589  17.071  0.00  0.00    +0.000 OA
BRANCH  14  16
ATOM     16  C   UNL     1       7.606   7.166  16.906  0.00  0.00    +0.000 C 
BRANCH  16  17
ATOM     17  C   UNL     1       8.060   7.871  18.183  0.00  0.00    +0.000 C 
BRANCH  17  19
ATOM     18  C   UNL     1       9.170   9.934  19.182  0.00  0.00    +0.000 C 
ATOM     19  C   UNL     1       8.347   9.361  18.039  0.00  0.00    +0.000 C 
ENDBRANCH  17  19
ENDBRANCH  16  17
ENDBRANCH  14  16
BRANCH  14  20
ATOM     20  O   UNL     1       6.113   5.913  15.259  0.00  0.00    +0.000 OA
BRANCH  20  21
ATOM     21  C   UNL     1       6.983   4.925  14.646  0.00  0.00    +0.000 C 
ATOM     22  C   UNL     1       6.428   3.955  13.558  0.00  0.00    +0.000 C 
ENDBRANCH  20  21
ENDBRANCH  14  20
ENDBRANCH  13  14
ENDBRANCH   1  13
TORSDOF 8
ENDMDL
MODEL 3
REMARK VINA RESULT:      -6.9      2.230      3.905
REMARK  Name = 
REMARK  10 active torsions:
REMARK  status: ('A' for Active; 'I' for Inactive)
REMARK    1  A    between atoms: C_1  and  C_2
REMARK    2  A    between atoms: C_2  and  C_3
REMARK    3  A    between atoms: C_3  and  C_4
REMARK    4  A    between atoms: C_4  and  P_5
REMARK    5  A    between atoms: P_5  and  O_7
REMARK    6  A    between atoms: P_5  and  O_10
REMARK    7  A    between atoms: O_7  and  C_8
REMARK    8  A    between atoms: C_8  and  C_9
REMARK    9  A    between atoms: O_10  and  C_11
REMARK   10  A    between atoms: C_11  and  N_12
REMARK                            x       y       z     vdW  Elec       q    Type
REMARK                         _______ _______ _______ _____ _____    ______ ____
ROOT
ATOM      1  C   UNL     1       5.044   3.675  16.523  0.00  0.00    +0.000 C 
ENDROOT
BRANCH   1   2
ATOM      2  N   UNL     1       4.200   3.139  17.566  0.00  0.00    +0.000 N 
ATOM      3  C   UNL     1       4.531   3.240  18.888  0.00  0.00    +0.000 C 
ATOM      4  O   UNL     1       5.605   3.497  19.411  0.00  0.00    +0.000 OA
ATOM      5  C   UNL     1       3.274   3.148  19.644  0.00  0.00    +0.000 A 
ATOM      6  C   UNL     1       3.019   3.228  21.001  0.00  0.00    +0.000 A 
ATOM      7  C   UNL     1       1.676   3.259  21.411  0.00  0.00    +0.000 A 
ATOM      8  C   UNL     1       0.629   3.235  20.468  0.00  0.00    +0.000 A 
ATOM      9  C   UNL     1       0.908   3.162  19.102  0.00  0.00    +0.000 A 
ATOM     10  C   UNL     1       2.242   3.094  18.728  0.00  0.00    +0.000 A 
ATOM     11  C   UNL     1       2.827   3.116  17.394  0.00  0.00    +0.000 C 
ATOM     12  O   UNL     1       2.163   3.234  16.383  0.00  0.00    +0.000 OA
ENDBRANCH   1   2
BRANCH   1  13
ATOM     13  O   UNL     1       5.610   4.910  16.817  0.00  0.00    +0.000 OA
BRANCH  13  14
ATOM     14  P   UNL     1       4.704   6.364  17.060  0.00  0.00    +0.000 P 
ATOM     15  O   UNL     1       4.957   6.800  15.609  0.00  0.00    +0.000 OA
BRANCH  14  16
ATOM     16  C   UNL     1       3.744   7.900  17.317  0.00  0.00    +0.000 C 
BRANCH  16  17
ATOM     17  C   UNL     1       2.527   7.862  18.240  0.00  0.00    +0.000 C 
BRANCH  17  19
ATOM     18  C   UNL     1       1.734   7.060  20.523  0.00  0.00    +0.000 C 
ATOM     19  C   UNL     1       2.521   6.733  19.264  0.00  0.00    +0.000 C 
ENDBRANCH  17  19
ENDBRANCH  16  17
ENDBRANCH  14  16
BRANCH  14  20
ATOM     20  O   UNL     1       6.007   6.929  17.989  0.00  0.00    +0.000 OA
BRANCH  20  21
ATOM     21  C   UNL     1       7.358   6.397  17.958  0.00  0.00    +0.000 C 
ATOM     22  C   UNL     1       8.014   5.842  19.259  0.00  0.00    +0.000 C 
ENDBRANCH  20  21
ENDBRANCH  14  20
ENDBRANCH  13  14
ENDBRANCH   1  13
TORSDOF 8
ENDMDL
MODEL 4
REMARK VINA RESULT:      -6.7      1.719      2.535
REMARK  Name = 
REMARK  10 active torsions:
REMARK  status: ('A' for Active; 'I' for Inactive)
REMARK    1  A    between atoms: C_1  and  C_2
REMARK    2  A    between atoms: C_2  and  C_3
REMARK    3  A    between atoms: C_3  and  C_4
REMARK    4  A    between atoms: C_4  and  P_5
REMARK    5  A    between atoms: P_5  and  O_7
REMARK    6  A    between atoms: P_5  and  O_10
REMARK    7  A    between atoms: O_7  and  C_8
REMARK    8  A    between atoms: C_8  and  C_9
REMARK    9  A    between atoms: O_10  and  C_11
REMARK   10  A    between atoms: C_11  and  N_12
REMARK                            x       y       z     vdW  Elec       q    Type
REMARK                         _______ _______ _______ _____ _____    ______ ____
ROOT
ATOM      1  C   UNL     1       4.058   4.494  16.420  0.00  0.00    +0.000 C 
ENDROOT
BRANCH   1   2
ATOM      2  N   UNL     1       3.509   4.490  17.757  0.00  0.00    +0.000 N 
ATOM      3  C   UNL     1       2.165   4.395  17.987  0.00  0.00    +0.000 C 
ATOM      4  O   UNL     1       1.224   4.571  17.227  0.00  0.00    +0.000 OA
ATOM      5  C   UNL     1       2.008   3.848  19.341  0.00  0.00    +0.000 A 
ATOM      6  C   UNL     1       0.878   3.514  20.064  0.00  0.00    +0.000 A 
ATOM      7  C   UNL     1       1.060   2.858  21.293  0.00  0.00    +0.000 A 
ATOM      8  C   UNL     1       2.350   2.533  21.757  0.00  0.00    +0.000 A 
ATOM      9  C   UNL     1       3.478   2.873  21.008  0.00  0.00    +0.000 A 
ATOM     10  C   UNL     1       3.271   3.552  19.817  0.00  0.00    +0.000 A 
ATOM     11  C   UNL     1       4.235   3.936  18.795  0.00  0.00    +0.000 C 
ATOM     12  O   UNL     1       5.416   3.656  18.863  0.00  0.00    +0.000 OA
ENDBRANCH   1   2
BRANCH   1  13
ATOM     13  O   UNL     1       5.102   5.390  16.227  0.00  0.00    +0.000 OA
BRANCH  13  14
ATOM     14  P   UNL     1       6.384   5.162  15.087  0.00  0.00    +0.000 P 
ATOM     15  O   UNL     1       6.544   3.695  15.515  0.00  0.00    +0.000 OA
BRANCH  14  16
ATOM     16  C   UNL     1       7.738   4.919  13.880  0.00  0.00    +0.000 C 
BRANCH  16  17
ATOM     17  C   UNL     1       7.447   5.133  12.396  0.00  0.00    +0.000 C 
BRANCH  17  19
ATOM     18  C   UNL     1       5.822   3.176  12.272  0.00  0.00    +0.000 C 
ATOM     19  C   UNL     1       7.002   3.890  11.633  0.00  0.00    +0.000 C 
ENDBRANCH  17  19
ENDBRANCH  16  17
ENDBRANCH  14  16
BRANCH  14  20
ATOM     20  O   UNL     1       7.361   6.094  16.114  0.00  0.00    +0.000 OA
BRANCH  20  21
ATOM     21  C   UNL     1       6.886   6.906  17.221  0.00  0.00    +0.000 C 
ATOM     22  C   UNL     1       7.819   7.973  17.870  0.00  0.00    +0.000 C 
ENDBRANCH  20  21
ENDBRANCH  14  20
ENDBRANCH  13  14
ENDBRANCH   1  13
TORSDOF 8
ENDMDL
MODEL 5
REMARK VINA RESULT:      -6.6      1.720      4.393
REMARK  Name = 
REMARK  10 active torsions:
REMARK  status: ('A' for Active; 'I' for Inactive)
REMARK    1  A    between atoms: C_1  and  C_2
REMARK    2  A    between atoms: C_2  and  C_3
REMARK    3  A    between atoms: C_3  and  C_4
REMARK    4  A    between atoms: C_4  and  P_5
REMARK    5  A    between atoms: P_5  and  O_7
REMARK    6  A    between atoms: P_5  and  O_10
REMARK    7  A    between atoms: O_7  and  C_8
REMARK    8  A    between atoms: C_8  and  C_9
REMARK    9  A    between atoms: O_10  and  C_11
REMARK   10  A    between atoms: C_11  and  N_12
REMARK                            x       y       z     vdW  Elec       q    Type
REMARK                         _______ _______ _______ _____ _____    ______ ____
ROOT
ATOM      1  C   UNL     1       4.246   3.761  16.529  0.00  0.00    +0.000 C 
ENDROOT
BRANCH   1   2
ATOM      2  N   UNL     1       3.594   3.939  17.806  0.00  0.00    +0.000 N 
ATOM      3  C   UNL     1       2.236   3.870  17.942  0.00  0.00    +0.000 C 
ATOM      4  O   UNL     1       1.358   3.936  17.094  0.00  0.00    +0.000 OA
ATOM      5  C   UNL     1       1.970   3.514  19.342  0.00  0.00    +0.000 A 
ATOM      6  C   UNL     1       0.785   3.276  20.013  0.00  0.00    +0.000 A 
ATOM      7  C   UNL     1       0.866   2.796  21.331  0.00  0.00    +0.000 A 
ATOM      8  C   UNL     1       2.114   2.543  21.935  0.00  0.00    +0.000 A 
ATOM      9  C   UNL     1       3.299   2.782  21.237  0.00  0.00    +0.000 A 
ATOM     10  C   UNL     1       3.190   3.291  19.951  0.00  0.00    +0.000 A 
ATOM     11  C   UNL     1       4.234   3.535  18.964  0.00  0.00    +0.000 C 
ATOM     12  O   UNL     1       5.404   3.272  19.162  0.00  0.00    +0.000 OA
ENDBRANCH   1   2
BRANCH   1  13
ATOM     13  O   UNL     1       4.707   4.937  15.948  0.00  0.00    +0.000 OA
BRANCH  13  14
ATOM     14  P   UNL     1       6.099   5.810  16.491  0.00  0.00    +0.000 P 
ATOM     15  O   UNL     1       5.278   7.101  16.617  0.00  0.00    +0.000 OA
BRANCH  14  16
ATOM     16  C   UNL     1       7.571   6.732  17.067  0.00  0.00    +0.000 C 
BRANCH  16  17
ATOM     17  C   UNL     1       7.370   7.956  17.958  0.00  0.00    +0.000 C 
BRANCH  17  19
ATOM     18  C   UNL     1       8.939   9.724  18.907  0.00  0.00    +0.000 C 
ATOM     19  C   UNL     1       8.291   9.135  17.663  0.00  0.00    +0.000 C 
ENDBRANCH  17  19
ENDBRANCH  16  17
ENDBRANCH  14  16
BRANCH  14  20
ATOM     20  O   UNL     1       6.673   5.734  14.896  0.00  0.00    +0.000 OA
BRANCH  20  21
ATOM     21  C   UNL     1       7.134   4.532  14.222  0.00  0.00    +0.000 C 
ATOM     22  C   UNL     1       6.267   3.877  13.103  0.00  0.00    +0.000 C 
ENDBRANCH  20  21
ENDBRANCH  14  20
ENDBRANCH  13  14
ENDBRANCH   1  13
TORSDOF 8
ENDMDL
MODEL 6
REMARK VINA RESULT:      -6.5      1.759      2.496
REMARK  Name = 
REMARK  10 active torsions:
REMARK  status: ('A' for Active; 'I' for Inactive)
REMARK    1  A    between atoms: C_1  and  C_2
REMARK    2  A    between atoms: C_2  and  C_3
REMARK    3  A    between atoms: C_3  and  C_4
REMARK    4  A    between atoms: C_4  and  P_5
REMARK    5  A    between atoms: P_5  and  O_7
REMARK    6  A    between atoms: P_5  and  O_10
REMARK    7  A    between atoms: O_7  and  C_8
REMARK    8  A    between atoms: C_8  and  C_9
REMARK    9  A    between atoms: O_10  and  C_11
REMARK   10  A    between atoms: C_11  and  N_12
REMARK                            x       y       z     vdW  Elec       q    Type
REMARK                         _______ _______ _______ _____ _____    ______ ____
ROOT
ATOM      1  C   UNL     1       3.691   5.953  17.070  0.00  0.00    +0.000 C 
ENDROOT
BRANCH   1   2
ATOM      2  N   UNL     1       2.911   5.521  18.206  0.00  0.00    +0.000 N 
ATOM      3  C   UNL     1       1.825   4.703  18.068  0.00  0.00    +0.000 C 
ATOM      4  O   UNL     1       1.169   4.429  17.073  0.00  0.00    +0.000 OA
ATOM      5  C   UNL     1       1.646   4.019  19.356  0.00  0.00    +0.000 A 
ATOM      6  C   UNL     1       0.735   3.063  19.762  0.00  0.00    +0.000 A 
ATOM      7  C   UNL     1       0.919   2.481  21.027  0.00  0.00    +0.000 A 
ATOM      8  C   UNL     1       2.011   2.845  21.841  0.00  0.00    +0.000 A 
ATOM      9  C   UNL     1       2.925   3.808  21.409  0.00  0.00    +0.000 A 
ATOM     10  C   UNL     1       2.698   4.392  20.172  0.00  0.00    +0.000 A 
ATOM     11  C   UNL     1       3.527   5.333  19.430  0.00  0.00    +0.000 C 
ATOM     12  O   UNL     1       4.608   5.719  19.830  0.00  0.00    +0.000 OA
ENDBRANCH   1   2
BRANCH   1  13
ATOM     13  O   UNL     1       4.980   5.434  17.024  0.00  0.00    +0.000 OA
BRANCH  13  14
ATOM     14  P   UNL     1       5.790   4.966  15.568  0.00  0.00    +0.000 P 
ATOM     15  O   UNL     1       5.874   3.509  16.048  0.00  0.00    +0.000 OA
BRANCH  14  16
ATOM     16  C   UNL     1       6.645   4.471  14.028  0.00  0.00    +0.000 C 
BRANCH  16  17
ATOM     17  C   UNL     1       5.825   3.851  12.898  0.00  0.00    +0.000 C 
BRANCH  17  19
ATOM     18  C   UNL     1       5.904   1.762  11.444  0.00  0.00    +0.000 C 
ATOM     19  C   UNL     1       6.620   3.026  11.892  0.00  0.00    +0.000 C 
ENDBRANCH  17  19
ENDBRANCH  16  17
ENDBRANCH  14  16
BRANCH  14  20
ATOM     20  O   UNL     1       7.161   5.771  16.163  0.00  0.00    +0.000 OA
BRANCH  20  21
ATOM     21  C   UNL     1       7.153   6.811  17.177  0.00  0.00    +0.000 C 
ATOM     22  C   UNL     1       7.963   6.627  18.497  0.00  0.00    +0.000 C 
ENDBRANCH  20  21
ENDBRANCH  14  20
ENDBRANCH  13  14
ENDBRANCH   1  13
TORSDOF 8
ENDMDL
MODEL 7
REMARK VINA RESULT:      -6.5      2.073      6.092
REMARK  Name = 
REMARK  10 active torsions:
REMARK  status: ('A' for Active; 'I' for Inactive)
REMARK    1  A    between atoms: C_1  and  C_2
REMARK    2  A    between atoms: C_2  and  C_3
REMARK    3  A    between atoms: C_3  and  C_4
REMARK    4  A    between atoms: C_4  and  P_5
REMARK    5  A    between atoms: P_5  and  O_7
REMARK    6  A    between atoms: P_5  and  O_10
REMARK    7  A    between atoms: O_7  and  C_8
REMARK    8  A    between atoms: C_8  and  C_9
REMARK    9  A    between atoms: O_10  and  C_11
REMARK   10  A    between atoms: C_11  and  N_12
REMARK                            x       y       z     vdW  Elec       q    Type
REMARK                         _______ _______ _______ _____ _____    ______ ____
ROOT
ATOM      1  C   UNL     1       6.056   4.778  18.194  0.00  0.00    +0.000 C 
ENDROOT
BRANCH   1   2
ATOM      2  N   UNL     1       5.963   4.954  16.763  0.00  0.00    +0.000 N 
ATOM      3  C   UNL     1       6.952   5.566  16.045  0.00  0.00    +0.000 C 
ATOM      4  O   UNL     1       7.872   6.276  16.422  0.00  0.00    +0.000 OA
ATOM      5  C   UNL     1       6.834   5.074  14.665  0.00  0.00    +0.000 A 
ATOM      6  C   UNL     1       7.594   5.329  13.539  0.00  0.00    +0.000 A 
ATOM      7  C   UNL     1       7.322   4.577  12.384  0.00  0.00    +0.000 A 
ATOM      8  C   UNL     1       6.326   3.580  12.386  0.00  0.00    +0.000 A 
ATOM      9  C   UNL     1       5.575   3.332  13.537  0.00  0.00    +0.000 A 
ATOM     10  C   UNL     1       5.839   4.115  14.650  0.00  0.00    +0.000 A 
ATOM     11  C   UNL     1       5.297   4.014  15.998  0.00  0.00    +0.000 C 
ATOM     12  O   UNL     1       4.512   3.147  16.331  0.00  0.00    +0.000 OA
ENDBRANCH   1   2
BRANCH   1  13
ATOM     13  O   UNL     1       5.335   5.705  18.938  0.00  0.00    +0.000 OA
BRANCH  13  14
ATOM     14  P   UNL     1       3.806   5.380  19.681  0.00  0.00    +0.000 P 
ATOM     15  O   UNL     1       4.046   3.867  19.582  0.00  0.00    +0.000 OA
BRANCH  14  16
ATOM     16  C   UNL     1       2.191   5.037  20.469  0.00  0.00    +0.000 C 
BRANCH  16  17
ATOM     17  C   UNL     1       1.825   3.591  20.797  0.00  0.00    +0.000 C 
BRANCH  17  19
ATOM     18  C   UNL     1       0.980   2.461  18.676  0.00  0.00    +0.000 C 
ATOM     19  C   UNL     1       0.625   3.034  20.040  0.00  0.00    +0.000 C 
ENDBRANCH  17  19
ENDBRANCH  16  17
ENDBRANCH  14  16
BRANCH  14  20
ATOM     20  O   UNL     1       3.082   5.870  18.226  0.00  0.00    +0.000 OA
BRANCH  20  21
ATOM     21  C   UNL     1       2.100   6.931  18.089  0.00  0.00    +0.000 C 
ATOM     22  C   UNL     1       2.561   8.400  17.838  0.00  0.00    +0.000 C 
ENDBRANCH  20  21
ENDBRANCH  14  20
ENDBRANCH  13  14
ENDBRANCH   1  13
TORSDOF 8
ENDMDL
MODEL 8
REMARK VINA RESULT:      -6.5      0.743      1.926
REMARK  Name = 
REMARK  10 active torsions:
REMARK  status: ('A' for Active; 'I' for Inactive)
REMARK    1  A    between atoms: C_1  and  C_2
REMARK    2  A    between atoms: C_2  and  C_3
REMARK    3  A    between atoms: C_3  and  C_4
REMARK    4  A    between atoms: C_4  and  P_5
REMARK    5  A    between atoms: P_5  and  O_7
REMARK    6  A    between atoms: P_5  and  O_10
REMARK    7  A    between atoms: O_7  and  C_8
REMARK    8  A    between atoms: C_8  and  C_9
REMARK    9  A    between atoms: O_10  and  C_11
REMARK   10  A    between atoms: C_11  and  N_12
REMARK                            x       y       z     vdW  Elec       q    Type
REMARK                         _______ _______ _______ _____ _____    ______ ____
ROOT
ATOM      1  C   UNL     1       5.949   5.267  19.311  0.00  0.00    +0.000 C 
ENDROOT
BRANCH   1   2
ATOM      2  N   UNL     1       4.669   4.674  19.626  0.00  0.00    +0.000 N 
ATOM      3  C   UNL     1       3.490   5.301  19.335  0.00  0.00    +0.000 C 
ATOM      4  O   UNL     1       3.270   6.470  19.058  0.00  0.00    +0.000 OA
ATOM      5  C   UNL     1       2.469   4.249  19.235  0.00  0.00    +0.000 A 
ATOM      6  C   UNL     1       1.123   4.312  18.926  0.00  0.00    +0.000 A 
ATOM      7  C   UNL     1       0.435   3.099  18.754  0.00  0.00    +0.000 A 
ATOM      8  C   UNL     1       1.104   1.864  18.870  0.00  0.00    +0.000 A 
ATOM      9  C   UNL     1       2.466   1.822  19.175  0.00  0.00    +0.000 A 
ATOM     10  C   UNL     1       3.111   3.034  19.375  0.00  0.00    +0.000 A 
ATOM     11  C   UNL     1       4.526   3.299  19.599  0.00  0.00    +0.000 C 
ATOM     12  O   UNL     1       5.369   2.423  19.606  0.00  0.00    +0.000 OA
ENDBRANCH   1   2
BRANCH   1  13
ATOM     13  O   UNL     1       5.969   6.002  18.131  0.00  0.00    +0.000 OA
BRANCH  13  14
ATOM     14  P   UNL     1       6.724   5.471  16.667  0.00  0.00    +0.000 P 
ATOM     15  O   UNL     1       7.481   4.368  17.422  0.00  0.00    +0.000 OA
BRANCH  14  16
ATOM     16  C   UNL     1       7.521   4.909  15.119  0.00  0.00    +0.000 C 
BRANCH  16  17
ATOM     17  C   UNL     1       6.692   4.872  13.837  0.00  0.00    +0.000 C 
BRANCH  17  19
ATOM     18  C   UNL     1       5.646   3.288  12.138  0.00  0.00    +0.000 C 
ATOM     19  C   UNL     1       5.904   3.587  13.606  0.00  0.00    +0.000 C 
ENDBRANCH  17  19
ENDBRANCH  16  17
ENDBRANCH  14  16
BRANCH  14  20
ATOM     20  O   UNL     1       7.676   6.874  16.740  0.00  0.00    +0.000 OA
BRANCH  20  21
ATOM     21  C   UNL     1       7.308   8.108  17.413  0.00  0.00    +0.000 C 
ATOM     22  C   UNL     1       8.396   8.968  18.127  0.00  0.00    +0.000 C 
ENDBRANCH  20  21
ENDBRANCH  14  20
ENDBRANCH  13  14
ENDBRANCH   1  13
TORSDOF 8
ENDMDL
MODEL 9
REMARK VINA RESULT:      -6.5      2.284      6.032
REMARK  Name = 
REMARK  10 active torsions:
REMARK  status: ('A' for Active; 'I' for Inactive)
REMARK    1  A    between atoms: C_1  and  C_2
REMARK    2  A    between atoms: C_2  and  C_3
REMARK    3  A    between atoms: C_3  and  C_4
REMARK    4  A    between atoms: C_4  and  P_5
REMARK    5  A    between atoms: P_5  and  O_7
REMARK    6  A    between atoms: P_5  and  O_10
REMARK    7  A    between atoms: O_7  and  C_8
REMARK    8  A    between atoms: C_8  and  C_9
REMARK    9  A    between atoms: O_10  and  C_11
REMARK   10  A    between atoms: C_11  and  N_12
REMARK                            x       y       z     vdW  Elec       q    Type
REMARK                         _______ _______ _______ _____ _____    ______ ____
ROOT
ATOM      1  C   UNL     1       5.609   5.435  18.327  0.00  0.00    +0.000 C 
ENDROOT
BRANCH   1   2
ATOM      2  N   UNL     1       6.165   4.840  17.134  0.00  0.00    +0.000 N 
ATOM      3  C   UNL     1       5.471   3.926  16.391  0.00  0.00    +0.000 C 
ATOM      4  O   UNL     1       4.485   3.264  16.681  0.00  0.00    +0.000 OA
ATOM      5  C   UNL     1       6.027   3.979  15.032  0.00  0.00    +0.000 A 
ATOM      6  C   UNL     1       5.679   3.303  13.878  0.00  0.00    +0.000 A 
ATOM      7  C   UNL     1       6.305   3.690  12.681  0.00  0.00    +0.000 A 
ATOM      8  C   UNL     1       7.237   4.748  12.659  0.00  0.00    +0.000 A 
ATOM      9  C   UNL     1       7.568   5.423  13.835  0.00  0.00    +0.000 A 
ATOM     10  C   UNL     1       6.963   4.996  15.007  0.00  0.00    +0.000 A 
ATOM     11  C   UNL     1       7.035   5.569  16.345  0.00  0.00    +0.000 C 
ATOM     12  O   UNL     1       7.660   6.581  16.596  0.00  0.00    +0.000 OA
ENDBRANCH   1   2
BRANCH   1  13
ATOM     13  O   UNL     1       4.380   6.058  18.142  0.00  0.00    +0.000 OA
BRANCH  13  14
ATOM     14  P   UNL     1       2.991   5.786  19.139  0.00  0.00    +0.000 P 
ATOM     15  O   UNL     1       2.221   5.185  17.953  0.00  0.00    +0.000 OA
BRANCH  14  16
ATOM     16  C   UNL     1       1.524   5.497  20.193  0.00  0.00    +0.000 C 
BRANCH  16  17
ATOM     17  C   UNL     1       1.200   4.069  20.627  0.00  0.00    +0.000 C 
BRANCH  17  19
ATOM     18  C   UNL     1       1.930   2.018  19.305  0.00  0.00    +0.000 C 
ATOM     19  C   UNL     1       2.298   3.043  20.366  0.00  0.00    +0.000 C 
ENDBRANCH  17  19
ENDBRANCH  16  17
ENDBRANCH  14  16
BRANCH  14  20
ATOM     20  O   UNL     1       2.735   7.463  19.106  0.00  0.00    +0.000 OA
BRANCH  20  21
ATOM     21  C   UNL     1       2.352   8.234  17.937  0.00  0.00    +0.000 C 
ATOM     22  C   UNL     1       1.735   9.658  18.102  0.00  0.00    +0.000 C 
ENDBRANCH  20  21
ENDBRANCH  14  20
ENDBRANCH  13  14
ENDBRANCH   1  13
TORSDOF 8
ENDMDL
