MODEL 1
REMARK VINA RESULT:      -8.6      0.000      0.000
REMARK  Name = 
REMARK  3 active torsions:
REMARK  status: ('A' for Active; 'I' for Inactive)
REMARK    1  A    between atoms: C_1  and  C_2
REMARK    2  A    between atoms: C_4  and  N_5
REMARK    3  A    between atoms: N_5  and  C_6
REMARK                            x       y       z     vdW  Elec       q    Type
REMARK                         _______ _______ _______ _____ _____    ______ ____
ROOT
ATOM      1  N   UNL     1       3.594   4.500  18.393  0.00  0.00    +0.000 N 
ATOM      2  H   UNL     1       2.984   3.700  18.215  0.00  0.00    +0.000 HD
ENDROOT
BRANCH   1   6
ATOM      3  C   UNL     1       6.297   3.905  14.267  0.00  0.00    +0.000 C 
ATOM      4  C   UNL     1       6.223   4.228  15.739  0.00  0.00    +0.000 A 
ATOM      5  C   UNL     1       4.872   4.176  16.366  0.00  0.00    +0.000 A 
ATOM      6  C   UNL     1       4.785   4.472  17.676  0.00  0.00    +0.000 A 
ATOM      7  N   UNL     1       5.976   4.828  18.343  0.00  0.00    +0.000 N 
ATOM      8  N   UNL     1       6.153   5.187  19.646  0.00  0.00    +0.000 NA
ATOM      9  C   UNL     1       7.475   5.363  19.701  0.00  0.00    +0.000 A 
ATOM     10  N   UNL     1       8.151   5.168  18.539  0.00  0.00    +0.000 NA
ATOM     11  C   UNL     1       7.212   4.836  17.683  0.00  0.00    +0.000 A 
ATOM     12  N   UNL     1       7.323   4.533  16.356  0.00  0.00    +0.000 NA
ENDBRANCH   1   6
BRANCH   1  13
ATOM     13  C   UNL     1       2.911   5.645  18.854  0.00  0.00    +0.000 A 
ATOM     14  C   UNL     1       2.342   5.619  20.130  0.00  0.00    +0.000 A 
ATOM     15  C   UNL     1       1.710   6.749  20.659  0.00  0.00    +0.000 A 
ATOM     16  C   UNL     1       1.619   7.935  19.915  0.00  0.00    +0.000 A 
ATOM     17  C   UNL     1       0.986   9.078  20.429  0.00  0.00    +0.000 A 
ATOM     18  C   UNL     1       0.896  10.247  19.671  0.00  0.00    +0.000 A 
ATOM     19  C   UNL     1       1.438  10.287  18.390  0.00  0.00    +0.000 A 
ATOM     20  C   UNL     1       2.074   9.159  17.867  0.00  0.00    +0.000 A 
ATOM     21  C   UNL     1       2.173   7.975  18.618  0.00  0.00    +0.000 A 
ATOM     22  C   UNL     1       2.813   6.830  18.108  0.00  0.00    +0.000 A 
ENDBRANCH   1  13
TORSDOF 2
ENDMDL
MODEL 2
REMARK VINA RESULT:      -8.3      0.627      1.645
REMARK  Name = 
REMARK  3 active torsions:
REMARK  status: ('A' for Active; 'I' for Inactive)
REMARK    1  A    between atoms: C_1  and  C_2
REMARK    2  A    between atoms: C_4  and  N_5
REMARK    3  A    between atoms: N_5  and  C_6
REMARK                            x       y       z     vdW  Elec       q    Type
REMARK                         _______ _______ _______ _____ _____    ______ ____
ROOT
ATOM      1  N   UNL     1       3.683   5.030  18.446  0.00  0.00    +0.000 N 
ATOM      2  H   UNL     1       3.032   4.242  18.436  0.00  0.00    +0.000 HD
ENDROOT
BRANCH   1   6
ATOM      3  C   UNL     1       6.262   3.916  14.348  0.00  0.00    +0.000 C 
ATOM      4  C   UNL     1       6.238   4.289  15.810  0.00  0.00    +0.000 A 
ATOM      5  C   UNL     1       4.896   4.459  16.433  0.00  0.00    +0.000 A 
ATOM      6  C   UNL     1       4.855   4.803  17.733  0.00  0.00    +0.000 A 
ATOM      7  N   UNL     1       6.087   4.996  18.394  0.00  0.00    +0.000 N 
ATOM      8  N   UNL     1       6.317   5.363  19.687  0.00  0.00    +0.000 NA
ATOM      9  C   UNL     1       7.650   5.340  19.741  0.00  0.00    +0.000 A 
ATOM     10  N   UNL     1       8.289   5.012  18.587  0.00  0.00    +0.000 NA
ATOM     11  C   UNL     1       7.309   4.800  17.738  0.00  0.00    +0.000 A 
ATOM     12  N   UNL     1       7.373   4.444  16.421  0.00  0.00    +0.000 NA
ENDBRANCH   1   6
BRANCH   1  13
ATOM     13  C   UNL     1       3.063   6.276  18.680  0.00  0.00    +0.000 A 
ATOM     14  C   UNL     1       3.080   7.236  17.664  0.00  0.00    +0.000 A 
ATOM     15  C   UNL     1       2.425   8.461  17.822  0.00  0.00    +0.000 A 
ATOM     16  C   UNL     1       1.746   8.765  19.011  0.00  0.00    +0.000 A 
ATOM     17  C   UNL     1       1.085   9.991  19.188  0.00  0.00    +0.000 A 
ATOM     18  C   UNL     1       0.420  10.279  20.382  0.00  0.00    +0.000 A 
ATOM     19  C   UNL     1       0.409   9.345  21.413  0.00  0.00    +0.000 A 
ATOM     20  C   UNL     1       1.058   8.120  21.250  0.00  0.00    +0.000 A 
ATOM     21  C   UNL     1       1.731   7.814  20.054  0.00  0.00    +0.000 A 
ATOM     22  C   UNL     1       2.388   6.583  19.872  0.00  0.00    +0.000 A 
ENDBRANCH   1  13
TORSDOF 2
ENDMDL
MODEL 3
REMARK VINA RESULT:      -8.0      1.815      3.237
REMARK  Name = 
REMARK  3 active torsions:
REMARK  status: ('A' for Active; 'I' for Inactive)
REMARK    1  A    between atoms: C_1  and  C_2
REMARK    2  A    between atoms: C_4  and  N_5
REMARK    3  A    between atoms: N_5  and  C_6
REMARK                            x       y       z     vdW  Elec       q    Type
REMARK                         _______ _______ _______ _____ _____    ______ ____
ROOT
ATOM      1  N   UNL     1       2.809   6.501  17.878  0.00  0.00    +0.000 N 
ATOM      2  H   UNL     1       2.594   6.463  16.879  0.00  0.00    +0.000 HD
ENDROOT
BRANCH   1   6
ATOM      3  C   UNL     1       7.748   6.218  18.334  0.00  0.00    +0.000 C 
ATOM      4  C   UNL     1       6.386   5.595  18.518  0.00  0.00    +0.000 A 
ATOM      5  C   UNL     1       5.218   6.397  18.058  0.00  0.00    +0.000 A 
ATOM      6  C   UNL     1       3.995   5.863  18.225  0.00  0.00    +0.000 A 
ATOM      7  N   UNL     1       3.917   4.596  18.840  0.00  0.00    +0.000 N 
ATOM      8  N   UNL     1       2.811   3.856  19.139  0.00  0.00    +0.000 NA
ATOM      9  C   UNL     1       3.357   2.755  19.662  0.00  0.00    +0.000 A 
ATOM     10  N   UNL     1       4.713   2.741  19.741  0.00  0.00    +0.000 NA
ATOM     11  C   UNL     1       5.067   3.898  19.230  0.00  0.00    +0.000 A 
ATOM     12  N   UNL     1       6.319   4.420  19.064  0.00  0.00    +0.000 NA
ENDBRANCH   1   6
BRANCH   1  13
ATOM     13  C   UNL     1       2.204   7.585  18.549  0.00  0.00    +0.000 A 
ATOM     14  C   UNL     1       1.843   8.715  17.810  0.00  0.00    +0.000 A 
ATOM     15  C   UNL     1       1.183   9.789  18.415  0.00  0.00    +0.000 A 
ATOM     16  C   UNL     1       0.879   9.766  19.784  0.00  0.00    +0.000 A 
ATOM     17  C   UNL     1       0.219  10.837  20.408  0.00  0.00    +0.000 A 
ATOM     18  C   UNL     1      -0.068  10.800  21.775  0.00  0.00    +0.000 A 
ATOM     19  C   UNL     1       0.302   9.693  22.532  0.00  0.00    +0.000 A 
ATOM     20  C   UNL     1       0.955   8.620  21.925  0.00  0.00    +0.000 A 
ATOM     21  C   UNL     1       1.251   8.641  20.550  0.00  0.00    +0.000 A 
ATOM     22  C   UNL     1       1.906   7.566  19.920  0.00  0.00    +0.000 A 
ENDBRANCH   1  13
TORSDOF 2
ENDMDL
MODEL 4
REMARK VINA RESULT:      -8.0      1.885      6.672
REMARK  Name = 
REMARK  3 active torsions:
REMARK  status: ('A' for Active; 'I' for Inactive)
REMARK    1  A    between atoms: C_1  and  C_2
REMARK    2  A    between atoms: C_4  and  N_5
REMARK    3  A    between atoms: N_5  and  C_6
REMARK                            x       y       z     vdW  Elec       q    Type
REMARK                         _______ _______ _______ _____ _____    ______ ____
ROOT
ATOM      1  N   UNL     1       5.039   3.821  18.095  0.00  0.00    +0.000 N 
ATOM      2  H   UNL     1       5.609   3.226  18.700  0.00  0.00    +0.000 HD
ENDROOT
BRANCH   1   6
ATOM      3  C   UNL     1       2.222   7.841  18.862  0.00  0.00    +0.000 C 
ATOM      4  C   UNL     1       2.626   6.441  19.254  0.00  0.00    +0.000 A 
ATOM      5  C   UNL     1       3.707   5.808  18.446  0.00  0.00    +0.000 A 
ATOM      6  C   UNL     1       4.073   4.556  18.773  0.00  0.00    +0.000 A 
ATOM      7  N   UNL     1       3.390   3.937  19.841  0.00  0.00    +0.000 N 
ATOM      8  N   UNL     1       3.554   2.683  20.350  0.00  0.00    +0.000 NA
ATOM      9  C   UNL     1       2.675   2.682  21.355  0.00  0.00    +0.000 A 
ATOM     10  N   UNL     1       1.951   3.821  21.515  0.00  0.00    +0.000 NA
ATOM     11  C   UNL     1       2.394   4.609  20.562  0.00  0.00    +0.000 A 
ATOM     12  N   UNL     1       2.012   5.883  20.251  0.00  0.00    +0.000 NA
ENDBRANCH   1   6
BRANCH   1  13
ATOM     13  C   UNL     1       5.672   4.171  16.883  0.00  0.00    +0.000 A 
ATOM     14  C   UNL     1       6.762   5.045  16.923  0.00  0.00    +0.000 A 
ATOM     15  C   UNL     1       7.464   5.372  15.759  0.00  0.00    +0.000 A 
ATOM     16  C   UNL     1       7.082   4.843  14.517  0.00  0.00    +0.000 A 
ATOM     17  C   UNL     1       7.774   5.163  13.337  0.00  0.00    +0.000 A 
ATOM     18  C   UNL     1       7.373   4.634  12.109  0.00  0.00    +0.000 A 
ATOM     19  C   UNL     1       6.278   3.778  12.045  0.00  0.00    +0.000 A 
ATOM     20  C   UNL     1       5.583   3.448  13.210  0.00  0.00    +0.000 A 
ATOM     21  C   UNL     1       5.973   3.972  14.454  0.00  0.00    +0.000 A 
ATOM     22  C   UNL     1       5.286   3.648  15.639  0.00  0.00    +0.000 A 
ENDBRANCH   1  13
TORSDOF 2
ENDMDL
MODEL 5
REMARK VINA RESULT:      -8.0      1.928      3.457
REMARK  Name = 
REMARK  3 active torsions:
REMARK  status: ('A' for Active; 'I' for Inactive)
REMARK    1  A    between atoms: C_1  and  C_2
REMARK    2  A    between atoms: C_4  and  N_5
REMARK    3  A    between atoms: N_5  and  C_6
REMARK                            x       y       z     vdW  Elec       q    Type
REMARK                         _______ _______ _______ _____ _____    ______ ____
ROOT
ATOM      1  N   UNL     1       2.802   7.133  17.889  0.00  0.00    +0.000 N 
ATOM      2  H   UNL     1       3.547   7.540  17.321  0.00  0.00    +0.000 HD
ENDROOT
BRANCH   1   6
ATOM      3  C   UNL     1       1.349   2.428  18.548  0.00  0.00    +0.000 C 
ATOM      4  C   UNL     1       2.443   3.467  18.568  0.00  0.00    +0.000 A 
ATOM      5  C   UNL     1       2.045   4.860  18.221  0.00  0.00    +0.000 A 
ATOM      6  C   UNL     1       3.009   5.799  18.222  0.00  0.00    +0.000 A 
ATOM      7  N   UNL     1       4.321   5.383  18.530  0.00  0.00    +0.000 N 
ATOM      8  N   UNL     1       5.465   6.123  18.578  0.00  0.00    +0.000 NA
ATOM      9  C   UNL     1       6.362   5.211  18.958  0.00  0.00    +0.000 A 
ATOM     10  N   UNL     1       5.890   3.948  19.135  0.00  0.00    +0.000 NA
ATOM     11  C   UNL     1       4.610   4.053  18.862  0.00  0.00    +0.000 A 
ATOM     12  N   UNL     1       3.645   3.086  18.874  0.00  0.00    +0.000 NA
ENDBRANCH   1   6
BRANCH   1  13
ATOM     13  C   UNL     1       2.067   8.085  18.627  0.00  0.00    +0.000 A 
ATOM     14  C   UNL     1       1.494   9.164  17.949  0.00  0.00    +0.000 A 
ATOM     15  C   UNL     1       0.702  10.099  18.624  0.00  0.00    +0.000 A 
ATOM     16  C   UNL     1       0.475   9.986  20.003  0.00  0.00    +0.000 A 
ATOM     17  C   UNL     1      -0.315  10.917  20.697  0.00  0.00    +0.000 A 
ATOM     18  C   UNL     1      -0.523  10.793  22.072  0.00  0.00    +0.000 A 
ATOM     19  C   UNL     1       0.055   9.737  22.769  0.00  0.00    +0.000 A 
ATOM     20  C   UNL     1       0.840   8.801  22.093  0.00  0.00    +0.000 A 
ATOM     21  C   UNL     1       1.059   8.912  20.708  0.00  0.00    +0.000 A 
ATOM     22  C   UNL     1       1.844   7.976  20.009  0.00  0.00    +0.000 A 
ENDBRANCH   1  13
TORSDOF 2
ENDMDL
MODEL 6
REMARK VINA RESULT:      -7.9      1.968      3.647
REMARK  Name = 
REMARK  3 active torsions:
REMARK  status: ('A' for Active; 'I' for Inactive)
REMARK    1  A    between atoms: C_1  and  C_2
REMARK    2  A    between atoms: C_4  and  N_5
REMARK    3  A    between atoms: N_5  and  C_6
REMARK                            x       y       z     vdW  Elec       q    Type
REMARK                         _______ _______ _______ _____ _____    ______ ____
ROOT
ATOM      1  N   UNL     1       2.911   6.278  19.985  0.00  0.00    +0.000 N 
ATOM      2  H   UNL     1       2.683   5.861  20.890  0.00  0.00    +0.000 HD
ENDROOT
BRANCH   1   6
ATOM      3  C   UNL     1       6.361   4.506  16.880  0.00  0.00    +0.000 C 
ATOM      4  C   UNL     1       4.997   4.388  17.514  0.00  0.00    +0.000 A 
ATOM      5  C   UNL     1       4.609   5.466  18.467  0.00  0.00    +0.000 A 
ATOM      6  C   UNL     1       3.401   5.371  19.052  0.00  0.00    +0.000 A 
ATOM      7  N   UNL     1       2.609   4.248  18.731  0.00  0.00    +0.000 N 
ATOM      8  N   UNL     1       1.373   3.912  19.197  0.00  0.00    +0.000 NA
ATOM      9  C   UNL     1       1.125   2.790  18.516  0.00  0.00    +0.000 A 
ATOM     10  N   UNL     1       2.106   2.374  17.674  0.00  0.00    +0.000 NA
ATOM     11  C   UNL     1       3.042   3.285  17.811  0.00  0.00    +0.000 A 
ATOM     12  N   UNL     1       4.262   3.366  17.201  0.00  0.00    +0.000 NA
ENDBRANCH   1   6
BRANCH   1  13
ATOM     13  C   UNL     1       2.208   7.472  19.716  0.00  0.00    +0.000 A 
ATOM     14  C   UNL     1       2.215   7.976  18.413  0.00  0.00    +0.000 A 
ATOM     15  C   UNL     1       1.481   9.120  18.081  0.00  0.00    +0.000 A 
ATOM     16  C   UNL     1       0.730   9.799  19.052  0.00  0.00    +0.000 A 
ATOM     17  C   UNL     1      -0.010  10.950  18.736  0.00  0.00    +0.000 A 
ATOM     18  C   UNL     1      -0.746  11.617  19.718  0.00  0.00    +0.000 A 
ATOM     19  C   UNL     1      -0.749  11.142  21.026  0.00  0.00    +0.000 A 
ATOM     20  C   UNL     1      -0.021   9.997  21.354  0.00  0.00    +0.000 A 
ATOM     21  C   UNL     1       0.724   9.313  20.377  0.00  0.00    +0.000 A 
ATOM     22  C   UNL     1       1.461   8.155  20.689  0.00  0.00    +0.000 A 
ENDBRANCH   1  13
TORSDOF 2
ENDMDL
MODEL 7
REMARK VINA RESULT:      -7.9      1.793      3.732
REMARK  Name = 
REMARK  3 active torsions:
REMARK  status: ('A' for Active; 'I' for Inactive)
REMARK    1  A    between atoms: C_1  and  C_2
REMARK    2  A    between atoms: C_4  and  N_5
REMARK    3  A    between atoms: N_5  and  C_6
REMARK                            x       y       z     vdW  Elec       q    Type
REMARK                         _______ _______ _______ _____ _____    ______ ____
ROOT
ATOM      1  N   UNL     1       2.896   6.468  19.872  0.00  0.00    +0.000 N 
ATOM      2  H   UNL     1       3.211   6.372  20.839  0.00  0.00    +0.000 HD
ENDROOT
BRANCH   1   6
ATOM      3  C   UNL     1       0.669   2.168  18.761  0.00  0.00    +0.000 C 
ATOM      4  C   UNL     1       1.800   3.143  18.542  0.00  0.00    +0.000 A 
ATOM      5  C   UNL     1       1.791   4.374  19.381  0.00  0.00    +0.000 A 
ATOM      6  C   UNL     1       2.785   5.261  19.192  0.00  0.00    +0.000 A 
ATOM      7  N   UNL     1       3.742   4.962  18.200  0.00  0.00    +0.000 N 
ATOM      8  N   UNL     1       4.822   5.695  17.803  0.00  0.00    +0.000 NA
ATOM      9  C   UNL     1       5.364   4.898  16.880  0.00  0.00    +0.000 A 
ATOM     10  N   UNL     1       4.710   3.732  16.639  0.00  0.00    +0.000 NA
ATOM     11  C   UNL     1       3.688   3.771  17.463  0.00  0.00    +0.000 A 
ATOM     12  N   UNL     1       2.691   2.855  17.645  0.00  0.00    +0.000 NA
ENDBRANCH   1   6
BRANCH   1  13
ATOM     13  C   UNL     1       2.159   7.647  19.629  0.00  0.00    +0.000 A 
ATOM     14  C   UNL     1       2.143   8.174  18.335  0.00  0.00    +0.000 A 
ATOM     15  C   UNL     1       1.377   9.303  18.027  0.00  0.00    +0.000 A 
ATOM     16  C   UNL     1       0.615   9.945  19.014  0.00  0.00    +0.000 A 
ATOM     17  C   UNL     1      -0.158  11.080  18.724  0.00  0.00    +0.000 A 
ATOM     18  C   UNL     1      -0.904  11.711  19.722  0.00  0.00    +0.000 A 
ATOM     19  C   UNL     1      -0.886  11.214  21.021  0.00  0.00    +0.000 A 
ATOM     20  C   UNL     1      -0.125  10.084  21.324  0.00  0.00    +0.000 A 
ATOM     21  C   UNL     1       0.631   9.437  20.331  0.00  0.00    +0.000 A 
ATOM     22  C   UNL     1       1.401   8.294  20.618  0.00  0.00    +0.000 A 
ENDBRANCH   1  13
TORSDOF 2
ENDMDL
MODEL 8
REMARK VINA RESULT:      -7.9      1.747      3.145
REMARK  Name = 
REMARK  3 active torsions:
REMARK  status: ('A' for Active; 'I' for Inactive)
REMARK    1  A    between atoms: C_1  and  C_2
REMARK    2  A    between atoms: C_4  and  N_5
REMARK    3  A    between atoms: N_5  and  C_6
REMARK                            x       y       z     vdW  Elec       q    Type
REMARK                         _______ _______ _______ _____ _____    ______ ____
ROOT
ATOM      1  N   UNL     1       3.127   6.854  17.781  0.00  0.00    +0.000 N 
ATOM      2  H   UNL     1       3.529   7.209  16.911  0.00  0.00    +0.000 HD
ENDROOT
BRANCH   1   6
ATOM      3  C   UNL     1       3.466   2.500  20.150  0.00  0.00    +0.000 C 
ATOM      4  C   UNL     1       4.137   3.662  19.460  0.00  0.00    +0.000 A 
ATOM      5  C   UNL     1       3.245   4.746  18.960  0.00  0.00    +0.000 A 
ATOM      6  C   UNL     1       3.825   5.785  18.331  0.00  0.00    +0.000 A 
ATOM      7  N   UNL     1       5.227   5.752  18.178  0.00  0.00    +0.000 N 
ATOM      8  N   UNL     1       6.043   6.659  17.569  0.00  0.00    +0.000 NA
ATOM      9  C   UNL     1       7.247   6.120  17.774  0.00  0.00    +0.000 A 
ATOM     10  N   UNL     1       7.264   4.937  18.443  0.00  0.00    +0.000 NA
ATOM     11  C   UNL     1       5.997   4.701  18.693  0.00  0.00    +0.000 A 
ATOM     12  N   UNL     1       5.429   3.641  19.340  0.00  0.00    +0.000 NA
ENDBRANCH   1   6
BRANCH   1  13
ATOM     13  C   UNL     1       2.349   7.804  18.477  0.00  0.00    +0.000 A 
ATOM     14  C   UNL     1       1.781   8.861  17.760  0.00  0.00    +0.000 A 
ATOM     15  C   UNL     1       0.949   9.792  18.391  0.00  0.00    +0.000 A 
ATOM     16  C   UNL     1       0.675   9.697  19.763  0.00  0.00    +0.000 A 
ATOM     17  C   UNL     1      -0.155  10.624  20.413  0.00  0.00    +0.000 A 
ATOM     18  C   UNL     1      -0.410  10.519  21.782  0.00  0.00    +0.000 A 
ATOM     19  C   UNL     1       0.162   9.485  22.517  0.00  0.00    +0.000 A 
ATOM     20  C   UNL     1       0.987   8.554  21.884  0.00  0.00    +0.000 A 
ATOM     21  C   UNL     1       1.253   8.646  20.506  0.00  0.00    +0.000 A 
ATOM     22  C   UNL     1       2.079   7.713  19.851  0.00  0.00    +0.000 A 
ENDBRANCH   1  13
TORSDOF 2
ENDMDL
MODEL 9
REMARK VINA RESULT:      -7.9      1.645      2.680
REMARK  Name = 
REMARK  3 active torsions:
REMARK  status: ('A' for Active; 'I' for Inactive)
REMARK    1  A    between atoms: C_1  and  C_2
REMARK    2  A    between atoms: C_4  and  N_5
REMARK    3  A    between atoms: N_5  and  C_6
REMARK                            x       y       z     vdW  Elec       q    Type
REMARK                         _______ _______ _______ _____ _____    ______ ____
ROOT
ATOM      1  N   UNL     1       3.656   6.001  17.510  0.00  0.00    +0.000 N 
ATOM      2  H   UNL     1       3.130   5.464  16.817  0.00  0.00    +0.000 HD
ENDROOT
BRANCH   1   6
ATOM      3  C   UNL     1       8.020   8.353  17.847  0.00  0.00    +0.000 C 
ATOM      4  C   UNL     1       7.173   7.262  17.239  0.00  0.00    +0.000 A 
ATOM      5  C   UNL     1       5.754   7.191  17.689  0.00  0.00    +0.000 A 
ATOM      6  C   UNL     1       4.986   6.217  17.166  0.00  0.00    +0.000 A 
ATOM      7  N   UNL     1       5.593   5.331  16.251  0.00  0.00    +0.000 N 
ATOM      8  N   UNL     1       5.047   4.263  15.604  0.00  0.00    +0.000 NA
ATOM      9  C   UNL     1       6.072   3.848  14.856  0.00  0.00    +0.000 A 
ATOM     10  N   UNL     1       7.229   4.548  14.988  0.00  0.00    +0.000 NA
ATOM     11  C   UNL     1       6.932   5.477  15.868  0.00  0.00    +0.000 A 
ATOM     12  N   UNL     1       7.727   6.463  16.381  0.00  0.00    +0.000 NA
ENDBRANCH   1   6
BRANCH   1  13
ATOM     13  C   UNL     1       2.849   6.822  18.325  0.00  0.00    +0.000 A 
ATOM     14  C   UNL     1       2.579   6.412  19.634  0.00  0.00    +0.000 A 
ATOM     15  C   UNL     1       1.838   7.220  20.502  0.00  0.00    +0.000 A 
ATOM     16  C   UNL     1       1.334   8.458  20.077  0.00  0.00    +0.000 A 
ATOM     17  C   UNL     1       0.586   9.281  20.935  0.00  0.00    +0.000 A 
ATOM     18  C   UNL     1       0.084  10.506  20.491  0.00  0.00    +0.000 A 
ATOM     19  C   UNL     1       0.325  10.923  19.186  0.00  0.00    +0.000 A 
ATOM     20  C   UNL     1       1.070  10.118  18.322  0.00  0.00    +0.000 A 
ATOM     21  C   UNL     1       1.582   8.882  18.754  0.00  0.00    +0.000 A 
ATOM     22  C   UNL     1       2.338   8.058  17.899  0.00  0.00    +0.000 A 
ENDBRANCH   1  13
TORSDOF 2
ENDMDL
