MODEL 1
REMARK VINA RESULT:      -7.9      0.000      0.000
REMARK  Name = 
REMARK  5 active torsions:
REMARK  status: ('A' for Active; 'I' for Inactive)
REMARK    1  A    between atoms: C_1  and  N_2
REMARK    2  A    between atoms: C_3  and  C_4
REMARK    3  A    between atoms: C_8  and  C_9
REMARK    4  A    between atoms: C_19  and  C_20
REMARK    5  A    between atoms: C_19  and  C_21
REMARK                            x       y       z     vdW  Elec       q    Type
REMARK                         _______ _______ _______ _____ _____    ______ ____
ROOT
ATOM      1  C   UNL     1       3.111   6.868  18.553  0.00  0.00    +0.000 A 
ATOM      2  C   UNL     1       4.380   7.052  17.987  0.00  0.00    +0.000 A 
ATOM      3  C   UNL     1       5.228   5.971  17.847  0.00  0.00    +0.000 A 
ATOM      4  C   UNL     1       4.907   4.743  18.413  0.00  0.00    +0.000 A 
ATOM      5  C   UNL     1       3.693   4.514  19.016  0.00  0.00    +0.000 A 
ATOM      6  C   UNL     1       2.790   5.583  19.058  0.00  0.00    +0.000 A 
ATOM      7  F   UNL     1       1.592   5.358  19.621  0.00  0.00    +0.000 F 
ATOM      8  N   UNL     1       6.011   3.903  18.335  0.00  0.00    +0.000 N 
ATOM      9  C   UNL     1       7.110   4.567  17.777  0.00  0.00    +0.000 C 
ATOM     10  O   UNL     1       8.248   4.137  17.721  0.00  0.00    +0.000 OA
ATOM     11  C   UNL     1       6.575   5.884  17.169  0.00  0.00    +0.000 C 
ATOM     12  C   UNL     1       6.393   5.620  15.663  0.00  0.00    +0.000 C 
ATOM     13  C   UNL     1       7.440   7.117  17.390  0.00  0.00    +0.000 C 
ATOM     14  H   UNL     1       6.086   2.991  18.760  0.00  0.00    +0.000 HD
ENDROOT
BRANCH   1  20
ATOM     15  C   UNL     1       1.832   8.043  21.148  0.00  0.00    +0.000 C 
ATOM     16  N   UNL     1       1.563   8.481  19.791  0.00  0.00    +0.000 N 
ATOM     17  C   UNL     1       0.689   9.497  19.475  0.00  0.00    +0.000 A 
ATOM     18  C   UNL     1       0.783   9.736  18.121  0.00  0.00    +0.000 A 
ATOM     19  C   UNL     1       1.707   8.807  17.595  0.00  0.00    +0.000 A 
ATOM     20  C   UNL     1       2.166   7.997  18.629  0.00  0.00    +0.000 A 
BRANCH  17  21
ATOM     21  C   UNL     1      -0.151  10.187  20.397  0.00  0.00    +0.000 C 
ATOM     22  N   UNL     1      -0.803  10.761  21.161  0.00  0.00    +0.000 NA
ENDBRANCH  17  21
ENDBRANCH   1  20
TORSDOF 2
ENDMDL
MODEL 2
REMARK VINA RESULT:      -7.7      1.181      1.832
REMARK  Name = 
REMARK  5 active torsions:
REMARK  status: ('A' for Active; 'I' for Inactive)
REMARK    1  A    between atoms: C_1  and  N_2
REMARK    2  A    between atoms: C_3  and  C_4
REMARK    3  A    between atoms: C_8  and  C_9
REMARK    4  A    between atoms: C_19  and  C_20
REMARK    5  A    between atoms: C_19  and  C_21
REMARK                            x       y       z     vdW  Elec       q    Type
REMARK                         _______ _______ _______ _____ _____    ______ ____
ROOT
ATOM      1  C   UNL     1       3.259   6.242  18.807  0.00  0.00    +0.000 A 
ATOM      2  C   UNL     1       4.639   6.412  18.978  0.00  0.00    +0.000 A 
ATOM      3  C   UNL     1       5.518   5.711  18.176  0.00  0.00    +0.000 A 
ATOM      4  C   UNL     1       5.056   4.716  17.322  0.00  0.00    +0.000 A 
ATOM      5  C   UNL     1       3.713   4.477  17.143  0.00  0.00    +0.000 A 
ATOM      6  C   UNL     1       2.821   5.267  17.877  0.00  0.00    +0.000 A 
ATOM      7  F   UNL     1       1.508   5.056  17.686  0.00  0.00    +0.000 F 
ATOM      8  N   UNL     1       6.140   4.014  16.812  0.00  0.00    +0.000 N 
ATOM      9  C   UNL     1       7.342   4.476  17.359  0.00  0.00    +0.000 C 
ATOM     10  O   UNL     1       8.435   3.958  17.216  0.00  0.00    +0.000 OA
ATOM     11  C   UNL     1       7.022   5.806  18.080  0.00  0.00    +0.000 C 
ATOM     12  C   UNL     1       7.419   6.931  17.105  0.00  0.00    +0.000 C 
ATOM     13  C   UNL     1       7.700   6.011  19.428  0.00  0.00    +0.000 C 
ATOM     14  H   UNL     1       6.085   3.177  16.250  0.00  0.00    +0.000 HD
ENDROOT
BRANCH   1  20
ATOM     15  C   UNL     1       2.079   9.024  18.016  0.00  0.00    +0.000 C 
ATOM     16  N   UNL     1       1.831   8.313  19.258  0.00  0.00    +0.000 N 
ATOM     17  C   UNL     1       1.021   8.793  20.263  0.00  0.00    +0.000 A 
ATOM     18  C   UNL     1       0.904   7.809  21.222  0.00  0.00    +0.000 A 
ATOM     19  C   UNL     1       1.702   6.722  20.806  0.00  0.00    +0.000 A 
ATOM     20  C   UNL     1       2.312   7.049  19.600  0.00  0.00    +0.000 A 
BRANCH  17  21
ATOM     21  C   UNL     1       0.404  10.076  20.292  0.00  0.00    +0.000 C 
ATOM     22  N   UNL     1      -0.068  11.132  20.335  0.00  0.00    +0.000 NA
ENDBRANCH  17  21
ENDBRANCH   1  20
TORSDOF 2
ENDMDL
MODEL 3
REMARK VINA RESULT:      -7.6      2.023      3.381
REMARK  Name = 
REMARK  5 active torsions:
REMARK  status: ('A' for Active; 'I' for Inactive)
REMARK    1  A    between atoms: C_1  and  N_2
REMARK    2  A    between atoms: C_3  and  C_4
REMARK    3  A    between atoms: C_8  and  C_9
REMARK    4  A    between atoms: C_19  and  C_20
REMARK    5  A    between atoms: C_19  and  C_21
REMARK                            x       y       z     vdW  Elec       q    Type
REMARK                         _______ _______ _______ _____ _____    ______ ____
ROOT
ATOM      1  C   UNL     1       2.834   6.713  18.467  0.00  0.00    +0.000 A 
ATOM      2  C   UNL     1       2.221   5.517  18.861  0.00  0.00    +0.000 A 
ATOM      3  C   UNL     1       2.939   4.337  18.822  0.00  0.00    +0.000 A 
ATOM      4  C   UNL     1       4.199   4.295  18.239  0.00  0.00    +0.000 A 
ATOM      5  C   UNL     1       4.835   5.432  17.798  0.00  0.00    +0.000 A 
ATOM      6  C   UNL     1       4.148   6.644  17.941  0.00  0.00    +0.000 A 
ATOM      7  F   UNL     1       4.775   7.760  17.536  0.00  0.00    +0.000 F 
ATOM      8  N   UNL     1       4.601   2.971  18.116  0.00  0.00    +0.000 N 
ATOM      9  C   UNL     1       3.597   2.098  18.552  0.00  0.00    +0.000 C 
ATOM     10  O   UNL     1       3.603   0.887  18.426  0.00  0.00    +0.000 OA
ATOM     11  C   UNL     1       2.552   2.958  19.301  0.00  0.00    +0.000 C 
ATOM     12  C   UNL     1       2.869   2.811  20.801  0.00  0.00    +0.000 C 
ATOM     13  C   UNL     1       1.094   2.613  19.032  0.00  0.00    +0.000 C 
ATOM     14  H   UNL     1       5.428   2.651  17.634  0.00  0.00    +0.000 HD
ENDROOT
BRANCH   1  20
ATOM     15  C   UNL     1       1.576   7.895  21.069  0.00  0.00    +0.000 C 
ATOM     16  N   UNL     1       1.504   8.483  19.744  0.00  0.00    +0.000 N 
ATOM     17  C   UNL     1       0.857   9.667  19.467  0.00  0.00    +0.000 A 
ATOM     18  C   UNL     1       1.106   9.992  18.151  0.00  0.00    +0.000 A 
ATOM     19  C   UNL     1       1.888   8.952  17.604  0.00  0.00    +0.000 A 
ATOM     20  C   UNL     1       2.105   7.990  18.585  0.00  0.00    +0.000 A 
BRANCH  17  21
ATOM     21  C   UNL     1       0.081  10.425  20.390  0.00  0.00    +0.000 C 
ATOM     22  N   UNL     1      -0.553  11.068  21.115  0.00  0.00    +0.000 NA
ENDBRANCH  17  21
ENDBRANCH   1  20
TORSDOF 2
ENDMDL
MODEL 4
REMARK VINA RESULT:      -7.5      3.416      6.738
REMARK  Name = 
REMARK  5 active torsions:
REMARK  status: ('A' for Active; 'I' for Inactive)
REMARK    1  A    between atoms: C_1  and  N_2
REMARK    2  A    between atoms: C_3  and  C_4
REMARK    3  A    between atoms: C_8  and  C_9
REMARK    4  A    between atoms: C_19  and  C_20
REMARK    5  A    between atoms: C_19  and  C_21
REMARK                            x       y       z     vdW  Elec       q    Type
REMARK                         _______ _______ _______ _____ _____    ______ ____
ROOT
ATOM      1  C   UNL     1       4.470   4.861  17.127  0.00  0.00    +0.000 A 
ATOM      2  C   UNL     1       4.280   3.774  17.990  0.00  0.00    +0.000 A 
ATOM      3  C   UNL     1       3.462   3.914  19.094  0.00  0.00    +0.000 A 
ATOM      4  C   UNL     1       2.966   5.162  19.453  0.00  0.00    +0.000 A 
ATOM      5  C   UNL     1       3.155   6.274  18.666  0.00  0.00    +0.000 A 
ATOM      6  C   UNL     1       3.892   6.104  17.488  0.00  0.00    +0.000 A 
ATOM      7  F   UNL     1       4.056   7.180  16.701  0.00  0.00    +0.000 F 
ATOM      8  N   UNL     1       2.379   5.075  20.709  0.00  0.00    +0.000 N 
ATOM      9  C   UNL     1       2.525   3.790  21.245  0.00  0.00    +0.000 C 
ATOM     10  O   UNL     1       2.246   3.458  22.383  0.00  0.00    +0.000 OA
ATOM     11  C   UNL     1       3.005   2.877  20.093  0.00  0.00    +0.000 C 
ATOM     12  C   UNL     1       1.751   2.153  19.567  0.00  0.00    +0.000 C 
ATOM     13  C   UNL     1       4.087   1.868  20.451  0.00  0.00    +0.000 C 
ATOM     14  H   UNL     1       2.033   5.853  21.249  0.00  0.00    +0.000 HD
ENDROOT
BRANCH   1  20
ATOM     15  C   UNL     1       7.228   6.196  16.523  0.00  0.00    +0.000 C 
ATOM     16  N   UNL     1       6.480   5.340  15.621  0.00  0.00    +0.000 N 
ATOM     17  C   UNL     1       6.908   5.001  14.358  0.00  0.00    +0.000 A 
ATOM     18  C   UNL     1       6.028   4.074  13.843  0.00  0.00    +0.000 A 
ATOM     19  C   UNL     1       5.014   3.880  14.805  0.00  0.00    +0.000 A 
ATOM     20  C   UNL     1       5.272   4.698  15.900  0.00  0.00    +0.000 A 
BRANCH  17  21
ATOM     21  C   UNL     1       8.068   5.513  13.709  0.00  0.00    +0.000 C 
ATOM     22  N   UNL     1       9.002   5.963  13.192  0.00  0.00    +0.000 NA
ENDBRANCH  17  21
ENDBRANCH   1  20
TORSDOF 2
ENDMDL
MODEL 5
REMARK VINA RESULT:      -7.5      0.944      1.589
REMARK  Name = 
REMARK  5 active torsions:
REMARK  status: ('A' for Active; 'I' for Inactive)
REMARK    1  A    between atoms: C_1  and  N_2
REMARK    2  A    between atoms: C_3  and  C_4
REMARK    3  A    between atoms: C_8  and  C_9
REMARK    4  A    between atoms: C_19  and  C_20
REMARK    5  A    between atoms: C_19  and  C_21
REMARK                            x       y       z     vdW  Elec       q    Type
REMARK                         _______ _______ _______ _____ _____    ______ ____
ROOT
ATOM      1  C   UNL     1       2.899   6.445  19.063  0.00  0.00    +0.000 A 
ATOM      2  C   UNL     1       4.066   6.827  18.388  0.00  0.00    +0.000 A 
ATOM      3  C   UNL     1       4.813   5.875  17.723  0.00  0.00    +0.000 A 
ATOM      4  C   UNL     1       4.518   4.523  17.859  0.00  0.00    +0.000 A 
ATOM      5  C   UNL     1       3.408   4.086  18.543  0.00  0.00    +0.000 A 
ATOM      6  C   UNL     1       2.590   5.063  19.123  0.00  0.00    +0.000 A 
ATOM      7  F   UNL     1       1.491   4.643  19.770  0.00  0.00    +0.000 F 
ATOM      8  N   UNL     1       5.542   3.775  17.293  0.00  0.00    +0.000 N 
ATOM      9  C   UNL     1       6.571   4.601  16.826  0.00  0.00    +0.000 C 
ATOM     10  O   UNL     1       7.657   4.225  16.421  0.00  0.00    +0.000 OA
ATOM     11  C   UNL     1       6.022   6.046  16.834  0.00  0.00    +0.000 C 
ATOM     12  C   UNL     1       5.578   6.346  15.390  0.00  0.00    +0.000 C 
ATOM     13  C   UNL     1       6.984   7.119  17.325  0.00  0.00    +0.000 C 
ATOM     14  H   UNL     1       5.631   2.771  17.344  0.00  0.00    +0.000 HD
ENDROOT
BRANCH   1  20
ATOM     15  C   UNL     1       1.825   9.060  17.737  0.00  0.00    +0.000 C 
ATOM     16  N   UNL     1       1.616   8.655  19.116  0.00  0.00    +0.000 N 
ATOM     17  C   UNL     1       0.898   9.393  20.029  0.00  0.00    +0.000 A 
ATOM     18  C   UNL     1       0.787   8.651  21.185  0.00  0.00    +0.000 A 
ATOM     19  C   UNL     1       1.497   7.448  20.981  0.00  0.00    +0.000 A 
ATOM     20  C   UNL     1       2.049   7.465  19.704  0.00  0.00    +0.000 A 
BRANCH  17  21
ATOM     21  C   UNL     1       0.354  10.691  19.805  0.00  0.00    +0.000 C 
ATOM     22  N   UNL     1      -0.084  11.740  19.585  0.00  0.00    +0.000 NA
ENDBRANCH  17  21
ENDBRANCH   1  20
TORSDOF 2
ENDMDL
MODEL 6
REMARK VINA RESULT:      -7.1      3.326      6.766
REMARK  Name = 
REMARK  5 active torsions:
REMARK  status: ('A' for Active; 'I' for Inactive)
REMARK    1  A    between atoms: C_1  and  N_2
REMARK    2  A    between atoms: C_3  and  C_4
REMARK    3  A    between atoms: C_8  and  C_9
REMARK    4  A    between atoms: C_19  and  C_20
REMARK    5  A    between atoms: C_19  and  C_21
REMARK                            x       y       z     vdW  Elec       q    Type
REMARK                         _______ _______ _______ _____ _____    ______ ____
ROOT
ATOM      1  C   UNL     1       2.276   6.763  19.232  0.00  0.00    +0.000 A 
ATOM      2  C   UNL     1       1.651   7.748  20.008  0.00  0.00    +0.000 A 
ATOM      3  C   UNL     1       1.437   9.004  19.473  0.00  0.00    +0.000 A 
ATOM      4  C   UNL     1       1.985   9.352  18.244  0.00  0.00    +0.000 A 
ATOM      5  C   UNL     1       2.644   8.438  17.456  0.00  0.00    +0.000 A 
ATOM      6  C   UNL     1       2.762   7.134  17.953  0.00  0.00    +0.000 A 
ATOM      7  F   UNL     1       3.380   6.230  17.176  0.00  0.00    +0.000 F 
ATOM      8  N   UNL     1       1.827  10.717  18.045  0.00  0.00    +0.000 N 
ATOM      9  C   UNL     1       1.232  11.323  19.158  0.00  0.00    +0.000 C 
ATOM     10  O   UNL     1       1.105  12.522  19.334  0.00  0.00    +0.000 OA
ATOM     11  C   UNL     1       0.689  10.182  20.050  0.00  0.00    +0.000 C 
ATOM     12  C   UNL     1      -0.813  10.063  19.729  0.00  0.00    +0.000 C 
ATOM     13  C   UNL     1       0.897  10.354  21.548  0.00  0.00    +0.000 C 
ATOM     14  H   UNL     1       2.223  11.249  17.284  0.00  0.00    +0.000 HD
ENDROOT
BRANCH   1  20
ATOM     15  C   UNL     1       4.946   5.160  19.468  0.00  0.00    +0.000 C 
ATOM     16  N   UNL     1       3.623   4.671  19.815  0.00  0.00    +0.000 N 
ATOM     17  C   UNL     1       3.381   3.408  20.307  0.00  0.00    +0.000 A 
ATOM     18  C   UNL     1       2.049   3.334  20.655  0.00  0.00    +0.000 A 
ATOM     19  C   UNL     1       1.460   4.573  20.322  0.00  0.00    +0.000 A 
ATOM     20  C   UNL     1       2.432   5.396  19.762  0.00  0.00    +0.000 A 
BRANCH  17  21
ATOM     21  C   UNL     1       4.347   2.370  20.444  0.00  0.00    +0.000 C 
ATOM     22  N   UNL     1       5.119   1.520  20.589  0.00  0.00    +0.000 NA
ENDBRANCH  17  21
ENDBRANCH   1  20
TORSDOF 2
ENDMDL
MODEL 7
REMARK VINA RESULT:      -6.9      3.307      7.004
REMARK  Name = 
REMARK  5 active torsions:
REMARK  status: ('A' for Active; 'I' for Inactive)
REMARK    1  A    between atoms: C_1  and  N_2
REMARK    2  A    between atoms: C_3  and  C_4
REMARK    3  A    between atoms: C_8  and  C_9
REMARK    4  A    between atoms: C_19  and  C_20
REMARK    5  A    between atoms: C_19  and  C_21
REMARK                            x       y       z     vdW  Elec       q    Type
REMARK                         _______ _______ _______ _____ _____    ______ ____
ROOT
ATOM      1  C   UNL     1       2.732   7.072  19.032  0.00  0.00    +0.000 A 
ATOM      2  C   UNL     1       2.159   7.503  20.235  0.00  0.00    +0.000 A 
ATOM      3  C   UNL     1       1.389   8.651  20.253  0.00  0.00    +0.000 A 
ATOM      4  C   UNL     1       1.319   9.472  19.134  0.00  0.00    +0.000 A 
ATOM      5  C   UNL     1       1.896   9.120  17.936  0.00  0.00    +0.000 A 
ATOM      6  C   UNL     1       2.582   7.901  17.891  0.00  0.00    +0.000 A 
ATOM      7  F   UNL     1       3.124   7.539  16.717  0.00  0.00    +0.000 F 
ATOM      8  N   UNL     1       0.687  10.659  19.479  0.00  0.00    +0.000 N 
ATOM      9  C   UNL     1       0.379  10.688  20.845  0.00  0.00    +0.000 C 
ATOM     10  O   UNL     1      -0.039  11.652  21.460  0.00  0.00    +0.000 OA
ATOM     11  C   UNL     1       0.576   9.249  21.376  0.00  0.00    +0.000 C 
ATOM     12  C   UNL     1      -0.824   8.609  21.414  0.00  0.00    +0.000 C 
ATOM     13  C   UNL     1       1.249   9.129  22.737  0.00  0.00    +0.000 C 
ATOM     14  H   UNL     1       0.596  11.470  18.885  0.00  0.00    +0.000 HD
ENDROOT
BRANCH   1  20
ATOM     15  C   UNL     1       1.619   4.291  18.149  0.00  0.00    +0.000 C 
ATOM     16  N   UNL     1       2.961   4.558  18.636  0.00  0.00    +0.000 N 
ATOM     17  C   UNL     1       3.932   3.591  18.768  0.00  0.00    +0.000 A 
ATOM     18  C   UNL     1       5.110   4.214  19.120  0.00  0.00    +0.000 A 
ATOM     19  C   UNL     1       4.832   5.592  19.248  0.00  0.00    +0.000 A 
ATOM     20  C   UNL     1       3.483   5.804  18.984  0.00  0.00    +0.000 A 
BRANCH  17  21
ATOM     21  C   UNL     1       3.747   2.194  18.560  0.00  0.00    +0.000 C 
ATOM     22  N   UNL     1       3.631   1.053  18.402  0.00  0.00    +0.000 NA
ENDBRANCH  17  21
ENDBRANCH   1  20
TORSDOF 2
ENDMDL
MODEL 8
REMARK VINA RESULT:      -6.7      2.563      3.849
REMARK  Name = 
REMARK  5 active torsions:
REMARK  status: ('A' for Active; 'I' for Inactive)
REMARK    1  A    between atoms: C_1  and  N_2
REMARK    2  A    between atoms: C_3  and  C_4
REMARK    3  A    between atoms: C_8  and  C_9
REMARK    4  A    between atoms: C_19  and  C_20
REMARK    5  A    between atoms: C_19  and  C_21
REMARK                            x       y       z     vdW  Elec       q    Type
REMARK                         _______ _______ _______ _____ _____    ______ ____
ROOT
ATOM      1  C   UNL     1       2.061   7.286  19.476  0.00  0.00    +0.000 A 
ATOM      2  C   UNL     1       1.728   5.964  19.798  0.00  0.00    +0.000 A 
ATOM      3  C   UNL     1       2.348   4.923  19.135  0.00  0.00    +0.000 A 
ATOM      4  C   UNL     1       3.168   5.171  18.040  0.00  0.00    +0.000 A 
ATOM      5  C   UNL     1       3.498   6.448  17.653  0.00  0.00    +0.000 A 
ATOM      6  C   UNL     1       2.955   7.502  18.398  0.00  0.00    +0.000 A 
ATOM      7  F   UNL     1       3.295   8.751  18.040  0.00  0.00    +0.000 F 
ATOM      8  N   UNL     1       3.473   3.967  17.418  0.00  0.00    +0.000 N 
ATOM      9  C   UNL     1       2.816   2.898  18.039  0.00  0.00    +0.000 C 
ATOM     10  O   UNL     1       2.773   1.753  17.627  0.00  0.00    +0.000 OA
ATOM     11  C   UNL     1       2.257   3.435  19.377  0.00  0.00    +0.000 C 
ATOM     12  C   UNL     1       3.263   3.014  20.464  0.00  0.00    +0.000 C 
ATOM     13  C   UNL     1       0.855   2.970  19.745  0.00  0.00    +0.000 C 
ATOM     14  H   UNL     1       3.966   3.868  16.543  0.00  0.00    +0.000 HD
ENDROOT
BRANCH   1  20
ATOM     15  C   UNL     1       0.444   9.682  18.293  0.00  0.00    +0.000 C 
ATOM     16  N   UNL     1       0.790   9.493  19.690  0.00  0.00    +0.000 N 
ATOM     17  C   UNL     1       0.435  10.371  20.690  0.00  0.00    +0.000 A 
ATOM     18  C   UNL     1       0.803   9.815  21.896  0.00  0.00    +0.000 A 
ATOM     19  C   UNL     1       1.440   8.587  21.614  0.00  0.00    +0.000 A 
ATOM     20  C   UNL     1       1.467   8.402  20.236  0.00  0.00    +0.000 A 
BRANCH  17  21
ATOM     21  C   UNL     1      -0.214  11.625  20.503  0.00  0.00    +0.000 C 
ATOM     22  N   UNL     1      -0.738  12.640  20.314  0.00  0.00    +0.000 NA
ENDBRANCH  17  21
ENDBRANCH   1  20
TORSDOF 2
ENDMDL
MODEL 9
REMARK VINA RESULT:      -6.6      4.248      6.162
REMARK  Name = 
REMARK  5 active torsions:
REMARK  status: ('A' for Active; 'I' for Inactive)
REMARK    1  A    between atoms: C_1  and  N_2
REMARK    2  A    between atoms: C_3  and  C_4
REMARK    3  A    between atoms: C_8  and  C_9
REMARK    4  A    between atoms: C_19  and  C_20
REMARK    5  A    between atoms: C_19  and  C_21
REMARK                            x       y       z     vdW  Elec       q    Type
REMARK                         _______ _______ _______ _____ _____    ______ ____
ROOT
ATOM      1  C   UNL     1       5.254   4.640  18.247  0.00  0.00    +0.000 A 
ATOM      2  C   UNL     1       4.183   4.625  19.150  0.00  0.00    +0.000 A 
ATOM      3  C   UNL     1       3.193   3.670  19.019  0.00  0.00    +0.000 A 
ATOM      4  C   UNL     1       3.157   2.837  17.907  0.00  0.00    +0.000 A 
ATOM      5  C   UNL     1       4.160   2.835  16.966  0.00  0.00    +0.000 A 
ATOM      6  C   UNL     1       5.220   3.728  17.162  0.00  0.00    +0.000 A 
ATOM      7  F   UNL     1       6.216   3.711  16.261  0.00  0.00    +0.000 F 
ATOM      8  N   UNL     1       1.954   2.143  17.897  0.00  0.00    +0.000 N 
ATOM      9  C   UNL     1       1.134   2.540  18.959  0.00  0.00    +0.000 C 
ATOM     10  O   UNL     1      -0.030   2.218  19.120  0.00  0.00    +0.000 OA
ATOM     11  C   UNL     1       2.018   3.370  19.919  0.00  0.00    +0.000 C 
ATOM     12  C   UNL     1       2.447   2.412  21.046  0.00  0.00    +0.000 C 
ATOM     13  C   UNL     1       1.373   4.619  20.504  0.00  0.00    +0.000 C 
ATOM     14  H   UNL     1       1.626   1.549  17.150  0.00  0.00    +0.000 HD
ENDROOT
BRANCH   1  20
ATOM     15  C   UNL     1       5.401   7.538  17.092  0.00  0.00    +0.000 C 
ATOM     16  N   UNL     1       6.435   6.874  17.865  0.00  0.00    +0.000 N 
ATOM     17  C   UNL     1       7.637   7.459  18.194  0.00  0.00    +0.000 A 
ATOM     18  C   UNL     1       8.310   6.605  19.041  0.00  0.00    +0.000 A 
ATOM     19  C   UNL     1       7.512   5.450  19.192  0.00  0.00    +0.000 A 
ATOM     20  C   UNL     1       6.359   5.599  18.428  0.00  0.00    +0.000 A 
BRANCH  17  21
ATOM     21  C   UNL     1       8.091   8.733  17.746  0.00  0.00    +0.000 C 
ATOM     22  N   UNL     1       8.469   9.776  17.417  0.00  0.00    +0.000 NA
ENDBRANCH  17  21
ENDBRANCH   1  20
TORSDOF 2
ENDMDL
