MODEL 1
REMARK VINA RESULT:      -8.5      0.000      0.000
REMARK  Name = 
REMARK  7 active torsions:
REMARK  status: ('A' for Active; 'I' for Inactive)
REMARK    1  A    between atoms: N_1  and  C_2
REMARK    2  A    between atoms: C_8  and  C_9
REMARK    3  A    between atoms: C_9  and  N_10
REMARK    4  A    between atoms: N_10  and  S_11
REMARK    5  A    between atoms: S_11  and  C_14
REMARK    6  A    between atoms: C_22  and  C_23
REMARK    7  A    between atoms: C_23  and  C_24
REMARK                            x       y       z     vdW  Elec       q    Type
REMARK                         _______ _______ _______ _____ _____    ______ ____
ROOT
ATOM      1  C   UNL     1       6.142   4.634  18.263  0.00  0.00    +0.000 C 
ATOM      2  C   UNL     1       5.295   3.637  19.052  0.00  0.00    +0.000 C 
ATOM      3  C   UNL     1       4.206   4.361  19.843  0.00  0.00    +0.000 C 
ATOM      4  C   UNL     1       3.674   5.638  19.226  0.00  0.00    +0.000 A 
ATOM      5  C   UNL     1       2.634   6.307  19.880  0.00  0.00    +0.000 A 
ATOM      6  C   UNL     1       2.117   7.499  19.370  0.00  0.00    +0.000 A 
ATOM      7  C   UNL     1       2.624   8.055  18.184  0.00  0.00    +0.000 A 
ATOM      8  C   UNL     1       3.670   7.392  17.532  0.00  0.00    +0.000 A 
ATOM      9  C   UNL     1       4.190   6.182  18.030  0.00  0.00    +0.000 A 
ATOM     10  C   UNL     1       5.269   5.436  17.249  0.00  0.00    +0.000 C 
ENDROOT
BRANCH   1  11
ATOM     11  N   UNL     1       7.341   4.005  17.709  0.00  0.00    +0.000 NA
ATOM     12  H   UNL     1       8.032   3.808  18.429  0.00  0.00    +0.000 HD
ATOM     13  H   UNL     1       7.126   3.143  17.216  0.00  0.00    +0.000 HD
ENDBRANCH   1  11
BRANCH   7  14
ATOM     14  C   UNL     1       2.074   9.382  17.702  0.00  0.00    +0.000 C 
BRANCH  14  15
ATOM     15  N   UNL     1       0.610   9.427  17.659  0.00  0.00    +0.000 NA
ATOM     16  H   UNL     1       0.123   8.532  17.646  0.00  0.00    +0.000 HD
BRANCH  15  17
ATOM     17  S   UNL     1      -0.142  10.526  18.690  0.00  0.00    +0.000 S 
ATOM     18  O   UNL     1      -0.293   9.839  19.963  0.00  0.00    +0.000 OA
ATOM     19  O   UNL     1       0.559  11.784  18.591  0.00  0.00    +0.000 OA
BRANCH  17  20
ATOM     20  C   UNL     1      -1.755  10.698  17.984  0.00  0.00    +0.000 A 
ATOM     21  C   UNL     1      -2.696  11.515  18.617  0.00  0.00    +0.000 A 
ATOM     22  C   UNL     1      -3.964  11.667  18.054  0.00  0.00    +0.000 A 
ATOM     23  C   UNL     1      -4.283  11.015  16.861  0.00  0.00    +0.000 A 
ATOM     24  C   UNL     1      -3.335  10.211  16.225  0.00  0.00    +0.000 A 
ATOM     25  C   UNL     1      -2.064  10.053  16.783  0.00  0.00    +0.000 A 
ENDBRANCH  17  20
ENDBRANCH  15  17
ENDBRANCH  14  15
ENDBRANCH   7  14
BRANCH  10  26
ATOM     26  C   UNL     1       4.692   4.668  16.008  0.00  0.00    +0.000 C 
BRANCH  26  27
ATOM     27  C   UNL     1       5.513   4.640  14.730  0.00  0.00    +0.000 A 
ATOM     28  C   UNL     1       5.138   3.836  13.644  0.00  0.00    +0.000 A 
ATOM     29  C   UNL     1       6.030   3.571  12.606  0.00  0.00    +0.000 A 
ATOM     30  C   UNL     1       7.268   4.200  12.581  0.00  0.00    +0.000 A 
ATOM     31  C   UNL     1       7.589   5.130  13.568  0.00  0.00    +0.000 A 
ATOM     32  C   UNL     1       6.715   5.352  14.637  0.00  0.00    +0.000 A 
ENDBRANCH  26  27
ENDBRANCH  10  26
TORSDOF 7
ENDMDL
MODEL 2
REMARK VINA RESULT:      -8.5      1.673      2.575
REMARK  Name = 
REMARK  7 active torsions:
REMARK  status: ('A' for Active; 'I' for Inactive)
REMARK    1  A    between atoms: N_1  and  C_2
REMARK    2  A    between atoms: C_8  and  C_9
REMARK    3  A    between atoms: C_9  and  N_10
REMARK    4  A    between atoms: N_10  and  S_11
REMARK    5  A    between atoms: S_11  and  C_14
REMARK    6  A    between atoms: C_22  and  C_23
REMARK    7  A    between atoms: C_23  and  C_24
REMARK                            x       y       z     vdW  Elec       q    Type
REMARK                         _______ _______ _______ _____ _____    ______ ____
ROOT
ATOM      1  C   UNL     1       4.230   2.203  19.602  0.00  0.00    +0.000 C 
ATOM      2  C   UNL     1       3.821   1.747  18.202  0.00  0.00    +0.000 C 
ATOM      3  C   UNL     1       2.631   2.561  17.695  0.00  0.00    +0.000 C 
ATOM      4  C   UNL     1       2.546   3.991  18.190  0.00  0.00    +0.000 A 
ATOM      5  C   UNL     1       1.510   4.798  17.707  0.00  0.00    +0.000 A 
ATOM      6  C   UNL     1       1.368   6.117  18.143  0.00  0.00    +0.000 A 
ATOM      7  C   UNL     1       2.264   6.669  19.073  0.00  0.00    +0.000 A 
ATOM      8  C   UNL     1       3.297   5.861  19.562  0.00  0.00    +0.000 A 
ATOM      9  C   UNL     1       3.457   4.534  19.120  0.00  0.00    +0.000 A 
ATOM     10  C   UNL     1       4.645   3.707  19.605  0.00  0.00    +0.000 C 
ENDROOT
BRANCH   1  11
ATOM     11  N   UNL     1       5.185   1.279  20.213  0.00  0.00    +0.000 NA
ATOM     12  H   UNL     1       6.146   1.545  20.018  0.00  0.00    +0.000 HD
ATOM     13  H   UNL     1       5.060   1.213  21.220  0.00  0.00    +0.000 HD
ENDBRANCH   1  11
BRANCH   7  14
ATOM     14  C   UNL     1       2.034   8.084  19.562  0.00  0.00    +0.000 C 
BRANCH  14  15
ATOM     15  N   UNL     1       1.390   8.949  18.570  0.00  0.00    +0.000 NA
ATOM     16  H   UNL     1       0.669   8.523  17.989  0.00  0.00    +0.000 HD
BRANCH  15  17
ATOM     17  S   UNL     1       0.941  10.486  19.087  0.00  0.00    +0.000 S 
ATOM     18  O   UNL     1       0.901  10.422  20.540  0.00  0.00    +0.000 OA
ATOM     19  O   UNL     1       1.767  11.450  18.399  0.00  0.00    +0.000 OA
BRANCH  17  20
ATOM     20  C   UNL     1      -0.726  10.631  18.516  0.00  0.00    +0.000 A 
ATOM     21  C   UNL     1      -1.566  11.591  19.088  0.00  0.00    +0.000 A 
ATOM     22  C   UNL     1      -2.877  11.720  18.628  0.00  0.00    +0.000 A 
ATOM     23  C   UNL     1      -3.341  10.902  17.595  0.00  0.00    +0.000 A 
ATOM     24  C   UNL     1      -2.494   9.954  17.017  0.00  0.00    +0.000 A 
ATOM     25  C   UNL     1      -1.180   9.818  17.473  0.00  0.00    +0.000 A 
ENDBRANCH  17  20
ENDBRANCH  15  17
ENDBRANCH  14  15
ENDBRANCH   7  14
BRANCH  10  26
ATOM     26  C   UNL     1       5.985   4.099  18.888  0.00  0.00    +0.000 C 
BRANCH  26  27
ATOM     27  C   UNL     1       5.908   4.727  17.507  0.00  0.00    +0.000 A 
ATOM     28  C   UNL     1       5.808   6.116  17.345  0.00  0.00    +0.000 A 
ATOM     29  C   UNL     1       5.433   6.671  16.122  0.00  0.00    +0.000 A 
ATOM     30  C   UNL     1       5.268   5.852  15.013  0.00  0.00    +0.000 A 
ATOM     31  C   UNL     1       5.527   4.487  15.119  0.00  0.00    +0.000 A 
ATOM     32  C   UNL     1       5.848   3.925  16.360  0.00  0.00    +0.000 A 
ENDBRANCH  26  27
ENDBRANCH  10  26
TORSDOF 7
ENDMDL
MODEL 3
REMARK VINA RESULT:      -8.4      3.916      8.541
REMARK  Name = 
REMARK  7 active torsions:
REMARK  status: ('A' for Active; 'I' for Inactive)
REMARK    1  A    between atoms: N_1  and  C_2
REMARK    2  A    between atoms: C_8  and  C_9
REMARK    3  A    between atoms: C_9  and  N_10
REMARK    4  A    between atoms: N_10  and  S_11
REMARK    5  A    between atoms: S_11  and  C_14
REMARK    6  A    between atoms: C_22  and  C_23
REMARK    7  A    between atoms: C_23  and  C_24
REMARK                            x       y       z     vdW  Elec       q    Type
REMARK                         _______ _______ _______ _____ _____    ______ ____
ROOT
ATOM      1  C   UNL     1       1.313   8.629  21.082  0.00  0.00    +0.000 C 
ATOM      2  C   UNL     1       0.501   9.140  19.893  0.00  0.00    +0.000 C 
ATOM      3  C   UNL     1       1.340   9.114  18.615  0.00  0.00    +0.000 C 
ATOM      4  C   UNL     1       2.390   8.025  18.532  0.00  0.00    +0.000 A 
ATOM      5  C   UNL     1       3.143   7.919  17.358  0.00  0.00    +0.000 A 
ATOM      6  C   UNL     1       4.138   6.949  17.231  0.00  0.00    +0.000 A 
ATOM      7  C   UNL     1       4.406   6.050  18.277  0.00  0.00    +0.000 A 
ATOM      8  C   UNL     1       3.659   6.158  19.455  0.00  0.00    +0.000 A 
ATOM      9  C   UNL     1       2.643   7.125  19.589  0.00  0.00    +0.000 A 
ATOM     10  C   UNL     1       1.786   7.160  20.852  0.00  0.00    +0.000 C 
ENDROOT
BRANCH   1  11
ATOM     11  N   UNL     1       0.632   8.885  22.351  0.00  0.00    +0.000 NA
ATOM     12  H   UNL     1       1.271   8.830  23.141  0.00  0.00    +0.000 HD
ATOM     13  H   UNL     1       0.174   9.792  22.362  0.00  0.00    +0.000 HD
ENDBRANCH   1  11
BRANCH   7  14
ATOM     14  C   UNL     1       5.537   5.055  18.116  0.00  0.00    +0.000 C 
BRANCH  14  15
ATOM     15  N   UNL     1       5.758   4.638  16.729  0.00  0.00    +0.000 NA
ATOM     16  H   UNL     1       4.999   4.813  16.071  0.00  0.00    +0.000 HD
BRANCH  15  17
ATOM     17  S   UNL     1       7.256   5.011  16.059  0.00  0.00    +0.000 S 
ATOM     18  O   UNL     1       7.400   6.453  16.181  0.00  0.00    +0.000 OA
ATOM     19  O   UNL     1       8.234   4.106  16.617  0.00  0.00    +0.000 OA
BRANCH  17  20
ATOM     20  C   UNL     1       7.031   4.643  14.344  0.00  0.00    +0.000 A 
ATOM     21  C   UNL     1       7.841   5.275  13.395  0.00  0.00    +0.000 A 
ATOM     22  C   UNL     1       7.678   4.974  12.042  0.00  0.00    +0.000 A 
ATOM     23  C   UNL     1       6.719   4.040  11.643  0.00  0.00    +0.000 A 
ATOM     24  C   UNL     1       5.922   3.402  12.595  0.00  0.00    +0.000 A 
ATOM     25  C   UNL     1       6.079   3.698  13.951  0.00  0.00    +0.000 A 
ENDBRANCH  17  20
ENDBRANCH  15  17
ENDBRANCH  14  15
ENDBRANCH   7  14
BRANCH  10  26
ATOM     26  C   UNL     1       0.700   6.027  20.874  0.00  0.00    +0.000 C 
BRANCH  26  27
ATOM     27  C   UNL     1       1.134   4.604  20.567  0.00  0.00    +0.000 A 
ATOM     28  C   UNL     1       1.985   3.902  21.432  0.00  0.00    +0.000 A 
ATOM     29  C   UNL     1       2.625   2.735  21.018  0.00  0.00    +0.000 A 
ATOM     30  C   UNL     1       2.332   2.189  19.775  0.00  0.00    +0.000 A 
ATOM     31  C   UNL     1       1.363   2.787  18.971  0.00  0.00    +0.000 A 
ATOM     32  C   UNL     1       0.764   3.988  19.365  0.00  0.00    +0.000 A 
ENDBRANCH  26  27
ENDBRANCH  10  26
TORSDOF 7
ENDMDL
MODEL 4
REMARK VINA RESULT:      -8.4      1.523      2.463
REMARK  Name = 
REMARK  7 active torsions:
REMARK  status: ('A' for Active; 'I' for Inactive)
REMARK    1  A    between atoms: N_1  and  C_2
REMARK    2  A    between atoms: C_8  and  C_9
REMARK    3  A    between atoms: C_9  and  N_10
REMARK    4  A    between atoms: N_10  and  S_11
REMARK    5  A    between atoms: S_11  and  C_14
REMARK    6  A    between atoms: C_22  and  C_23
REMARK    7  A    between atoms: C_23  and  C_24
REMARK                            x       y       z     vdW  Elec       q    Type
REMARK                         _______ _______ _______ _____ _____    ______ ____
ROOT
ATOM      1  C   UNL     1       4.144   2.650  19.597  0.00  0.00    +0.000 C 
ATOM      2  C   UNL     1       3.741   2.123  18.220  0.00  0.00    +0.000 C 
ATOM      3  C   UNL     1       2.579   2.936  17.650  0.00  0.00    +0.000 C 
ATOM      4  C   UNL     1       2.524   4.394  18.061  0.00  0.00    +0.000 A 
ATOM      5  C   UNL     1       1.515   5.197  17.518  0.00  0.00    +0.000 A 
ATOM      6  C   UNL     1       1.401   6.542  17.875  0.00  0.00    +0.000 A 
ATOM      7  C   UNL     1       2.300   7.125  18.784  0.00  0.00    +0.000 A 
ATOM      8  C   UNL     1       3.305   6.321  19.334  0.00  0.00    +0.000 A 
ATOM      9  C   UNL     1       3.437   4.967  18.971  0.00  0.00    +0.000 A 
ATOM     10  C   UNL     1       4.598   4.141  19.519  0.00  0.00    +0.000 C 
ENDROOT
BRANCH   1  11
ATOM     11  N   UNL     1       5.068   1.740  20.274  0.00  0.00    +0.000 NA
ATOM     12  H   UNL     1       5.620   2.218  20.980  0.00  0.00    +0.000 HD
ATOM     13  H   UNL     1       4.583   0.959  20.708  0.00  0.00    +0.000 HD
ENDBRANCH   1  11
BRANCH   7  14
ATOM     14  C   UNL     1       2.099   8.571  19.188  0.00  0.00    +0.000 C 
BRANCH  14  15
ATOM     15  N   UNL     1       1.018   9.238  18.458  0.00  0.00    +0.000 NA
ATOM     16  H   UNL     1       0.447   8.653  17.849  0.00  0.00    +0.000 HD
BRANCH  15  17
ATOM     17  S   UNL     1       0.078  10.327  19.331  0.00  0.00    +0.000 S 
ATOM     18  O   UNL     1      -0.330   9.624  20.537  0.00  0.00    +0.000 OA
ATOM     19  O   UNL     1       0.789  11.582  19.395  0.00  0.00    +0.000 OA
BRANCH  17  20
ATOM     20  C   UNL     1      -1.359  10.519  18.317  0.00  0.00    +0.000 A 
ATOM     21  C   UNL     1      -1.503   9.727  17.175  0.00  0.00    +0.000 A 
ATOM     22  C   UNL     1      -2.643   9.863  16.381  0.00  0.00    +0.000 A 
ATOM     23  C   UNL     1      -3.637  10.778  16.736  0.00  0.00    +0.000 A 
ATOM     24  C   UNL     1      -3.495  11.558  17.885  0.00  0.00    +0.000 A 
ATOM     25  C   UNL     1      -2.356  11.428  18.683  0.00  0.00    +0.000 A 
ENDBRANCH  17  20
ENDBRANCH  15  17
ENDBRANCH  14  15
ENDBRANCH   7  14
BRANCH  10  26
ATOM     26  C   UNL     1       5.956   4.458  18.799  0.00  0.00    +0.000 C 
BRANCH  26  27
ATOM     27  C   UNL     1       5.922   4.851  17.333  0.00  0.00    +0.000 A 
ATOM     28  C   UNL     1       5.610   6.160  16.939  0.00  0.00    +0.000 A 
ATOM     29  C   UNL     1       5.280   6.453  15.617  0.00  0.00    +0.000 A 
ATOM     30  C   UNL     1       5.369   5.463  14.646  0.00  0.00    +0.000 A 
ATOM     31  C   UNL     1       5.838   4.198  14.994  0.00  0.00    +0.000 A 
ATOM     32  C   UNL     1       6.115   3.892  16.331  0.00  0.00    +0.000 A 
ENDBRANCH  26  27
ENDBRANCH  10  26
TORSDOF 7
ENDMDL
MODEL 5
REMARK VINA RESULT:      -8.4      2.486      3.386
REMARK  Name = 
REMARK  7 active torsions:
REMARK  status: ('A' for Active; 'I' for Inactive)
REMARK    1  A    between atoms: N_1  and  C_2
REMARK    2  A    between atoms: C_8  and  C_9
REMARK    3  A    between atoms: C_9  and  N_10
REMARK    4  A    between atoms: N_10  and  S_11
REMARK    5  A    between atoms: S_11  and  C_14
REMARK    6  A    between atoms: C_22  and  C_23
REMARK    7  A    between atoms: C_23  and  C_24
REMARK                            x       y       z     vdW  Elec       q    Type
REMARK                         _______ _______ _______ _____ _____    ______ ____
ROOT
ATOM      1  C   UNL     1       4.235   2.326  19.497  0.00  0.00    +0.000 C 
ATOM      2  C   UNL     1       3.871   1.967  18.057  0.00  0.00    +0.000 C 
ATOM      3  C   UNL     1       2.675   2.790  17.582  0.00  0.00    +0.000 C 
ATOM      4  C   UNL     1       2.543   4.177  18.180  0.00  0.00    +0.000 A 
ATOM      5  C   UNL     1       1.499   4.994  17.732  0.00  0.00    +0.000 A 
ATOM      6  C   UNL     1       1.315   6.273  18.261  0.00  0.00    +0.000 A 
ATOM      7  C   UNL     1       2.175   6.774  19.252  0.00  0.00    +0.000 A 
ATOM      8  C   UNL     1       3.215   5.954  19.707  0.00  0.00    +0.000 A 
ATOM      9  C   UNL     1       3.418   4.668  19.171  0.00  0.00    +0.000 A 
ATOM     10  C   UNL     1       4.614   3.834  19.623  0.00  0.00    +0.000 C 
ENDROOT
BRANCH   1  11
ATOM     11  N   UNL     1       5.197   1.380  20.063  0.00  0.00    +0.000 NA
ATOM     12  H   UNL     1       5.179   0.487  19.578  0.00  0.00    +0.000 HD
ATOM     13  H   UNL     1       6.145   1.744  20.045  0.00  0.00    +0.000 HD
ENDBRANCH   1  11
BRANCH   7  14
ATOM     14  C   UNL     1       1.898   8.142  19.840  0.00  0.00    +0.000 C 
BRANCH  14  15
ATOM     15  N   UNL     1       1.708   8.128  21.293  0.00  0.00    +0.000 NA
ATOM     16  H   UNL     1       2.544   8.223  21.866  0.00  0.00    +0.000 HD
BRANCH  15  17
ATOM     17  S   UNL     1       0.435   9.051  21.895  0.00  0.00    +0.000 S 
ATOM     18  O   UNL     1      -0.743   8.201  21.822  0.00  0.00    +0.000 OA
ATOM     19  O   UNL     1       0.861   9.642  23.142  0.00  0.00    +0.000 OA
BRANCH  17  20
ATOM     20  C   UNL     1       0.250  10.321  20.678  0.00  0.00    +0.000 A 
ATOM     21  C   UNL     1       1.082  11.443  20.727  0.00  0.00    +0.000 A 
ATOM     22  C   UNL     1       0.950  12.439  19.758  0.00  0.00    +0.000 A 
ATOM     23  C   UNL     1       0.002  12.307  18.741  0.00  0.00    +0.000 A 
ATOM     24  C   UNL     1      -0.817  11.177  18.689  0.00  0.00    +0.000 A 
ATOM     25  C   UNL     1      -0.693  10.177  19.656  0.00  0.00    +0.000 A 
ENDBRANCH  17  20
ENDBRANCH  15  17
ENDBRANCH  14  15
ENDBRANCH   7  14
BRANCH  10  26
ATOM     26  C   UNL     1       5.961   4.309  18.973  0.00  0.00    +0.000 C 
BRANCH  26  27
ATOM     27  C   UNL     1       5.938   4.785  17.531  0.00  0.00    +0.000 A 
ATOM     28  C   UNL     1       5.633   6.115  17.210  0.00  0.00    +0.000 A 
ATOM     29  C   UNL     1       5.312   6.483  15.904  0.00  0.00    +0.000 A 
ATOM     30  C   UNL     1       5.406   5.550  14.880  0.00  0.00    +0.000 A 
ATOM     31  C   UNL     1       5.868   4.265  15.158  0.00  0.00    +0.000 A 
ATOM     32  C   UNL     1       6.136   3.883  16.477  0.00  0.00    +0.000 A 
ENDBRANCH  26  27
ENDBRANCH  10  26
TORSDOF 7
ENDMDL
MODEL 6
REMARK VINA RESULT:      -8.2      3.262      8.967
REMARK  Name = 
REMARK  7 active torsions:
REMARK  status: ('A' for Active; 'I' for Inactive)
REMARK    1  A    between atoms: N_1  and  C_2
REMARK    2  A    between atoms: C_8  and  C_9
REMARK    3  A    between atoms: C_9  and  N_10
REMARK    4  A    between atoms: N_10  and  S_11
REMARK    5  A    between atoms: S_11  and  C_14
REMARK    6  A    between atoms: C_22  and  C_23
REMARK    7  A    between atoms: C_23  and  C_24
REMARK                            x       y       z     vdW  Elec       q    Type
REMARK                         _______ _______ _______ _____ _____    ______ ____
ROOT
ATOM      1  C   UNL     1       1.488  11.576  20.256  0.00  0.00    +0.000 C 
ATOM      2  C   UNL     1       1.280  11.856  18.768  0.00  0.00    +0.000 C 
ATOM      3  C   UNL     1       1.945  10.775  17.916  0.00  0.00    +0.000 C 
ATOM      4  C   UNL     1       2.002   9.390  18.528  0.00  0.00    +0.000 A 
ATOM      5  C   UNL     1       2.546   8.351  17.764  0.00  0.00    +0.000 A 
ATOM      6  C   UNL     1       2.644   7.059  18.282  0.00  0.00    +0.000 A 
ATOM      7  C   UNL     1       2.196   6.766  19.581  0.00  0.00    +0.000 A 
ATOM      8  C   UNL     1       1.658   7.806  20.349  0.00  0.00    +0.000 A 
ATOM      9  C   UNL     1       1.542   9.110  19.832  0.00  0.00    +0.000 A 
ATOM     10  C   UNL     1       0.870  10.202  20.662  0.00  0.00    +0.000 C 
ENDROOT
BRANCH   1  11
ATOM     11  N   UNL     1       1.095  12.717  21.081  0.00  0.00    +0.000 NA
ATOM     12  H   UNL     1       1.216  12.527  22.072  0.00  0.00    +0.000 HD
ATOM     13  H   UNL     1       1.614  13.558  20.842  0.00  0.00    +0.000 HD
ENDBRANCH   1  11
BRANCH   7  14
ATOM     14  C   UNL     1       2.380   5.363  20.121  0.00  0.00    +0.000 C 
BRANCH  14  15
ATOM     15  N   UNL     1       3.771   4.905  20.097  0.00  0.00    +0.000 NA
ATOM     16  H   UNL     1       4.249   4.842  20.995  0.00  0.00    +0.000 HD
BRANCH  15  17
ATOM     17  S   UNL     1       4.111   3.577  19.120  0.00  0.00    +0.000 S 
ATOM     18  O   UNL     1       4.956   2.701  19.917  0.00  0.00    +0.000 OA
ATOM     19  O   UNL     1       2.870   3.111  18.549  0.00  0.00    +0.000 OA
BRANCH  17  20
ATOM     20  C   UNL     1       5.120   4.268  17.842  0.00  0.00    +0.000 A 
ATOM     21  C   UNL     1       6.305   4.926  18.185  0.00  0.00    +0.000 A 
ATOM     22  C   UNL     1       7.113   5.457  17.179  0.00  0.00    +0.000 A 
ATOM     23  C   UNL     1       6.743   5.321  15.839  0.00  0.00    +0.000 A 
ATOM     24  C   UNL     1       5.566   4.651  15.501  0.00  0.00    +0.000 A 
ATOM     25  C   UNL     1       4.751   4.117  16.503  0.00  0.00    +0.000 A 
ENDBRANCH  17  20
ENDBRANCH  15  17
ENDBRANCH  14  15
ENDBRANCH   7  14
BRANCH  10  26
ATOM     26  C   UNL     1      -0.694  10.075  20.671  0.00  0.00    +0.000 C 
BRANCH  26  27
ATOM     27  C   UNL     1      -1.453  10.408  19.398  0.00  0.00    +0.000 A 
ATOM     28  C   UNL     1      -1.475   9.520  18.313  0.00  0.00    +0.000 A 
ATOM     29  C   UNL     1      -1.900   9.938  17.053  0.00  0.00    +0.000 A 
ATOM     30  C   UNL     1      -2.420  11.216  16.887  0.00  0.00    +0.000 A 
ATOM     31  C   UNL     1      -2.559  12.052  17.993  0.00  0.00    +0.000 A 
ATOM     32  C   UNL     1      -2.080  11.651  19.245  0.00  0.00    +0.000 A 
ENDBRANCH  26  27
ENDBRANCH  10  26
TORSDOF 7
ENDMDL
MODEL 7
REMARK VINA RESULT:      -8.2      3.024      4.068
REMARK  Name = 
REMARK  7 active torsions:
REMARK  status: ('A' for Active; 'I' for Inactive)
REMARK    1  A    between atoms: N_1  and  C_2
REMARK    2  A    between atoms: C_8  and  C_9
REMARK    3  A    between atoms: C_9  and  N_10
REMARK    4  A    between atoms: N_10  and  S_11
REMARK    5  A    between atoms: S_11  and  C_14
REMARK    6  A    between atoms: C_22  and  C_23
REMARK    7  A    between atoms: C_23  and  C_24
REMARK                            x       y       z     vdW  Elec       q    Type
REMARK                         _______ _______ _______ _____ _____    ______ ____
ROOT
ATOM      1  C   UNL     1       4.196   2.551  19.523  0.00  0.00    +0.000 C 
ATOM      2  C   UNL     1       3.462   1.793  18.418  0.00  0.00    +0.000 C 
ATOM      3  C   UNL     1       2.237   2.577  17.947  0.00  0.00    +0.000 C 
ATOM      4  C   UNL     1       2.345   4.086  18.025  0.00  0.00    +0.000 A 
ATOM      5  C   UNL     1       1.274   4.851  17.549  0.00  0.00    +0.000 A 
ATOM      6  C   UNL     1       1.307   6.246  17.614  0.00  0.00    +0.000 A 
ATOM      7  C   UNL     1       2.417   6.916  18.154  0.00  0.00    +0.000 A 
ATOM      8  C   UNL     1       3.485   6.152  18.638  0.00  0.00    +0.000 A 
ATOM      9  C   UNL     1       3.468   4.746  18.565  0.00  0.00    +0.000 A 
ATOM     10  C   UNL     1       4.686   3.945  19.019  0.00  0.00    +0.000 C 
ENDROOT
BRANCH   1  11
ATOM     11  N   UNL     1       5.209   1.717  20.169  0.00  0.00    +0.000 NA
ATOM     12  H   UNL     1       4.963   1.502  21.132  0.00  0.00    +0.000 HD
ATOM     13  H   UNL     1       5.364   0.848  19.667  0.00  0.00    +0.000 HD
ENDBRANCH   1  11
BRANCH   7  14
ATOM     14  C   UNL     1       2.380   8.426  18.260  0.00  0.00    +0.000 C 
BRANCH  14  15
ATOM     15  N   UNL     1       1.045   8.995  18.062  0.00  0.00    +0.000 NA
ATOM     16  H   UNL     1       0.253   8.373  18.217  0.00  0.00    +0.000 HD
BRANCH  15  17
ATOM     17  S   UNL     1       0.770  10.522  18.715  0.00  0.00    +0.000 S 
ATOM     18  O   UNL     1       2.048  11.215  18.661  0.00  0.00    +0.000 OA
ATOM     19  O   UNL     1      -0.412  11.071  18.092  0.00  0.00    +0.000 OA
BRANCH  17  20
ATOM     20  C   UNL     1       0.427  10.174  20.415  0.00  0.00    +0.000 A 
ATOM     21  C   UNL     1       1.023   9.065  21.022  0.00  0.00    +0.000 A 
ATOM     22  C   UNL     1       0.769   8.796  22.367  0.00  0.00    +0.000 A 
ATOM     23  C   UNL     1      -0.067   9.639  23.103  0.00  0.00    +0.000 A 
ATOM     24  C   UNL     1      -0.650  10.754  22.497  0.00  0.00    +0.000 A 
ATOM     25  C   UNL     1      -0.401  11.028  21.150  0.00  0.00    +0.000 A 
ENDBRANCH  17  20
ENDBRANCH  15  17
ENDBRANCH  14  15
ENDBRANCH   7  14
BRANCH  10  26
ATOM     26  C   UNL     1       5.854   3.977  17.971  0.00  0.00    +0.000 C 
BRANCH  26  27
ATOM     27  C   UNL     1       6.734   5.214  17.909  0.00  0.00    +0.000 A 
ATOM     28  C   UNL     1       7.636   5.515  18.940  0.00  0.00    +0.000 A 
ATOM     29  C   UNL     1       8.214   6.779  19.040  0.00  0.00    +0.000 A 
ATOM     30  C   UNL     1       7.989   7.724  18.047  0.00  0.00    +0.000 A 
ATOM     31  C   UNL     1       7.227   7.382  16.931  0.00  0.00    +0.000 A 
ATOM     32  C   UNL     1       6.603   6.132  16.860  0.00  0.00    +0.000 A 
ENDBRANCH  26  27
ENDBRANCH  10  26
TORSDOF 7
ENDMDL
MODEL 8
REMARK VINA RESULT:      -8.1      3.548      9.143
REMARK  Name = 
REMARK  7 active torsions:
REMARK  status: ('A' for Active; 'I' for Inactive)
REMARK    1  A    between atoms: N_1  and  C_2
REMARK    2  A    between atoms: C_8  and  C_9
REMARK    3  A    between atoms: C_9  and  N_10
REMARK    4  A    between atoms: N_10  and  S_11
REMARK    5  A    between atoms: S_11  and  C_14
REMARK    6  A    between atoms: C_22  and  C_23
REMARK    7  A    between atoms: C_23  and  C_24
REMARK                            x       y       z     vdW  Elec       q    Type
REMARK                         _______ _______ _______ _____ _____    ______ ____
ROOT
ATOM      1  C   UNL     1       1.391  12.144  20.540  0.00  0.00    +0.000 C 
ATOM      2  C   UNL     1       1.222  12.560  19.079  0.00  0.00    +0.000 C 
ATOM      3  C   UNL     1       1.855  11.528  18.147  0.00  0.00    +0.000 C 
ATOM      4  C   UNL     1       1.841  10.094  18.637  0.00  0.00    +0.000 A 
ATOM      5  C   UNL     1       2.353   9.101  17.794  0.00  0.00    +0.000 A 
ATOM      6  C   UNL     1       2.386   7.766  18.200  0.00  0.00    +0.000 A 
ATOM      7  C   UNL     1       1.901   7.383  19.462  0.00  0.00    +0.000 A 
ATOM      8  C   UNL     1       1.396   8.376  20.309  0.00  0.00    +0.000 A 
ATOM      9  C   UNL     1       1.346   9.724  19.905  0.00  0.00    +0.000 A 
ATOM     10  C   UNL     1       0.706  10.769  20.816  0.00  0.00    +0.000 C 
ENDROOT
BRANCH   1  11
ATOM     11  N   UNL     1       1.032  13.227  21.455  0.00  0.00    +0.000 NA
ATOM     12  H   UNL     1       1.763  13.931  21.513  0.00  0.00    +0.000 HD
ATOM     13  H   UNL     1       0.161  13.678  21.189  0.00  0.00    +0.000 HD
ENDBRANCH   1  11
BRANCH   7  14
ATOM     14  C   UNL     1       2.015   5.932  19.881  0.00  0.00    +0.000 C 
BRANCH  14  15
ATOM     15  N   UNL     1       3.389   5.512  20.170  0.00  0.00    +0.000 NA
ATOM     16  H   UNL     1       3.574   5.165  21.110  0.00  0.00    +0.000 HD
BRANCH  15  17
ATOM     17  S   UNL     1       4.152   4.573  19.001  0.00  0.00    +0.000 S 
ATOM     18  O   UNL     1       4.641   3.391  19.694  0.00  0.00    +0.000 OA
ATOM     19  O   UNL     1       3.268   4.466  17.863  0.00  0.00    +0.000 OA
BRANCH  17  20
ATOM     20  C   UNL     1       5.559   5.549  18.559  0.00  0.00    +0.000 A 
ATOM     21  C   UNL     1       6.740   5.422  19.296  0.00  0.00    +0.000 A 
ATOM     22  C   UNL     1       7.858   6.177  18.939  0.00  0.00    +0.000 A 
ATOM     23  C   UNL     1       7.798   7.045  17.846  0.00  0.00    +0.000 A 
ATOM     24  C   UNL     1       6.620   7.158  17.105  0.00  0.00    +0.000 A 
ATOM     25  C   UNL     1       5.496   6.406  17.457  0.00  0.00    +0.000 A 
ENDBRANCH  17  20
ENDBRANCH  15  17
ENDBRANCH  14  15
ENDBRANCH   7  14
BRANCH  10  26
ATOM     26  C   UNL     1      -0.862  10.711  20.792  0.00  0.00    +0.000 C 
BRANCH  26  27
ATOM     27  C   UNL     1      -1.570  10.874  19.457  0.00  0.00    +0.000 A 
ATOM     28  C   UNL     1      -2.433  11.953  19.220  0.00  0.00    +0.000 A 
ATOM     29  C   UNL     1      -3.308  11.947  18.135  0.00  0.00    +0.000 A 
ATOM     30  C   UNL     1      -3.251  10.915  17.206  0.00  0.00    +0.000 A 
ATOM     31  C   UNL     1      -2.284   9.921  17.340  0.00  0.00    +0.000 A 
ATOM     32  C   UNL     1      -1.444   9.900  18.459  0.00  0.00    +0.000 A 
ENDBRANCH  26  27
ENDBRANCH  10  26
TORSDOF 7
ENDMDL
MODEL 9
REMARK VINA RESULT:      -8.1      2.985      3.872
REMARK  Name = 
REMARK  7 active torsions:
REMARK  status: ('A' for Active; 'I' for Inactive)
REMARK    1  A    between atoms: N_1  and  C_2
REMARK    2  A    between atoms: C_8  and  C_9
REMARK    3  A    between atoms: C_9  and  N_10
REMARK    4  A    between atoms: N_10  and  S_11
REMARK    5  A    between atoms: S_11  and  C_14
REMARK    6  A    between atoms: C_22  and  C_23
REMARK    7  A    between atoms: C_23  and  C_24
REMARK                            x       y       z     vdW  Elec       q    Type
REMARK                         _______ _______ _______ _____ _____    ______ ____
ROOT
ATOM      1  C   UNL     1       4.231   2.387  19.656  0.00  0.00    +0.000 C 
ATOM      2  C   UNL     1       3.656   1.689  18.425  0.00  0.00    +0.000 C 
ATOM      3  C   UNL     1       2.449   2.456  17.884  0.00  0.00    +0.000 C 
ATOM      4  C   UNL     1       2.472   3.958  18.087  0.00  0.00    +0.000 A 
ATOM      5  C   UNL     1       1.421   4.713  17.556  0.00  0.00    +0.000 A 
ATOM      6  C   UNL     1       1.377   6.098  17.729  0.00  0.00    +0.000 A 
ATOM      7  C   UNL     1       2.389   6.769  18.435  0.00  0.00    +0.000 A 
ATOM      8  C   UNL     1       3.438   6.014  18.973  0.00  0.00    +0.000 A 
ATOM      9  C   UNL     1       3.499   4.619  18.793  0.00  0.00    +0.000 A 
ATOM     10  C   UNL     1       4.701   3.835  19.315  0.00  0.00    +0.000 C 
ENDROOT
BRANCH   1  11
ATOM     11  N   UNL     1       5.212   1.547  20.344  0.00  0.00    +0.000 NA
ATOM     12  H   UNL     1       5.454   1.920  21.258  0.00  0.00    +0.000 HD
ATOM     13  H   UNL     1       4.884   0.591  20.455  0.00  0.00    +0.000 HD
ENDBRANCH   1  11
BRANCH   7  14
ATOM     14  C   UNL     1       2.266   8.263  18.650  0.00  0.00    +0.000 C 
BRANCH  14  15
ATOM     15  N   UNL     1       1.134   8.642  19.500  0.00  0.00    +0.000 NA
ATOM     16  H   UNL     1       1.233   8.470  20.499  0.00  0.00    +0.000 HD
BRANCH  15  17
ATOM     17  S   UNL     1       0.431  10.140  19.195  0.00  0.00    +0.000 S 
ATOM     18  O   UNL     1       1.534  11.059  18.962  0.00  0.00    +0.000 OA
ATOM     19  O   UNL     1      -0.614   9.954  18.216  0.00  0.00    +0.000 OA
BRANCH  17  20
ATOM     20  C   UNL     1      -0.295  10.565  20.751  0.00  0.00    +0.000 A 
ATOM     21  C   UNL     1      -1.077  11.720  20.850  0.00  0.00    +0.000 A 
ATOM     22  C   UNL     1      -1.666  12.049  22.072  0.00  0.00    +0.000 A 
ATOM     23  C   UNL     1      -1.482  11.223  23.183  0.00  0.00    +0.000 A 
ATOM     24  C   UNL     1      -0.712  10.064  23.076  0.00  0.00    +0.000 A 
ATOM     25  C   UNL     1      -0.118   9.728  21.856  0.00  0.00    +0.000 A 
ENDBRANCH  17  20
ENDBRANCH  15  17
ENDBRANCH  14  15
ENDBRANCH   7  14
BRANCH  10  26
ATOM     26  C   UNL     1       5.969   4.000  18.405  0.00  0.00    +0.000 C 
BRANCH  26  27
ATOM     27  C   UNL     1       6.558   5.389  18.232  0.00  0.00    +0.000 A 
ATOM     28  C   UNL     1       6.206   6.196  17.141  0.00  0.00    +0.000 A 
ATOM     29  C   UNL     1       6.956   7.324  16.811  0.00  0.00    +0.000 A 
ATOM     30  C   UNL     1       7.998   7.728  17.637  0.00  0.00    +0.000 A 
ATOM     31  C   UNL     1       8.253   7.029  18.815  0.00  0.00    +0.000 A 
ATOM     32  C   UNL     1       7.536   5.866  19.114  0.00  0.00    +0.000 A 
ENDBRANCH  26  27
ENDBRANCH  10  26
TORSDOF 7
ENDMDL
