MODEL 1
REMARK VINA RESULT:      -8.1      0.000      0.000
REMARK  Name = 
REMARK  8 active torsions:
REMARK  status: ('A' for Active; 'I' for Inactive)
REMARK    1  A    between atoms: C_1  and  C_2
REMARK    2  A    between atoms: C_2  and  C_3
REMARK    3  A    between atoms: C_6  and  C_7
REMARK    4  A    between atoms: C_6  and  C_8
REMARK    5  A    between atoms: C_11  and  C_12
REMARK    6  A    between atoms: N_14  and  C_15
REMARK    7  A    between atoms: C_15  and  C_16
REMARK    8  A    between atoms: C_16  and  N_17
REMARK                            x       y       z     vdW  Elec       q    Type
REMARK                         _______ _______ _______ _____ _____    ______ ____
ROOT
ATOM      1  C   UNL     1      -0.720  11.487  18.350  0.00  0.00    +0.000 C 
ATOM      2  C   UNL     1       0.543  11.417  19.236  0.00  0.00    +0.000 C 
ATOM      3  C   UNL     1       1.583  12.433  18.694  0.00  0.00    +0.000 C 
ATOM      4  C   UNL     1       0.223  11.890  20.672  0.00  0.00    +0.000 C 
ATOM      5  C   UNL     1      -0.364  10.827  21.581  0.00  0.00    +0.000 C 
ATOM      6  C   UNL     1       0.407   9.482  21.613  0.00  0.00    +0.000 C 
ATOM      7  C   UNL     1       1.474   9.519  22.725  0.00  0.00    +0.000 C 
ATOM      8  C   UNL     1      -0.652   8.409  21.990  0.00  0.00    +0.000 C 
ATOM      9  C   UNL     1       1.075   9.119  20.282  0.00  0.00    +0.000 A 
ATOM     10  C   UNL     1       1.690   7.849  20.136  0.00  0.00    +0.000 A 
ATOM     11  C   UNL     1       2.291   7.427  18.939  0.00  0.00    +0.000 A 
ATOM     12  C   UNL     1       2.242   8.264  17.835  0.00  0.00    +0.000 A 
ATOM     13  C   UNL     1       1.661   9.527  17.961  0.00  0.00    +0.000 A 
ATOM     14  C   UNL     1       1.104   9.998  19.175  0.00  0.00    +0.000 A 
ENDROOT
BRANCH  11  15
ATOM     15  C   UNL     1       2.912   6.074  18.880  0.00  0.00    +0.000 C 
ATOM     16  O   UNL     1       2.630   5.241  19.735  0.00  0.00    +0.000 OA
ATOM     17  N   UNL     1       3.828   5.825  17.867  0.00  0.00    +0.000 N 
ATOM     18  H   UNL     1       4.235   6.591  17.346  0.00  0.00    +0.000 HD
BRANCH  17  19
ATOM     19  C   UNL     1       4.541   4.564  17.870  0.00  0.00    +0.000 C 
BRANCH  19  20
ATOM     20  C   UNL     1       5.761   4.492  18.803  0.00  0.00    +0.000 C 
BRANCH  20  21
ATOM     21  N   UNL     1       7.128   4.478  18.241  0.00  0.00    +0.000 NA
ATOM     22  C   UNL     1       7.824   5.734  18.644  0.00  0.00    +0.000 C 
ATOM     23  C   UNL     1       7.326   6.971  17.877  0.00  0.00    +0.000 C 
ATOM     24  O   UNL     1       7.617   6.823  16.487  0.00  0.00    +0.000 OA
ATOM     25  C   UNL     1       6.954   5.673  15.953  0.00  0.00    +0.000 C 
ATOM     26  C   UNL     1       7.223   4.378  16.764  0.00  0.00    +0.000 C 
ENDBRANCH  20  21
ENDBRANCH  19  20
ENDBRANCH  17  19
ENDBRANCH  11  15
TORSDOF 4
ENDMDL
MODEL 2
REMARK VINA RESULT:      -8.0      1.115      1.609
REMARK  Name = 
REMARK  8 active torsions:
REMARK  status: ('A' for Active; 'I' for Inactive)
REMARK    1  A    between atoms: C_1  and  C_2
REMARK    2  A    between atoms: C_2  and  C_3
REMARK    3  A    between atoms: C_6  and  C_7
REMARK    4  A    between atoms: C_6  and  C_8
REMARK    5  A    between atoms: C_11  and  C_12
REMARK    6  A    between atoms: N_14  and  C_15
REMARK    7  A    between atoms: C_15  and  C_16
REMARK    8  A    between atoms: C_16  and  N_17
REMARK                            x       y       z     vdW  Elec       q    Type
REMARK                         _______ _______ _______ _____ _____    ______ ____
ROOT
ATOM      1  C   UNL     1      -0.502  11.571  18.313  0.00  0.00    +0.000 C 
ATOM      2  C   UNL     1       0.752  11.420  19.201  0.00  0.00    +0.000 C 
ATOM      3  C   UNL     1       1.862  12.353  18.652  0.00  0.00    +0.000 C 
ATOM      4  C   UNL     1       0.465  11.928  20.633  0.00  0.00    +0.000 C 
ATOM      5  C   UNL     1      -0.197  10.918  21.551  0.00  0.00    +0.000 C 
ATOM      6  C   UNL     1       0.477   9.522  21.596  0.00  0.00    +0.000 C 
ATOM      7  C   UNL     1       1.542   9.494  22.710  0.00  0.00    +0.000 C 
ATOM      8  C   UNL     1      -0.657   8.531  21.982  0.00  0.00    +0.000 C 
ATOM      9  C   UNL     1       1.118   9.099  20.270  0.00  0.00    +0.000 A 
ATOM     10  C   UNL     1       1.641   7.788  20.137  0.00  0.00    +0.000 A 
ATOM     11  C   UNL     1       2.211   7.313  18.946  0.00  0.00    +0.000 A 
ATOM     12  C   UNL     1       2.223   8.140  17.833  0.00  0.00    +0.000 A 
ATOM     13  C   UNL     1       1.733   9.443  17.946  0.00  0.00    +0.000 A 
ATOM     14  C   UNL     1       1.210   9.964  19.155  0.00  0.00    +0.000 A 
ENDROOT
BRANCH  11  15
ATOM     15  C   UNL     1       2.735   5.918  18.900  0.00  0.00    +0.000 C 
ATOM     16  O   UNL     1       3.493   5.528  19.782  0.00  0.00    +0.000 OA
ATOM     17  N   UNL     1       2.368   5.124  17.823  0.00  0.00    +0.000 N 
ATOM     18  H   UNL     1       1.969   5.541  16.992  0.00  0.00    +0.000 HD
BRANCH  17  19
ATOM     19  C   UNL     1       2.971   3.813  17.690  0.00  0.00    +0.000 C 
BRANCH  19  20
ATOM     20  C   UNL     1       4.367   3.785  17.047  0.00  0.00    +0.000 C 
BRANCH  20  21
ATOM     21  N   UNL     1       5.055   5.049  16.705  0.00  0.00    +0.000 NA
ATOM     22  C   UNL     1       5.490   4.987  15.281  0.00  0.00    +0.000 C 
ATOM     23  C   UNL     1       6.697   4.059  15.060  0.00  0.00    +0.000 C 
ATOM     24  O   UNL     1       7.829   4.569  15.766  0.00  0.00    +0.000 OA
ATOM     25  C   UNL     1       7.564   4.626  17.170  0.00  0.00    +0.000 C 
ATOM     26  C   UNL     1       6.252   5.378  17.516  0.00  0.00    +0.000 C 
ENDBRANCH  20  21
ENDBRANCH  19  20
ENDBRANCH  17  19
ENDBRANCH  11  15
TORSDOF 4
ENDMDL
MODEL 3
REMARK VINA RESULT:      -7.9      3.202      8.123
REMARK  Name = 
REMARK  8 active torsions:
REMARK  status: ('A' for Active; 'I' for Inactive)
REMARK    1  A    between atoms: C_1  and  C_2
REMARK    2  A    between atoms: C_2  and  C_3
REMARK    3  A    between atoms: C_6  and  C_7
REMARK    4  A    between atoms: C_6  and  C_8
REMARK    5  A    between atoms: C_11  and  C_12
REMARK    6  A    between atoms: N_14  and  C_15
REMARK    7  A    between atoms: C_15  and  C_16
REMARK    8  A    between atoms: C_16  and  N_17
REMARK                            x       y       z     vdW  Elec       q    Type
REMARK                         _______ _______ _______ _____ _____    ______ ____
ROOT
ATOM      1  C   UNL     1       6.431   4.246  17.987  0.00  0.00    +0.000 C 
ATOM      2  C   UNL     1       5.077   4.158  17.249  0.00  0.00    +0.000 C 
ATOM      3  C   UNL     1       5.350   4.080  15.724  0.00  0.00    +0.000 C 
ATOM      4  C   UNL     1       4.356   2.837  17.601  0.00  0.00    +0.000 C 
ATOM      5  C   UNL     1       3.550   2.870  18.886  0.00  0.00    +0.000 C 
ATOM      6  C   UNL     1       2.582   4.072  19.032  0.00  0.00    +0.000 C 
ATOM      7  C   UNL     1       1.204   3.705  18.447  0.00  0.00    +0.000 C 
ATOM      8  C   UNL     1       2.420   4.286  20.563  0.00  0.00    +0.000 C 
ATOM      9  C   UNL     1       3.087   5.359  18.371  0.00  0.00    +0.000 A 
ATOM     10  C   UNL     1       2.365   6.565  18.554  0.00  0.00    +0.000 A 
ATOM     11  C   UNL     1       2.780   7.792  18.012  0.00  0.00    +0.000 A 
ATOM     12  C   UNL     1       3.973   7.842  17.307  0.00  0.00    +0.000 A 
ATOM     13  C   UNL     1       4.691   6.663  17.096  0.00  0.00    +0.000 A 
ATOM     14  C   UNL     1       4.259   5.404  17.580  0.00  0.00    +0.000 A 
ENDROOT
BRANCH  11  15
ATOM     15  C   UNL     1       1.956   9.008  18.259  0.00  0.00    +0.000 C 
ATOM     16  O   UNL     1       1.881   9.873  17.392  0.00  0.00    +0.000 OA
ATOM     17  N   UNL     1       1.332   9.130  19.493  0.00  0.00    +0.000 N 
ATOM     18  H   UNL     1       1.617   8.547  20.269  0.00  0.00    +0.000 HD
BRANCH  17  19
ATOM     19  C   UNL     1       0.638  10.363  19.801  0.00  0.00    +0.000 C 
BRANCH  19  20
ATOM     20  C   UNL     1      -0.848  10.406  19.406  0.00  0.00    +0.000 C 
BRANCH  20  21
ATOM     21  N   UNL     1      -1.244  10.828  18.046  0.00  0.00    +0.000 NA
ATOM     22  C   UNL     1      -2.127  12.024  18.154  0.00  0.00    +0.000 C 
ATOM     23  C   UNL     1      -3.540  11.686  18.657  0.00  0.00    +0.000 C 
ATOM     24  O   UNL     1      -4.194  10.834  17.714  0.00  0.00    +0.000 OA
ATOM     25  C   UNL     1      -3.473   9.609  17.558  0.00  0.00    +0.000 C 
ATOM     26  C   UNL     1      -1.969   9.819  17.237  0.00  0.00    +0.000 C 
ENDBRANCH  20  21
ENDBRANCH  19  20
ENDBRANCH  17  19
ENDBRANCH  11  15
TORSDOF 4
ENDMDL
MODEL 4
REMARK VINA RESULT:      -7.9      1.000      1.163
REMARK  Name = 
REMARK  8 active torsions:
REMARK  status: ('A' for Active; 'I' for Inactive)
REMARK    1  A    between atoms: C_1  and  C_2
REMARK    2  A    between atoms: C_2  and  C_3
REMARK    3  A    between atoms: C_6  and  C_7
REMARK    4  A    between atoms: C_6  and  C_8
REMARK    5  A    between atoms: C_11  and  C_12
REMARK    6  A    between atoms: N_14  and  C_15
REMARK    7  A    between atoms: C_15  and  C_16
REMARK    8  A    between atoms: C_16  and  N_17
REMARK                            x       y       z     vdW  Elec       q    Type
REMARK                         _______ _______ _______ _____ _____    ______ ____
ROOT
ATOM      1  C   UNL     1      -0.786  11.473  18.342  0.00  0.00    +0.000 C 
ATOM      2  C   UNL     1       0.472  11.432  19.236  0.00  0.00    +0.000 C 
ATOM      3  C   UNL     1       1.477  12.497  18.725  0.00  0.00    +0.000 C 
ATOM      4  C   UNL     1       0.122  11.862  20.679  0.00  0.00    +0.000 C 
ATOM      5  C   UNL     1      -0.431  10.759  21.561  0.00  0.00    +0.000 C 
ATOM      6  C   UNL     1       0.391   9.444  21.572  0.00  0.00    +0.000 C 
ATOM      7  C   UNL     1       1.447   9.498  22.694  0.00  0.00    +0.000 C 
ATOM      8  C   UNL     1      -0.630   8.324  21.918  0.00  0.00    +0.000 C 
ATOM      9  C   UNL     1       1.083   9.134  20.240  0.00  0.00    +0.000 A 
ATOM     10  C   UNL     1       1.746   7.892  20.073  0.00  0.00    +0.000 A 
ATOM     11  C   UNL     1       2.372   7.518  18.873  0.00  0.00    +0.000 A 
ATOM     12  C   UNL     1       2.300   8.375  17.786  0.00  0.00    +0.000 A 
ATOM     13  C   UNL     1       1.670   9.612  17.933  0.00  0.00    +0.000 A 
ATOM     14  C   UNL     1       1.086  10.037  19.151  0.00  0.00    +0.000 A 
ENDROOT
BRANCH  11  15
ATOM     15  C   UNL     1       3.044   6.191  18.791  0.00  0.00    +0.000 C 
ATOM     16  O   UNL     1       3.962   5.930  19.563  0.00  0.00    +0.000 OA
ATOM     17  N   UNL     1       2.623   5.311  17.804  0.00  0.00    +0.000 N 
ATOM     18  H   UNL     1       2.062   5.641  17.030  0.00  0.00    +0.000 HD
BRANCH  17  19
ATOM     19  C   UNL     1       3.352   4.072  17.622  0.00  0.00    +0.000 C 
BRANCH  19  20
ATOM     20  C   UNL     1       4.254   4.007  16.378  0.00  0.00    +0.000 C 
BRANCH  20  21
ATOM     21  N   UNL     1       5.689   3.678  16.516  0.00  0.00    +0.000 NA
ATOM     22  C   UNL     1       6.314   4.649  17.458  0.00  0.00    +0.000 C 
ATOM     23  C   UNL     1       6.507   6.046  16.844  0.00  0.00    +0.000 C 
ATOM     24  O   UNL     1       7.417   5.966  15.746  0.00  0.00    +0.000 OA
ATOM     25  C   UNL     1       6.905   5.100  14.730  0.00  0.00    +0.000 C 
ATOM     26  C   UNL     1       6.485   3.706  15.265  0.00  0.00    +0.000 C 
ENDBRANCH  20  21
ENDBRANCH  19  20
ENDBRANCH  17  19
ENDBRANCH  11  15
TORSDOF 4
ENDMDL
MODEL 5
REMARK VINA RESULT:      -7.6      3.350      8.363
REMARK  Name = 
REMARK  8 active torsions:
REMARK  status: ('A' for Active; 'I' for Inactive)
REMARK    1  A    between atoms: C_1  and  C_2
REMARK    2  A    between atoms: C_2  and  C_3
REMARK    3  A    between atoms: C_6  and  C_7
REMARK    4  A    between atoms: C_6  and  C_8
REMARK    5  A    between atoms: C_11  and  C_12
REMARK    6  A    between atoms: N_14  and  C_15
REMARK    7  A    between atoms: C_15  and  C_16
REMARK    8  A    between atoms: C_16  and  N_17
REMARK                            x       y       z     vdW  Elec       q    Type
REMARK                         _______ _______ _______ _____ _____    ______ ____
ROOT
ATOM      1  C   UNL     1       6.480   4.429  17.556  0.00  0.00    +0.000 C 
ATOM      2  C   UNL     1       5.095   4.322  16.883  0.00  0.00    +0.000 C 
ATOM      3  C   UNL     1       5.292   4.313  15.345  0.00  0.00    +0.000 C 
ATOM      4  C   UNL     1       4.435   2.965  17.217  0.00  0.00    +0.000 C 
ATOM      5  C   UNL     1       3.696   2.919  18.541  0.00  0.00    +0.000 C 
ATOM      6  C   UNL     1       2.698   4.081  18.783  0.00  0.00    +0.000 C 
ATOM      7  C   UNL     1       1.304   3.688  18.252  0.00  0.00    +0.000 C 
ATOM      8  C   UNL     1       2.607   4.229  20.328  0.00  0.00    +0.000 C 
ATOM      9  C   UNL     1       3.126   5.409  18.150  0.00  0.00    +0.000 A 
ATOM     10  C   UNL     1       2.375   6.581  18.418  0.00  0.00    +0.000 A 
ATOM     11  C   UNL     1       2.722   7.841  17.906  0.00  0.00    +0.000 A 
ATOM     12  C   UNL     1       3.874   7.960  17.145  0.00  0.00    +0.000 A 
ATOM     13  C   UNL     1       4.619   6.816  16.851  0.00  0.00    +0.000 A 
ATOM     14  C   UNL     1       4.253   5.525  17.304  0.00  0.00    +0.000 A 
ENDROOT
BRANCH  11  15
ATOM     15  C   UNL     1       1.871   9.018  18.242  0.00  0.00    +0.000 C 
ATOM     16  O   UNL     1       1.833   9.975  17.474  0.00  0.00    +0.000 OA
ATOM     17  N   UNL     1       1.181   8.996  19.446  0.00  0.00    +0.000 N 
ATOM     18  H   UNL     1       1.431   8.332  20.166  0.00  0.00    +0.000 HD
BRANCH  17  19
ATOM     19  C   UNL     1       0.457  10.183  19.852  0.00  0.00    +0.000 C 
BRANCH  19  20
ATOM     20  C   UNL     1      -0.955  10.336  19.263  0.00  0.00    +0.000 C 
BRANCH  20  21
ATOM     21  N   UNL     1      -1.344  11.586  18.577  0.00  0.00    +0.000 NA
ATOM     22  C   UNL     1      -1.229  12.717  19.541  0.00  0.00    +0.000 C 
ATOM     23  C   UNL     1      -2.352  12.730  20.592  0.00  0.00    +0.000 C 
ATOM     24  O   UNL     1      -3.611  12.928  19.946  0.00  0.00    +0.000 OA
ATOM     25  C   UNL     1      -3.876  11.868  19.024  0.00  0.00    +0.000 C 
ATOM     26  C   UNL     1      -2.718  11.622  18.021  0.00  0.00    +0.000 C 
ENDBRANCH  20  21
ENDBRANCH  19  20
ENDBRANCH  17  19
ENDBRANCH  11  15
TORSDOF 4
ENDMDL
MODEL 6
REMARK VINA RESULT:      -7.6      3.203      7.568
REMARK  Name = 
REMARK  8 active torsions:
REMARK  status: ('A' for Active; 'I' for Inactive)
REMARK    1  A    between atoms: C_1  and  C_2
REMARK    2  A    between atoms: C_2  and  C_3
REMARK    3  A    between atoms: C_6  and  C_7
REMARK    4  A    between atoms: C_6  and  C_8
REMARK    5  A    between atoms: C_11  and  C_12
REMARK    6  A    between atoms: N_14  and  C_15
REMARK    7  A    between atoms: C_15  and  C_16
REMARK    8  A    between atoms: C_16  and  N_17
REMARK                            x       y       z     vdW  Elec       q    Type
REMARK                         _______ _______ _______ _____ _____    ______ ____
ROOT
ATOM      1  C   UNL     1       6.369   4.506  17.930  0.00  0.00    +0.000 C 
ATOM      2  C   UNL     1       5.004   4.348  17.225  0.00  0.00    +0.000 C 
ATOM      3  C   UNL     1       5.242   4.295  15.694  0.00  0.00    +0.000 C 
ATOM      4  C   UNL     1       4.366   2.987  17.585  0.00  0.00    +0.000 C 
ATOM      5  C   UNL     1       3.594   2.965  18.890  0.00  0.00    +0.000 C 
ATOM      6  C   UNL     1       2.564   4.111  19.070  0.00  0.00    +0.000 C 
ATOM      7  C   UNL     1       1.194   3.672  18.517  0.00  0.00    +0.000 C 
ATOM      8  C   UNL     1       2.430   4.305  20.607  0.00  0.00    +0.000 C 
ATOM      9  C   UNL     1       2.980   5.428  18.407  0.00  0.00    +0.000 A 
ATOM     10  C   UNL     1       2.197   6.592  18.618  0.00  0.00    +0.000 A 
ATOM     11  C   UNL     1       2.530   7.843  18.076  0.00  0.00    +0.000 A 
ATOM     12  C   UNL     1       3.700   7.964  17.341  0.00  0.00    +0.000 A 
ATOM     13  C   UNL     1       4.476   6.828  17.103  0.00  0.00    +0.000 A 
ATOM     14  C   UNL     1       4.127   5.544  17.587  0.00  0.00    +0.000 A 
ENDROOT
BRANCH  11  15
ATOM     15  C   UNL     1       1.646   9.010  18.353  0.00  0.00    +0.000 C 
ATOM     16  O   UNL     1       1.456   9.846  17.475  0.00  0.00    +0.000 OA
ATOM     17  N   UNL     1       1.101   9.123  19.625  0.00  0.00    +0.000 N 
ATOM     18  H   UNL     1       1.476   8.580  20.392  0.00  0.00    +0.000 HD
BRANCH  17  19
ATOM     19  C   UNL     1       0.350  10.317  19.954  0.00  0.00    +0.000 C 
BRANCH  19  20
ATOM     20  C   UNL     1       1.147  11.436  20.644  0.00  0.00    +0.000 C 
BRANCH  20  21
ATOM     21  N   UNL     1       0.874  12.853  20.320  0.00  0.00    +0.000 NA
ATOM     22  C   UNL     1       1.066  13.055  18.856  0.00  0.00    +0.000 C 
ATOM     23  C   UNL     1       2.547  13.056  18.438  0.00  0.00    +0.000 C 
ATOM     24  O   UNL     1       3.217  14.160  19.050  0.00  0.00    +0.000 OA
ATOM     25  C   UNL     1       3.157  14.058  20.475  0.00  0.00    +0.000 C 
ATOM     26  C   UNL     1       1.718  13.853  21.016  0.00  0.00    +0.000 C 
ENDBRANCH  20  21
ENDBRANCH  19  20
ENDBRANCH  17  19
ENDBRANCH  11  15
TORSDOF 4
ENDMDL
MODEL 7
REMARK VINA RESULT:      -7.4      3.319      8.119
REMARK  Name = 
REMARK  8 active torsions:
REMARK  status: ('A' for Active; 'I' for Inactive)
REMARK    1  A    between atoms: C_1  and  C_2
REMARK    2  A    between atoms: C_2  and  C_3
REMARK    3  A    between atoms: C_6  and  C_7
REMARK    4  A    between atoms: C_6  and  C_8
REMARK    5  A    between atoms: C_11  and  C_12
REMARK    6  A    between atoms: N_14  and  C_15
REMARK    7  A    between atoms: C_15  and  C_16
REMARK    8  A    between atoms: C_16  and  N_17
REMARK                            x       y       z     vdW  Elec       q    Type
REMARK                         _______ _______ _______ _____ _____    ______ ____
ROOT
ATOM      1  C   UNL     1       5.756   3.796  18.322  0.00  0.00    +0.000 C 
ATOM      2  C   UNL     1       4.278   3.792  17.877  0.00  0.00    +0.000 C 
ATOM      3  C   UNL     1       4.225   3.985  16.339  0.00  0.00    +0.000 C 
ATOM      4  C   UNL     1       3.640   2.408  18.135  0.00  0.00    +0.000 C 
ATOM      5  C   UNL     1       3.122   2.194  19.545  0.00  0.00    +0.000 C 
ATOM      6  C   UNL     1       2.212   3.322  20.096  0.00  0.00    +0.000 C 
ATOM      7  C   UNL     1       0.740   3.016  19.754  0.00  0.00    +0.000 C 
ATOM      8  C   UNL     1       2.375   3.264  21.640  0.00  0.00    +0.000 C 
ATOM      9  C   UNL     1       2.573   4.718  19.579  0.00  0.00    +0.000 A 
ATOM     10  C   UNL     1       1.910   5.852  20.115  0.00  0.00    +0.000 A 
ATOM     11  C   UNL     1       2.209   7.165  19.721  0.00  0.00    +0.000 A 
ATOM     12  C   UNL     1       3.227   7.374  18.804  0.00  0.00    +0.000 A 
ATOM     13  C   UNL     1       3.879   6.272  18.246  0.00  0.00    +0.000 A 
ATOM     14  C   UNL     1       3.553   4.936  18.582  0.00  0.00    +0.000 A 
ENDROOT
BRANCH  11  15
ATOM     15  C   UNL     1       1.460   8.295  20.341  0.00  0.00    +0.000 C 
ATOM     16  O   UNL     1       1.068   8.195  21.500  0.00  0.00    +0.000 OA
ATOM     17  N   UNL     1       1.200   9.409  19.556  0.00  0.00    +0.000 N 
ATOM     18  H   UNL     1       1.297   9.360  18.550  0.00  0.00    +0.000 HD
BRANCH  17  19
ATOM     19  C   UNL     1       0.360  10.458  20.096  0.00  0.00    +0.000 C 
BRANCH  19  20
ATOM     20  C   UNL     1      -1.071  10.519  19.538  0.00  0.00    +0.000 C 
BRANCH  20  21
ATOM     21  N   UNL     1      -1.311  10.971  18.151  0.00  0.00    +0.000 NA
ATOM     22  C   UNL     1      -2.268  12.112  18.178  0.00  0.00    +0.000 C 
ATOM     23  C   UNL     1      -3.713  11.680  18.479  0.00  0.00    +0.000 C 
ATOM     24  O   UNL     1      -4.187  10.830  17.432  0.00  0.00    +0.000 OA
ATOM     25  C   UNL     1      -3.382   9.653  17.335  0.00  0.00    +0.000 C 
ATOM     26  C   UNL     1      -1.864   9.955  17.223  0.00  0.00    +0.000 C 
ENDBRANCH  20  21
ENDBRANCH  19  20
ENDBRANCH  17  19
ENDBRANCH  11  15
TORSDOF 4
ENDMDL
MODEL 8
REMARK VINA RESULT:      -7.4      3.266      8.147
REMARK  Name = 
REMARK  8 active torsions:
REMARK  status: ('A' for Active; 'I' for Inactive)
REMARK    1  A    between atoms: C_1  and  C_2
REMARK    2  A    between atoms: C_2  and  C_3
REMARK    3  A    between atoms: C_6  and  C_7
REMARK    4  A    between atoms: C_6  and  C_8
REMARK    5  A    between atoms: C_11  and  C_12
REMARK    6  A    between atoms: N_14  and  C_15
REMARK    7  A    between atoms: C_15  and  C_16
REMARK    8  A    between atoms: C_16  and  N_17
REMARK                            x       y       z     vdW  Elec       q    Type
REMARK                         _______ _______ _______ _____ _____    ______ ____
ROOT
ATOM      1  C   UNL     1       6.376   4.363  17.917  0.00  0.00    +0.000 C 
ATOM      2  C   UNL     1       5.026   4.274  17.173  0.00  0.00    +0.000 C 
ATOM      3  C   UNL     1       5.303   4.242  15.648  0.00  0.00    +0.000 C 
ATOM      4  C   UNL     1       4.324   2.934  17.488  0.00  0.00    +0.000 C 
ATOM      5  C   UNL     1       3.515   2.919  18.771  0.00  0.00    +0.000 C 
ATOM      6  C   UNL     1       2.529   4.103  18.948  0.00  0.00    +0.000 C 
ATOM      7  C   UNL     1       1.158   3.731  18.349  0.00  0.00    +0.000 C 
ATOM      8  C   UNL     1       2.360   4.272  20.484  0.00  0.00    +0.000 C 
ATOM      9  C   UNL     1       3.016   5.414  18.323  0.00  0.00    +0.000 A 
ATOM     10  C   UNL     1       2.275   6.604  18.537  0.00  0.00    +0.000 A 
ATOM     11  C   UNL     1       2.673   7.851  18.030  0.00  0.00    +0.000 A 
ATOM     12  C   UNL     1       3.866   7.938  17.329  0.00  0.00    +0.000 A 
ATOM     13  C   UNL     1       4.602   6.776  17.088  0.00  0.00    +0.000 A 
ATOM     14  C   UNL     1       4.188   5.499  17.536  0.00  0.00    +0.000 A 
ENDROOT
BRANCH  11  15
ATOM     15  C   UNL     1       1.830   9.048  18.307  0.00  0.00    +0.000 C 
ATOM     16  O   UNL     1       1.815   9.976  17.504  0.00  0.00    +0.000 OA
ATOM     17  N   UNL     1       1.120   9.078  19.499  0.00  0.00    +0.000 N 
ATOM     18  H   UNL     1       1.350   8.438  20.248  0.00  0.00    +0.000 HD
BRANCH  17  19
ATOM     19  C   UNL     1       0.402  10.287  19.849  0.00  0.00    +0.000 C 
BRANCH  19  20
ATOM     20  C   UNL     1       0.325  10.604  21.352  0.00  0.00    +0.000 C 
BRANCH  20  21
ATOM     21  N   UNL     1       0.317  12.007  21.817  0.00  0.00    +0.000 NA
ATOM     22  C   UNL     1      -0.958  12.262  22.546  0.00  0.00    +0.000 C 
ATOM     23  C   UNL     1      -2.175  12.374  21.611  0.00  0.00    +0.000 C 
ATOM     24  O   UNL     1      -2.015  13.503  20.749  0.00  0.00    +0.000 OA
ATOM     25  C   UNL     1      -0.845  13.357  19.941  0.00  0.00    +0.000 C 
ATOM     26  C   UNL     1       0.434  13.042  20.761  0.00  0.00    +0.000 C 
ENDBRANCH  20  21
ENDBRANCH  19  20
ENDBRANCH  17  19
ENDBRANCH  11  15
TORSDOF 4
ENDMDL
MODEL 9
REMARK VINA RESULT:      -7.4      3.356      8.489
REMARK  Name = 
REMARK  8 active torsions:
REMARK  status: ('A' for Active; 'I' for Inactive)
REMARK    1  A    between atoms: C_1  and  C_2
REMARK    2  A    between atoms: C_2  and  C_3
REMARK    3  A    between atoms: C_6  and  C_7
REMARK    4  A    between atoms: C_6  and  C_8
REMARK    5  A    between atoms: C_11  and  C_12
REMARK    6  A    between atoms: N_14  and  C_15
REMARK    7  A    between atoms: C_15  and  C_16
REMARK    8  A    between atoms: C_16  and  N_17
REMARK                            x       y       z     vdW  Elec       q    Type
REMARK                         _______ _______ _______ _____ _____    ______ ____
ROOT
ATOM      1  C   UNL     1       6.587   4.626  17.181  0.00  0.00    +0.000 C 
ATOM      2  C   UNL     1       5.170   4.504  16.579  0.00  0.00    +0.000 C 
ATOM      3  C   UNL     1       5.256   4.769  15.054  0.00  0.00    +0.000 C 
ATOM      4  C   UNL     1       4.651   3.054  16.712  0.00  0.00    +0.000 C 
ATOM      5  C   UNL     1       4.016   2.720  18.049  0.00  0.00    +0.000 C 
ATOM      6  C   UNL     1       2.945   3.726  18.544  0.00  0.00    +0.000 C 
ATOM      7  C   UNL     1       1.554   3.299  18.034  0.00  0.00    +0.000 C 
ATOM      8  C   UNL     1       2.954   3.606  20.093  0.00  0.00    +0.000 C 
ATOM      9  C   UNL     1       3.215   5.175  18.125  0.00  0.00    +0.000 A 
ATOM     10  C   UNL     1       2.391   6.211  18.633  0.00  0.00    +0.000 A 
ATOM     11  C   UNL     1       2.595   7.566  18.326  0.00  0.00    +0.000 A 
ATOM     12  C   UNL     1       3.676   7.917  17.533  0.00  0.00    +0.000 A 
ATOM     13  C   UNL     1       4.489   6.913  17.004  0.00  0.00    +0.000 A 
ATOM     14  C   UNL     1       4.265   5.536  17.249  0.00  0.00    +0.000 A 
ENDROOT
BRANCH  11  15
ATOM     15  C   UNL     1       1.677   8.586  18.908  0.00  0.00    +0.000 C 
ATOM     16  O   UNL     1       1.449   8.576  20.114  0.00  0.00    +0.000 OA
ATOM     17  N   UNL     1       1.079   9.490  18.041  0.00  0.00    +0.000 N 
ATOM     18  H   UNL     1       1.074   9.315  17.045  0.00  0.00    +0.000 HD
BRANCH  17  19
ATOM     19  C   UNL     1       0.083  10.401  18.566  0.00  0.00    +0.000 C 
BRANCH  19  20
ATOM     20  C   UNL     1      -1.305  10.320  17.910  0.00  0.00    +0.000 C 
BRANCH  20  21
ATOM     21  N   UNL     1      -1.997  11.553  17.478  0.00  0.00    +0.000 NA
ATOM     22  C   UNL     1      -1.844  12.585  18.543  0.00  0.00    +0.000 C 
ATOM     23  C   UNL     1      -2.718  12.310  19.779  0.00  0.00    +0.000 C 
ATOM     24  O   UNL     1      -4.098  12.366  19.412  0.00  0.00    +0.000 OA
ATOM     25  C   UNL     1      -4.397  11.375  18.425  0.00  0.00    +0.000 C 
ATOM     26  C   UNL     1      -3.447  11.422  17.200  0.00  0.00    +0.000 C 
ENDBRANCH  20  21
ENDBRANCH  19  20
ENDBRANCH  17  19
ENDBRANCH  11  15
TORSDOF 4
ENDMDL
