MODEL 1
REMARK VINA RESULT:      -8.8      0.000      0.000
REMARK  Name = 
REMARK  3 active torsions:
REMARK  status: ('A' for Active; 'I' for Inactive)
REMARK    1  A    between atoms: N_4  and  C_5
REMARK    2  A    between atoms: C_12  and  C_13
REMARK    3  A    between atoms: C_15  and  C_16
REMARK                            x       y       z     vdW  Elec       q    Type
REMARK                         _______ _______ _______ _____ _____    ______ ____
ROOT
ATOM      1  C   UNL     1       6.089   5.793  16.803  0.00  0.00    +0.000 A 
ATOM      2  C   UNL     1       6.231   4.872  17.862  0.00  0.00    +0.000 A 
ATOM      3  C   UNL     1       5.338   4.853  18.932  0.00  0.00    +0.000 A 
ATOM      4  C   UNL     1       4.312   5.768  18.915  0.00  0.00    +0.000 A 
ATOM      5  C   UNL     1       4.133   6.696  17.885  0.00  0.00    +0.000 A 
ATOM      6  C   UNL     1       5.034   6.731  16.824  0.00  0.00    +0.000 A 
ATOM      7  C   UNL     1       2.934   7.472  18.260  0.00  0.00    +0.000 C 
ATOM      8  C   UNL     1       2.373   8.486  17.582  0.00  0.00    +0.000 C 
ATOM      9  C   UNL     1       2.449   6.915  19.584  0.00  0.00    +0.000 C 
ATOM     10  O   UNL     1       1.480   7.223  20.247  0.00  0.00    +0.000 OA
ATOM     11  N   UNL     1       3.340   5.906  19.893  0.00  0.00    +0.000 N 
ATOM     12  H   UNL     1       3.256   5.352  20.730  0.00  0.00    +0.000 HD
ENDROOT
BRANCH   1  16
ATOM     13  N   UNL     1       7.999   5.213  13.765  0.00  0.00    +0.000 N 
ATOM     14  C   UNL     1       6.933   5.021  14.597  0.00  0.00    +0.000 C 
ATOM     15  O   UNL     1       6.069   4.219  14.273  0.00  0.00    +0.000 OA
ATOM     16  N   UNL     1       6.994   5.813  15.717  0.00  0.00    +0.000 N 
ATOM     17  H   UNL     1       7.985   4.560  12.988  0.00  0.00    +0.000 HD
ATOM     18  H   UNL     1       8.907   5.308  14.196  0.00  0.00    +0.000 HD
ATOM     19  H   UNL     1       7.640   6.586  15.660  0.00  0.00    +0.000 HD
ENDBRANCH   1  16
BRANCH   8  20
ATOM     20  C   UNL     1       1.307   9.247  18.122  0.00  0.00    +0.000 A 
ATOM     21  C   UNL     1      -0.041   9.288  17.836  0.00  0.00    +0.000 A 
ATOM     22  C   UNL     1      -0.635  10.330  18.607  0.00  0.00    +0.000 A 
ATOM     23  C   UNL     1       0.381  10.859  19.381  0.00  0.00    +0.000 A 
ATOM     24  N   UNL     1       1.549  10.198  19.082  0.00  0.00    +0.000 N 
ATOM     25  H   UNL     1       2.457  10.432  19.460  0.00  0.00    +0.000 HD
BRANCH  22  26
ATOM     26  C   UNL     1      -2.011  10.818  18.584  0.00  0.00    +0.000 A 
ATOM     27  C   UNL     1      -2.966  10.285  17.708  0.00  0.00    +0.000 A 
ATOM     28  C   UNL     1      -4.269  10.795  17.678  0.00  0.00    +0.000 A 
ATOM     29  C   UNL     1      -4.632  11.841  18.522  0.00  0.00    +0.000 A 
ATOM     30  C   UNL     1      -3.699  12.371  19.409  0.00  0.00    +0.000 A 
ATOM     31  C   UNL     1      -2.397  11.861  19.440  0.00  0.00    +0.000 A 
ENDBRANCH  22  26
ENDBRANCH   8  20
TORSDOF 3
ENDMDL
MODEL 2
REMARK VINA RESULT:      -8.8      2.206      2.721
REMARK  Name = 
REMARK  3 active torsions:
REMARK  status: ('A' for Active; 'I' for Inactive)
REMARK    1  A    between atoms: N_4  and  C_5
REMARK    2  A    between atoms: C_12  and  C_13
REMARK    3  A    between atoms: C_15  and  C_16
REMARK                            x       y       z     vdW  Elec       q    Type
REMARK                         _______ _______ _______ _____ _____    ______ ____
ROOT
ATOM      1  C   UNL     1       4.893   4.871  16.435  0.00  0.00    +0.000 A 
ATOM      2  C   UNL     1       4.703   3.550  16.891  0.00  0.00    +0.000 A 
ATOM      3  C   UNL     1       3.854   3.265  17.958  0.00  0.00    +0.000 A 
ATOM      4  C   UNL     1       3.206   4.324  18.551  0.00  0.00    +0.000 A 
ATOM      5  C   UNL     1       3.364   5.647  18.130  0.00  0.00    +0.000 A 
ATOM      6  C   UNL     1       4.226   5.938  17.076  0.00  0.00    +0.000 A 
ATOM      7  C   UNL     1       2.504   6.448  19.024  0.00  0.00    +0.000 C 
ATOM      8  C   UNL     1       2.330   7.780  19.013  0.00  0.00    +0.000 C 
ATOM      9  C   UNL     1       1.849   5.477  19.988  0.00  0.00    +0.000 C 
ATOM     10  O   UNL     1       1.043   5.684  20.870  0.00  0.00    +0.000 OA
ATOM     11  N   UNL     1       2.336   4.235  19.626  0.00  0.00    +0.000 N 
ATOM     12  H   UNL     1       2.062   3.391  20.101  0.00  0.00    +0.000 HD
ENDROOT
BRANCH   1  16
ATOM     13  N   UNL     1       7.682   5.463  14.181  0.00  0.00    +0.000 N 
ATOM     14  C   UNL     1       7.120   5.016  15.342  0.00  0.00    +0.000 C 
ATOM     15  O   UNL     1       7.845   4.539  16.203  0.00  0.00    +0.000 OA
ATOM     16  N   UNL     1       5.755   5.162  15.353  0.00  0.00    +0.000 N 
ATOM     17  H   UNL     1       8.696   5.430  14.223  0.00  0.00    +0.000 HD
ATOM     18  H   UNL     1       7.323   6.326  13.799  0.00  0.00    +0.000 HD
ATOM     19  H   UNL     1       5.334   5.325  14.450  0.00  0.00    +0.000 HD
ENDBRANCH   1  16
BRANCH   8  20
ATOM     20  C   UNL     1       1.590   8.445  20.021  0.00  0.00    +0.000 A 
ATOM     21  C   UNL     1       0.526   9.320  19.965  0.00  0.00    +0.000 A 
ATOM     22  C   UNL     1       0.248   9.778  21.286  0.00  0.00    +0.000 A 
ATOM     23  C   UNL     1       1.135   9.118  22.115  0.00  0.00    +0.000 A 
ATOM     24  N   UNL     1       1.940   8.313  21.342  0.00  0.00    +0.000 N 
ATOM     25  H   UNL     1       2.718   7.770  21.691  0.00  0.00    +0.000 HD
BRANCH  22  26
ATOM     26  C   UNL     1      -0.721  10.779  21.725  0.00  0.00    +0.000 A 
ATOM     27  C   UNL     1      -1.168  10.837  23.052  0.00  0.00    +0.000 A 
ATOM     28  C   UNL     1      -2.125  11.782  23.441  0.00  0.00    +0.000 A 
ATOM     29  C   UNL     1      -2.642  12.680  22.510  0.00  0.00    +0.000 A 
ATOM     30  C   UNL     1      -2.196  12.645  21.192  0.00  0.00    +0.000 A 
ATOM     31  C   UNL     1      -1.239  11.702  20.804  0.00  0.00    +0.000 A 
ENDBRANCH  22  26
ENDBRANCH   8  20
TORSDOF 3
ENDMDL
MODEL 3
REMARK VINA RESULT:      -8.7      0.530      1.078
REMARK  Name = 
REMARK  3 active torsions:
REMARK  status: ('A' for Active; 'I' for Inactive)
REMARK    1  A    between atoms: N_4  and  C_5
REMARK    2  A    between atoms: C_12  and  C_13
REMARK    3  A    between atoms: C_15  and  C_16
REMARK                            x       y       z     vdW  Elec       q    Type
REMARK                         _______ _______ _______ _____ _____    ______ ____
ROOT
ATOM      1  C   UNL     1       5.645   5.915  17.007  0.00  0.00    +0.000 A 
ATOM      2  C   UNL     1       5.753   5.026  18.096  0.00  0.00    +0.000 A 
ATOM      3  C   UNL     1       4.870   5.083  19.172  0.00  0.00    +0.000 A 
ATOM      4  C   UNL     1       3.886   6.044  19.131  0.00  0.00    +0.000 A 
ATOM      5  C   UNL     1       3.741   6.942  18.070  0.00  0.00    +0.000 A 
ATOM      6  C   UNL     1       4.633   6.900  17.003  0.00  0.00    +0.000 A 
ATOM      7  C   UNL     1       2.581   7.784  18.426  0.00  0.00    +0.000 C 
ATOM      8  C   UNL     1       2.061   8.799  17.718  0.00  0.00    +0.000 C 
ATOM      9  C   UNL     1       2.082   7.296  19.773  0.00  0.00    +0.000 C 
ATOM     10  O   UNL     1       1.134   7.670  20.431  0.00  0.00    +0.000 OA
ATOM     11  N   UNL     1       2.930   6.258  20.110  0.00  0.00    +0.000 N 
ATOM     12  H   UNL     1       2.828   5.738  20.966  0.00  0.00    +0.000 HD
ENDROOT
BRANCH   1  16
ATOM     13  N   UNL     1       7.535   5.112  14.008  0.00  0.00    +0.000 N 
ATOM     14  C   UNL     1       6.479   4.976  14.862  0.00  0.00    +0.000 C 
ATOM     15  O   UNL     1       5.620   4.143  14.611  0.00  0.00    +0.000 OA
ATOM     16  N   UNL     1       6.540   5.857  15.914  0.00  0.00    +0.000 N 
ATOM     17  H   UNL     1       7.522   4.398  13.287  0.00  0.00    +0.000 HD
ATOM     18  H   UNL     1       8.446   5.251  14.422  0.00  0.00    +0.000 HD
ATOM     19  H   UNL     1       7.178   6.629  15.790  0.00  0.00    +0.000 HD
ENDBRANCH   1  16
BRANCH   8  20
ATOM     20  C   UNL     1       1.035   9.626  18.238  0.00  0.00    +0.000 A 
ATOM     21  C   UNL     1      -0.328   9.656  18.029  0.00  0.00    +0.000 A 
ATOM     22  C   UNL     1      -0.867  10.779  18.724  0.00  0.00    +0.000 A 
ATOM     23  C   UNL     1       0.198  11.371  19.377  0.00  0.00    +0.000 A 
ATOM     24  N   UNL     1       1.341  10.666  19.080  0.00  0.00    +0.000 N 
ATOM     25  H   UNL     1       2.272  10.926  19.378  0.00  0.00    +0.000 HD
BRANCH  22  26
ATOM     26  C   UNL     1      -2.238  11.281  18.731  0.00  0.00    +0.000 A 
ATOM     27  C   UNL     1      -2.696  12.153  19.727  0.00  0.00    +0.000 A 
ATOM     28  C   UNL     1      -4.025  12.593  19.734  0.00  0.00    +0.000 A 
ATOM     29  C   UNL     1      -4.909  12.167  18.745  0.00  0.00    +0.000 A 
ATOM     30  C   UNL     1      -4.464  11.313  17.739  0.00  0.00    +0.000 A 
ATOM     31  C   UNL     1      -3.136  10.876  17.732  0.00  0.00    +0.000 A 
ENDBRANCH  22  26
ENDBRANCH   8  20
TORSDOF 3
ENDMDL
MODEL 4
REMARK VINA RESULT:      -8.5      1.125      1.194
REMARK  Name = 
REMARK  3 active torsions:
REMARK  status: ('A' for Active; 'I' for Inactive)
REMARK    1  A    between atoms: N_4  and  C_5
REMARK    2  A    between atoms: C_12  and  C_13
REMARK    3  A    between atoms: C_15  and  C_16
REMARK                            x       y       z     vdW  Elec       q    Type
REMARK                         _______ _______ _______ _____ _____    ______ ____
ROOT
ATOM      1  C   UNL     1       5.035   5.256  17.146  0.00  0.00    +0.000 A 
ATOM      2  C   UNL     1       5.147   4.483  18.320  0.00  0.00    +0.000 A 
ATOM      3  C   UNL     1       4.393   4.772  19.456  0.00  0.00    +0.000 A 
ATOM      4  C   UNL     1       3.533   5.843  19.387  0.00  0.00    +0.000 A 
ATOM      5  C   UNL     1       3.388   6.634  18.244  0.00  0.00    +0.000 A 
ATOM      6  C   UNL     1       4.154   6.360  17.114  0.00  0.00    +0.000 A 
ATOM      7  C   UNL     1       2.382   7.654  18.598  0.00  0.00    +0.000 C 
ATOM      8  C   UNL     1       1.917   8.647  17.821  0.00  0.00    +0.000 C 
ATOM      9  C   UNL     1       1.969   7.383  20.032  0.00  0.00    +0.000 C 
ATOM     10  O   UNL     1       1.145   7.948  20.722  0.00  0.00    +0.000 OA
ATOM     11  N   UNL     1       2.716   6.286  20.414  0.00  0.00    +0.000 N 
ATOM     12  H   UNL     1       2.641   5.878  21.332  0.00  0.00    +0.000 HD
ENDROOT
BRANCH   1  16
ATOM     13  N   UNL     1       7.439   5.124  14.423  0.00  0.00    +0.000 N 
ATOM     14  C   UNL     1       6.986   5.556  15.636  0.00  0.00    +0.000 C 
ATOM     15  O   UNL     1       7.653   6.369  16.260  0.00  0.00    +0.000 OA
ATOM     16  N   UNL     1       5.799   4.964  15.993  0.00  0.00    +0.000 N 
ATOM     17  H   UNL     1       8.268   5.633  14.134  0.00  0.00    +0.000 HD
ATOM     18  H   UNL     1       6.755   5.018  13.688  0.00  0.00    +0.000 HD
ATOM     19  H   UNL     1       5.560   4.136  15.470  0.00  0.00    +0.000 HD
ENDBRANCH   1  16
BRANCH   8  20
ATOM     20  C   UNL     1       1.057   9.652  18.328  0.00  0.00    +0.000 A 
ATOM     21  C   UNL     1      -0.311   9.704  18.498  0.00  0.00    +0.000 A 
ATOM     22  C   UNL     1      -0.661  11.013  18.942  0.00  0.00    +0.000 A 
ATOM     23  C   UNL     1       0.529  11.703  19.074  0.00  0.00    +0.000 A 
ATOM     24  N   UNL     1       1.561  10.873  18.702  0.00  0.00    +0.000 N 
ATOM     25  H   UNL     1       2.531  11.150  18.644  0.00  0.00    +0.000 HD
BRANCH  22  26
ATOM     26  C   UNL     1      -1.988  11.579  19.170  0.00  0.00    +0.000 A 
ATOM     27  C   UNL     1      -3.076  11.256  18.350  0.00  0.00    +0.000 A 
ATOM     28  C   UNL     1      -4.330  11.841  18.565  0.00  0.00    +0.000 A 
ATOM     29  C   UNL     1      -4.509  12.752  19.603  0.00  0.00    +0.000 A 
ATOM     30  C   UNL     1      -3.441  13.071  20.436  0.00  0.00    +0.000 A 
ATOM     31  C   UNL     1      -2.189  12.486  20.222  0.00  0.00    +0.000 A 
ENDBRANCH  22  26
ENDBRANCH   8  20
TORSDOF 3
ENDMDL
MODEL 5
REMARK VINA RESULT:      -8.3      1.458      2.138
REMARK  Name = 
REMARK  3 active torsions:
REMARK  status: ('A' for Active; 'I' for Inactive)
REMARK    1  A    between atoms: N_4  and  C_5
REMARK    2  A    between atoms: C_12  and  C_13
REMARK    3  A    between atoms: C_15  and  C_16
REMARK                            x       y       z     vdW  Elec       q    Type
REMARK                         _______ _______ _______ _____ _____    ______ ____
ROOT
ATOM      1  C   UNL     1       5.864   5.849  16.907  0.00  0.00    +0.000 A 
ATOM      2  C   UNL     1       5.975   4.893  17.938  0.00  0.00    +0.000 A 
ATOM      3  C   UNL     1       5.085   4.872  19.010  0.00  0.00    +0.000 A 
ATOM      4  C   UNL     1       4.090   5.823  19.023  0.00  0.00    +0.000 A 
ATOM      5  C   UNL     1       3.942   6.786  18.022  0.00  0.00    +0.000 A 
ATOM      6  C   UNL     1       4.842   6.822  16.960  0.00  0.00    +0.000 A 
ATOM      7  C   UNL     1       2.771   7.591  18.423  0.00  0.00    +0.000 C 
ATOM      8  C   UNL     1       2.244   8.644  17.777  0.00  0.00    +0.000 C 
ATOM      9  C   UNL     1       2.269   7.012  19.731  0.00  0.00    +0.000 C 
ATOM     10  O   UNL     1       1.312   7.333  20.405  0.00  0.00    +0.000 OA
ATOM     11  N   UNL     1       3.125   5.964  20.007  0.00  0.00    +0.000 N 
ATOM     12  H   UNL     1       3.024   5.388  20.827  0.00  0.00    +0.000 HD
ENDROOT
BRANCH   1  16
ATOM     13  N   UNL     1       7.822   5.228  13.909  0.00  0.00    +0.000 N 
ATOM     14  C   UNL     1       6.773   5.005  14.754  0.00  0.00    +0.000 C 
ATOM     15  O   UNL     1       5.976   4.118  14.485  0.00  0.00    +0.000 OA
ATOM     16  N   UNL     1       6.767   5.872  15.820  0.00  0.00    +0.000 N 
ATOM     17  H   UNL     1       7.862   4.526  13.177  0.00  0.00    +0.000 HD
ATOM     18  H   UNL     1       8.718   5.423  14.330  0.00  0.00    +0.000 HD
ATOM     19  H   UNL     1       7.349   6.688  15.711  0.00  0.00    +0.000 HD
ENDBRANCH   1  16
BRANCH   8  20
ATOM     20  C   UNL     1       1.205   9.424  18.342  0.00  0.00    +0.000 A 
ATOM     21  C   UNL     1       1.051  10.003  19.584  0.00  0.00    +0.000 A 
ATOM     22  C   UNL     1      -0.251  10.580  19.655  0.00  0.00    +0.000 A 
ATOM     23  C   UNL     1      -0.831  10.368  18.418  0.00  0.00    +0.000 A 
ATOM     24  N   UNL     1       0.057   9.671  17.632  0.00  0.00    +0.000 N 
ATOM     25  H   UNL     1      -0.142   9.331  16.701  0.00  0.00    +0.000 HD
BRANCH  22  26
ATOM     26  C   UNL     1      -0.910  11.220  20.790  0.00  0.00    +0.000 A 
ATOM     27  C   UNL     1      -0.649  10.828  22.109  0.00  0.00    +0.000 A 
ATOM     28  C   UNL     1      -1.321  11.431  23.179  0.00  0.00    +0.000 A 
ATOM     29  C   UNL     1      -2.258  12.433  22.942  0.00  0.00    +0.000 A 
ATOM     30  C   UNL     1      -2.518  12.845  21.637  0.00  0.00    +0.000 A 
ATOM     31  C   UNL     1      -1.845  12.243  20.569  0.00  0.00    +0.000 A 
ENDBRANCH  22  26
ENDBRANCH   8  20
TORSDOF 3
ENDMDL
MODEL 6
REMARK VINA RESULT:      -8.3      2.188      2.917
REMARK  Name = 
REMARK  3 active torsions:
REMARK  status: ('A' for Active; 'I' for Inactive)
REMARK    1  A    between atoms: N_4  and  C_5
REMARK    2  A    between atoms: C_12  and  C_13
REMARK    3  A    between atoms: C_15  and  C_16
REMARK                            x       y       z     vdW  Elec       q    Type
REMARK                         _______ _______ _______ _____ _____    ______ ____
ROOT
ATOM      1  C   UNL     1       4.887   5.161  17.323  0.00  0.00    +0.000 A 
ATOM      2  C   UNL     1       4.831   4.424  18.524  0.00  0.00    +0.000 A 
ATOM      3  C   UNL     1       4.037   4.835  19.593  0.00  0.00    +0.000 A 
ATOM      4  C   UNL     1       3.308   5.990  19.431  0.00  0.00    +0.000 A 
ATOM      5  C   UNL     1       3.332   6.749  18.258  0.00  0.00    +0.000 A 
ATOM      6  C   UNL     1       4.139   6.352  17.195  0.00  0.00    +0.000 A 
ATOM      7  C   UNL     1       2.423   7.886  18.508  0.00  0.00    +0.000 C 
ATOM      8  C   UNL     1       2.127   8.893  17.671  0.00  0.00    +0.000 C 
ATOM      9  C   UNL     1       1.885   7.714  19.915  0.00  0.00    +0.000 C 
ATOM     10  O   UNL     1       1.084   8.390  20.527  0.00  0.00    +0.000 OA
ATOM     11  N   UNL     1       2.477   6.557  20.383  0.00  0.00    +0.000 N 
ATOM     12  H   UNL     1       2.293   6.194  21.304  0.00  0.00    +0.000 HD
ENDROOT
BRANCH   1  16
ATOM     13  N   UNL     1       7.370   4.749  14.701  0.00  0.00    +0.000 N 
ATOM     14  C   UNL     1       6.871   5.321  15.836  0.00  0.00    +0.000 C 
ATOM     15  O   UNL     1       7.497   6.229  16.364  0.00  0.00    +0.000 OA
ATOM     16  N   UNL     1       5.691   4.744  16.238  0.00  0.00    +0.000 N 
ATOM     17  H   UNL     1       8.193   5.242  14.369  0.00  0.00    +0.000 HD
ATOM     18  H   UNL     1       6.710   4.527  13.970  0.00  0.00    +0.000 HD
ATOM     19  H   UNL     1       5.490   3.848  15.822  0.00  0.00    +0.000 HD
ENDBRANCH   1  16
BRANCH   8  20
ATOM     20  C   UNL     1       1.351  10.004  18.085  0.00  0.00    +0.000 A 
ATOM     21  C   UNL     1       1.695  11.230  18.614  0.00  0.00    +0.000 A 
ATOM     22  C   UNL     1       0.499  11.924  18.962  0.00  0.00    +0.000 A 
ATOM     23  C   UNL     1      -0.545  11.101  18.581  0.00  0.00    +0.000 A 
ATOM     24  N   UNL     1      -0.020   9.945  18.051  0.00  0.00    +0.000 N 
ATOM     25  H   UNL     1      -0.566   9.148  17.754  0.00  0.00    +0.000 HD
BRANCH  22  26
ATOM     26  C   UNL     1       0.347  13.211  19.635  0.00  0.00    +0.000 A 
ATOM     27  C   UNL     1       0.429  13.325  21.029  0.00  0.00    +0.000 A 
ATOM     28  C   UNL     1       0.243  14.563  21.655  0.00  0.00    +0.000 A 
ATOM     29  C   UNL     1      -0.024  15.700  20.895  0.00  0.00    +0.000 A 
ATOM     30  C   UNL     1      -0.093  15.605  19.507  0.00  0.00    +0.000 A 
ATOM     31  C   UNL     1       0.094  14.368  18.882  0.00  0.00    +0.000 A 
ENDBRANCH  22  26
ENDBRANCH   8  20
TORSDOF 3
ENDMDL
MODEL 7
REMARK VINA RESULT:      -8.2      1.286      1.808
REMARK  Name = 
REMARK  3 active torsions:
REMARK  status: ('A' for Active; 'I' for Inactive)
REMARK    1  A    between atoms: N_4  and  C_5
REMARK    2  A    between atoms: C_12  and  C_13
REMARK    3  A    between atoms: C_15  and  C_16
REMARK                            x       y       z     vdW  Elec       q    Type
REMARK                         _______ _______ _______ _____ _____    ______ ____
ROOT
ATOM      1  C   UNL     1       4.740   5.745  17.352  0.00  0.00    +0.000 A 
ATOM      2  C   UNL     1       4.855   4.895  18.472  0.00  0.00    +0.000 A 
ATOM      3  C   UNL     1       4.079   5.087  19.613  0.00  0.00    +0.000 A 
ATOM      4  C   UNL     1       3.194   6.140  19.605  0.00  0.00    +0.000 A 
ATOM      5  C   UNL     1       3.046   7.004  18.516  0.00  0.00    +0.000 A 
ATOM      6  C   UNL     1       3.834   6.827  17.382  0.00  0.00    +0.000 A 
ATOM      7  C   UNL     1       2.010   7.974  18.924  0.00  0.00    +0.000 C 
ATOM      8  C   UNL     1       1.531   9.007  18.211  0.00  0.00    +0.000 C 
ATOM      9  C   UNL     1       1.584   7.595  20.330  0.00  0.00    +0.000 C 
ATOM     10  O   UNL     1       0.738   8.091  21.044  0.00  0.00    +0.000 OA
ATOM     11  N   UNL     1       2.352   6.492  20.647  0.00  0.00    +0.000 N 
ATOM     12  H   UNL     1       2.274   6.020  21.534  0.00  0.00    +0.000 HD
ENDROOT
BRANCH   1  16
ATOM     13  N   UNL     1       7.370   5.391  14.868  0.00  0.00    +0.000 N 
ATOM     14  C   UNL     1       6.899   5.503  16.145  0.00  0.00    +0.000 C 
ATOM     15  O   UNL     1       7.698   5.528  17.069  0.00  0.00    +0.000 OA
ATOM     16  N   UNL     1       5.527   5.551  16.194  0.00  0.00    +0.000 N 
ATOM     17  H   UNL     1       8.383   5.444  14.842  0.00  0.00    +0.000 HD
ATOM     18  H   UNL     1       6.918   5.952  14.161  0.00  0.00    +0.000 HD
ATOM     19  H   UNL     1       5.058   5.248  15.354  0.00  0.00    +0.000 HD
ENDBRANCH   1  16
BRANCH   8  20
ATOM     20  C   UNL     1       0.640   9.954  18.772  0.00  0.00    +0.000 A 
ATOM     21  C   UNL     1      -0.731  10.085  18.715  0.00  0.00    +0.000 A 
ATOM     22  C   UNL     1      -1.096  11.298  19.369  0.00  0.00    +0.000 A 
ATOM     23  C   UNL     1       0.080  11.844  19.848  0.00  0.00    +0.000 A 
ATOM     24  N   UNL     1       1.123  11.024  19.484  0.00  0.00    +0.000 N 
ATOM     25  H   UNL     1       2.100  11.224  19.653  0.00  0.00    +0.000 HD
BRANCH  22  26
ATOM     26  C   UNL     1      -2.414  11.916  19.488  0.00  0.00    +0.000 A 
ATOM     27  C   UNL     1      -2.706  12.838  20.502  0.00  0.00    +0.000 A 
ATOM     28  C   UNL     1      -3.987  13.388  20.618  0.00  0.00    +0.000 A 
ATOM     29  C   UNL     1      -4.990  13.025  19.722  0.00  0.00    +0.000 A 
ATOM     30  C   UNL     1      -4.712  12.122  18.699  0.00  0.00    +0.000 A 
ATOM     31  C   UNL     1      -3.431  11.573  18.583  0.00  0.00    +0.000 A 
ENDBRANCH  22  26
ENDBRANCH   8  20
TORSDOF 3
ENDMDL
MODEL 8
REMARK VINA RESULT:      -8.1      1.959      2.485
REMARK  Name = 
REMARK  3 active torsions:
REMARK  status: ('A' for Active; 'I' for Inactive)
REMARK    1  A    between atoms: N_4  and  C_5
REMARK    2  A    between atoms: C_12  and  C_13
REMARK    3  A    between atoms: C_15  and  C_16
REMARK                            x       y       z     vdW  Elec       q    Type
REMARK                         _______ _______ _______ _____ _____    ______ ____
ROOT
ATOM      1  C   UNL     1       5.889   5.055  15.813  0.00  0.00    +0.000 A 
ATOM      2  C   UNL     1       5.639   3.686  16.040  0.00  0.00    +0.000 A 
ATOM      3  C   UNL     1       4.639   3.264  16.914  0.00  0.00    +0.000 A 
ATOM      4  C   UNL     1       3.904   4.238  17.549  0.00  0.00    +0.000 A 
ATOM      5  C   UNL     1       4.116   5.605  17.352  0.00  0.00    +0.000 A 
ATOM      6  C   UNL     1       5.127   6.030  16.494  0.00  0.00    +0.000 A 
ATOM      7  C   UNL     1       3.127   6.284  18.213  0.00  0.00    +0.000 C 
ATOM      8  C   UNL     1       2.950   7.606  18.368  0.00  0.00    +0.000 C 
ATOM      9  C   UNL     1       2.340   5.195  18.917  0.00  0.00    +0.000 C 
ATOM     10  O   UNL     1       1.408   5.287  19.689  0.00  0.00    +0.000 OA
ATOM     11  N   UNL     1       2.882   4.011  18.457  0.00  0.00    +0.000 N 
ATOM     12  H   UNL     1       2.544   3.112  18.759  0.00  0.00    +0.000 HD
ENDROOT
BRANCH   1  16
ATOM     13  N   UNL     1       8.270   5.523  13.108  0.00  0.00    +0.000 N 
ATOM     14  C   UNL     1       7.175   4.952  13.689  0.00  0.00    +0.000 C 
ATOM     15  O   UNL     1       6.567   4.085  13.078  0.00  0.00    +0.000 OA
ATOM     16  N   UNL     1       6.902   5.484  14.926  0.00  0.00    +0.000 N 
ATOM     17  H   UNL     1       8.510   5.061  12.236  0.00  0.00    +0.000 HD
ATOM     18  H   UNL     1       9.066   5.700  13.702  0.00  0.00    +0.000 HD
ATOM     19  H   UNL     1       7.358   6.362  15.124  0.00  0.00    +0.000 HD
ENDBRANCH   1  16
BRANCH   8  20
ATOM     20  C   UNL     1       2.062   8.132  19.338  0.00  0.00    +0.000 A 
ATOM     21  C   UNL     1       1.120   9.137  19.285  0.00  0.00    +0.000 A 
ATOM     22  C   UNL     1       0.591   9.331  20.595  0.00  0.00    +0.000 A 
ATOM     23  C   UNL     1       1.206   8.389  21.399  0.00  0.00    +0.000 A 
ATOM     24  N   UNL     1       2.091   7.669  20.630  0.00  0.00    +0.000 N 
ATOM     25  H   UNL     1       2.718   6.960  20.986  0.00  0.00    +0.000 HD
BRANCH  22  26
ATOM     26  C   UNL     1      -0.360  10.337  21.061  0.00  0.00    +0.000 A 
ATOM     27  C   UNL     1      -1.019  11.194  20.171  0.00  0.00    +0.000 A 
ATOM     28  C   UNL     1      -1.898  12.175  20.644  0.00  0.00    +0.000 A 
ATOM     29  C   UNL     1      -2.129  12.308  22.011  0.00  0.00    +0.000 A 
ATOM     30  C   UNL     1      -1.493  11.454  22.908  0.00  0.00    +0.000 A 
ATOM     31  C   UNL     1      -0.616  10.473  22.435  0.00  0.00    +0.000 A 
ENDBRANCH  22  26
ENDBRANCH   8  20
TORSDOF 3
ENDMDL
MODEL 9
REMARK VINA RESULT:      -8.1      2.176      2.940
REMARK  Name = 
REMARK  3 active torsions:
REMARK  status: ('A' for Active; 'I' for Inactive)
REMARK    1  A    between atoms: N_4  and  C_5
REMARK    2  A    between atoms: C_12  and  C_13
REMARK    3  A    between atoms: C_15  and  C_16
REMARK                            x       y       z     vdW  Elec       q    Type
REMARK                         _______ _______ _______ _____ _____    ______ ____
ROOT
ATOM      1  C   UNL     1       4.840   5.661  17.033  0.00  0.00    +0.000 A 
ATOM      2  C   UNL     1       4.888   4.716  18.080  0.00  0.00    +0.000 A 
ATOM      3  C   UNL     1       4.116   4.866  19.231  0.00  0.00    +0.000 A 
ATOM      4  C   UNL     1       3.304   5.974  19.306  0.00  0.00    +0.000 A 
ATOM      5  C   UNL     1       3.224   6.932  18.292  0.00  0.00    +0.000 A 
ATOM      6  C   UNL     1       4.008   6.796  17.150  0.00  0.00    +0.000 A 
ATOM      7  C   UNL     1       2.252   7.934  18.775  0.00  0.00    +0.000 C 
ATOM      8  C   UNL     1       1.851   9.051  18.147  0.00  0.00    +0.000 C 
ATOM      9  C   UNL     1       1.789   7.470  20.143  0.00  0.00    +0.000 C 
ATOM     10  O   UNL     1       0.972   7.962  20.893  0.00  0.00    +0.000 OA
ATOM     11  N   UNL     1       2.479   6.295  20.371  0.00  0.00    +0.000 N 
ATOM     12  H   UNL     1       2.361   5.759  21.216  0.00  0.00    +0.000 HD
ENDROOT
BRANCH   1  16
ATOM     13  N   UNL     1       7.450   5.187  14.549  0.00  0.00    +0.000 N 
ATOM     14  C   UNL     1       6.952   5.168  15.820  0.00  0.00    +0.000 C 
ATOM     15  O   UNL     1       7.692   4.849  16.739  0.00  0.00    +0.000 OA
ATOM     16  N   UNL     1       5.623   5.510  15.866  0.00  0.00    +0.000 N 
ATOM     17  H   UNL     1       8.451   5.018  14.541  0.00  0.00    +0.000 HD
ATOM     18  H   UNL     1       7.165   5.952  13.955  0.00  0.00    +0.000 HD
ATOM     19  H   UNL     1       5.140   5.474  14.980  0.00  0.00    +0.000 HD
ENDBRANCH   1  16
BRANCH   8  20
ATOM     20  C   UNL     1       1.020  10.007  18.782  0.00  0.00    +0.000 A 
ATOM     21  C   UNL     1       1.293  11.036  19.658  0.00  0.00    +0.000 A 
ATOM     22  C   UNL     1       0.057  11.612  20.077  0.00  0.00    +0.000 A 
ATOM     23  C   UNL     1      -0.933  10.933  19.392  0.00  0.00    +0.000 A 
ATOM     24  N   UNL     1      -0.341   9.967  18.611  0.00  0.00    +0.000 N 
ATOM     25  H   UNL     1      -0.844   9.286  18.058  0.00  0.00    +0.000 HD
BRANCH  22  26
ATOM     26  C   UNL     1      -0.178  12.662  21.064  0.00  0.00    +0.000 A 
ATOM     27  C   UNL     1       0.413  13.927  20.947  0.00  0.00    +0.000 A 
ATOM     28  C   UNL     1       0.203  14.906  21.925  0.00  0.00    +0.000 A 
ATOM     29  C   UNL     1      -0.601  14.632  23.029  0.00  0.00    +0.000 A 
ATOM     30  C   UNL     1      -1.208  13.385  23.151  0.00  0.00    +0.000 A 
ATOM     31  C   UNL     1      -0.999  12.408  22.173  0.00  0.00    +0.000 A 
ENDBRANCH  22  26
ENDBRANCH   8  20
TORSDOF 3
ENDMDL
