MODEL 1
REMARK VINA RESULT:      -8.3      0.000      0.000
REMARK  Name = 
REMARK  9 active torsions:
REMARK  status: ('A' for Active; 'I' for Inactive)
REMARK    1  A    between atoms: C_4  and  C_5
REMARK    2  A    between atoms: C_5  and  N_6
REMARK    3  A    between atoms: N_6  and  C_7
REMARK    4  A    between atoms: N_6  and  C_14
REMARK    5  A    between atoms: C_7  and  C_8
REMARK    6  A    between atoms: C_14  and  C_15
REMARK    7  A    between atoms: N_22  and  N_23
REMARK    8  A    between atoms: C_24  and  C_25
REMARK    9  A    between atoms: C_28  and  N_29
REMARK                            x       y       z     vdW  Elec       q    Type
REMARK                         _______ _______ _______ _____ _____    ______ ____
ROOT
ATOM      1  O   UNL     1       7.481   6.129  15.407  0.00  0.00    +0.000 OA
ATOM      2  C   UNL     1       7.291   6.087  16.611  0.00  0.00    +0.000 C 
ATOM      3  O   UNL     1       6.779   4.983  17.253  0.00  0.00    +0.000 OA
ATOM      4  C   UNL     1       6.773   5.194  18.678  0.00  0.00    +0.000 C 
ATOM      5  C   UNL     1       7.357   6.584  18.869  0.00  0.00    +0.000 C 
ATOM      6  N   UNL     1       7.551   7.086  17.542  0.00  0.00    +0.000 N 
ENDROOT
BRANCH   6   7
ATOM      7  N   UNL     1       7.963   8.363  17.421  0.00  0.00    +0.000 NA
ATOM      8  C   UNL     1       8.486   8.979  18.428  0.00  0.00    +0.000 C 
BRANCH   8   9
ATOM      9  C   UNL     1       9.012  10.302  18.213  0.00  0.00    +0.000 A 
ATOM     10  C   UNL     1      10.290  10.832  18.310  0.00  0.00    +0.000 A 
ATOM     11  C   UNL     1      10.173  12.227  18.079  0.00  0.00    +0.000 A 
ATOM     12  C   UNL     1       8.836  12.446  17.852  0.00  0.00    +0.000 A 
ATOM     13  O   UNL     1       8.122  11.292  17.910  0.00  0.00    +0.000 OA
BRANCH  12  14
ATOM     14  N   UNL     1       8.080  13.633  17.624  0.00  0.00    +0.000 N 
ATOM     15  O   UNL     1       6.893  13.477  17.309  0.00  0.00    +0.000 OA
ATOM     16  O   UNL     1       8.662  14.720  17.741  0.00  0.00    +0.000 OA
ENDBRANCH  12  14
ENDBRANCH   8   9
ENDBRANCH   6   7
BRANCH   4  17
ATOM     17  C   UNL     1       5.357   5.124  19.304  0.00  0.00    +0.000 C 
BRANCH  17  18
ATOM     18  N   UNL     1       4.214   5.824  18.678  0.00  0.00    +0.000 NA
BRANCH  18  19
ATOM     19  C   UNL     1       3.571   5.123  17.556  0.00  0.00    +0.000 C 
BRANCH  19  20
ATOM     20  C   UNL     1       2.826   3.831  17.837  0.00  0.00    +0.000 A 
ATOM     21  C   UNL     1       3.496   2.603  17.974  0.00  0.00    +0.000 A 
ATOM     22  C   UNL     1       2.823   1.491  18.491  0.00  0.00    +0.000 A 
ATOM     23  C   UNL     1       1.474   1.587  18.832  0.00  0.00    +0.000 A 
ATOM     24  C   UNL     1       0.783   2.774  18.619  0.00  0.00    +0.000 A 
ATOM     25  C   UNL     1       1.456   3.887  18.122  0.00  0.00    +0.000 A 
ENDBRANCH  19  20
ENDBRANCH  18  19
BRANCH  18  26
ATOM     26  C   UNL     1       3.213   6.212  19.704  0.00  0.00    +0.000 C 
BRANCH  26  27
ATOM     27  C   UNL     1       2.397   7.432  19.319  0.00  0.00    +0.000 A 
ATOM     28  C   UNL     1       2.534   8.016  18.050  0.00  0.00    +0.000 A 
ATOM     29  C   UNL     1       1.984   9.271  17.787  0.00  0.00    +0.000 A 
ATOM     30  C   UNL     1       1.231   9.923  18.763  0.00  0.00    +0.000 A 
ATOM     31  C   UNL     1       0.999   9.305  19.991  0.00  0.00    +0.000 A 
ATOM     32  C   UNL     1       1.585   8.068  20.272  0.00  0.00    +0.000 A 
ENDBRANCH  26  27
ENDBRANCH  18  26
ENDBRANCH  17  18
ENDBRANCH   4  17
TORSDOF 9
ENDMDL
MODEL 2
REMARK VINA RESULT:      -8.2      1.385      1.894
REMARK  Name = 
REMARK  9 active torsions:
REMARK  status: ('A' for Active; 'I' for Inactive)
REMARK    1  A    between atoms: C_4  and  C_5
REMARK    2  A    between atoms: C_5  and  N_6
REMARK    3  A    between atoms: N_6  and  C_7
REMARK    4  A    between atoms: N_6  and  C_14
REMARK    5  A    between atoms: C_7  and  C_8
REMARK    6  A    between atoms: C_14  and  C_15
REMARK    7  A    between atoms: N_22  and  N_23
REMARK    8  A    between atoms: C_24  and  C_25
REMARK    9  A    between atoms: C_28  and  N_29
REMARK                            x       y       z     vdW  Elec       q    Type
REMARK                         _______ _______ _______ _____ _____    ______ ____
ROOT
ATOM      1  O   UNL     1       7.852   5.112  15.379  0.00  0.00    +0.000 OA
ATOM      2  C   UNL     1       6.969   5.386  16.173  0.00  0.00    +0.000 C 
ATOM      3  O   UNL     1       5.809   4.654  16.288  0.00  0.00    +0.000 OA
ATOM      4  C   UNL     1       5.012   5.152  17.380  0.00  0.00    +0.000 C 
ATOM      5  C   UNL     1       5.820   6.302  17.959  0.00  0.00    +0.000 C 
ATOM      6  N   UNL     1       6.952   6.429  17.092  0.00  0.00    +0.000 N 
ENDROOT
BRANCH   6   7
ATOM      7  N   UNL     1       7.788   7.461  17.317  0.00  0.00    +0.000 NA
ATOM      8  C   UNL     1       7.334   8.582  17.769  0.00  0.00    +0.000 C 
BRANCH   8   9
ATOM      9  C   UNL     1       8.284   9.613  18.098  0.00  0.00    +0.000 A 
ATOM     10  C   UNL     1       9.362   9.654  18.971  0.00  0.00    +0.000 A 
ATOM     11  C   UNL     1       9.861  10.982  18.942  0.00  0.00    +0.000 A 
ATOM     12  C   UNL     1       9.058  11.652  18.052  0.00  0.00    +0.000 A 
ATOM     13  O   UNL     1       8.112  10.837  17.518  0.00  0.00    +0.000 OA
BRANCH  12  14
ATOM     14  N   UNL     1       9.008  13.016  17.638  0.00  0.00    +0.000 N 
ATOM     15  O   UNL     1      10.083  13.628  17.632  0.00  0.00    +0.000 OA
ATOM     16  O   UNL     1       7.904  13.486  17.331  0.00  0.00    +0.000 OA
ENDBRANCH  12  14
ENDBRANCH   8   9
ENDBRANCH   6   7
BRANCH   4  17
ATOM     17  C   UNL     1       3.613   5.655  16.942  0.00  0.00    +0.000 C 
BRANCH  17  18
ATOM     18  N   UNL     1       2.433   5.470  17.814  0.00  0.00    +0.000 NA
BRANCH  18  19
ATOM     19  C   UNL     1       1.915   4.096  17.907  0.00  0.00    +0.000 C 
BRANCH  19  20
ATOM     20  C   UNL     1       2.058   3.353  19.222  0.00  0.00    +0.000 A 
ATOM     21  C   UNL     1       3.289   2.821  19.643  0.00  0.00    +0.000 A 
ATOM     22  C   UNL     1       3.449   2.382  20.961  0.00  0.00    +0.000 A 
ATOM     23  C   UNL     1       2.375   2.432  21.850  0.00  0.00    +0.000 A 
ATOM     24  C   UNL     1       1.132   2.876  21.417  0.00  0.00    +0.000 A 
ATOM     25  C   UNL     1       0.975   3.331  20.110  0.00  0.00    +0.000 A 
ENDBRANCH  19  20
ENDBRANCH  18  19
BRANCH  18  26
ATOM     26  C   UNL     1       2.687   6.033  19.165  0.00  0.00    +0.000 C 
BRANCH  26  27
ATOM     27  C   UNL     1       2.190   7.457  19.328  0.00  0.00    +0.000 A 
ATOM     28  C   UNL     1       1.610   7.882  20.532  0.00  0.00    +0.000 A 
ATOM     29  C   UNL     1       0.929   9.098  20.599  0.00  0.00    +0.000 A 
ATOM     30  C   UNL     1       0.883   9.935  19.484  0.00  0.00    +0.000 A 
ATOM     31  C   UNL     1       1.546   9.571  18.313  0.00  0.00    +0.000 A 
ATOM     32  C   UNL     1       2.191   8.335  18.231  0.00  0.00    +0.000 A 
ENDBRANCH  26  27
ENDBRANCH  18  26
ENDBRANCH  17  18
ENDBRANCH   4  17
TORSDOF 9
ENDMDL
MODEL 3
REMARK VINA RESULT:      -8.1      5.818      8.476
REMARK  Name = 
REMARK  9 active torsions:
REMARK  status: ('A' for Active; 'I' for Inactive)
REMARK    1  A    between atoms: C_4  and  C_5
REMARK    2  A    between atoms: C_5  and  N_6
REMARK    3  A    between atoms: N_6  and  C_7
REMARK    4  A    between atoms: N_6  and  C_14
REMARK    5  A    between atoms: C_7  and  C_8
REMARK    6  A    between atoms: C_14  and  C_15
REMARK    7  A    between atoms: N_22  and  N_23
REMARK    8  A    between atoms: C_24  and  C_25
REMARK    9  A    between atoms: C_28  and  N_29
REMARK                            x       y       z     vdW  Elec       q    Type
REMARK                         _______ _______ _______ _____ _____    ______ ____
ROOT
ATOM      1  O   UNL     1      -1.433  10.122  17.395  0.00  0.00    +0.000 OA
ATOM      2  C   UNL     1      -0.427   9.993  18.073  0.00  0.00    +0.000 C 
ATOM      3  O   UNL     1       0.619   9.172  17.717  0.00  0.00    +0.000 OA
ATOM      4  C   UNL     1       1.703   9.314  18.655  0.00  0.00    +0.000 C 
ATOM      5  C   UNL     1       1.217  10.343  19.661  0.00  0.00    +0.000 C 
ATOM      6  N   UNL     1      -0.132  10.626  19.275  0.00  0.00    +0.000 N 
ENDROOT
BRANCH   6   7
ATOM      7  N   UNL     1      -0.845  11.438  20.078  0.00  0.00    +0.000 NA
ATOM      8  C   UNL     1      -0.982  11.163  21.332  0.00  0.00    +0.000 C 
BRANCH   8   9
ATOM      9  C   UNL     1      -1.657  12.122  22.167  0.00  0.00    +0.000 A 
ATOM     10  C   UNL     1      -1.350  13.422  22.541  0.00  0.00    +0.000 A 
ATOM     11  C   UNL     1      -2.346  13.827  23.467  0.00  0.00    +0.000 A 
ATOM     12  C   UNL     1      -3.190  12.749  23.587  0.00  0.00    +0.000 A 
ATOM     13  O   UNL     1      -2.800  11.717  22.794  0.00  0.00    +0.000 OA
BRANCH  12  14
ATOM     14  N   UNL     1      -4.334  12.508  24.402  0.00  0.00    +0.000 N 
ATOM     15  O   UNL     1      -5.409  12.354  23.809  0.00  0.00    +0.000 OA
ATOM     16  O   UNL     1      -4.174  12.483  25.630  0.00  0.00    +0.000 OA
ENDBRANCH  12  14
ENDBRANCH   8   9
ENDBRANCH   6   7
BRANCH   4  17
ATOM     17  C   UNL     1       2.066   7.993  19.380  0.00  0.00    +0.000 C 
BRANCH  17  18
ATOM     18  N   UNL     1       2.681   6.867  18.645  0.00  0.00    +0.000 NA
BRANCH  18  19
ATOM     19  C   UNL     1       1.744   5.957  17.968  0.00  0.00    +0.000 C 
BRANCH  19  20
ATOM     20  C   UNL     1       1.836   4.470  18.260  0.00  0.00    +0.000 A 
ATOM     21  C   UNL     1       2.348   3.560  17.319  0.00  0.00    +0.000 A 
ATOM     22  C   UNL     1       2.666   2.255  17.708  0.00  0.00    +0.000 A 
ATOM     23  C   UNL     1       2.437   1.841  19.020  0.00  0.00    +0.000 A 
ATOM     24  C   UNL     1       1.852   2.708  19.933  0.00  0.00    +0.000 A 
ATOM     25  C   UNL     1       1.551   4.014  19.553  0.00  0.00    +0.000 A 
ENDBRANCH  19  20
ENDBRANCH  18  19
BRANCH  18  26
ATOM     26  C   UNL     1       3.715   7.362  17.700  0.00  0.00    +0.000 C 
BRANCH  26  27
ATOM     27  C   UNL     1       4.753   6.315  17.342  0.00  0.00    +0.000 A 
ATOM     28  C   UNL     1       5.450   5.622  18.344  0.00  0.00    +0.000 A 
ATOM     29  C   UNL     1       6.571   4.856  18.024  0.00  0.00    +0.000 A 
ATOM     30  C   UNL     1       6.965   4.714  16.693  0.00  0.00    +0.000 A 
ATOM     31  C   UNL     1       6.217   5.312  15.679  0.00  0.00    +0.000 A 
ATOM     32  C   UNL     1       5.120   6.115  16.001  0.00  0.00    +0.000 A 
ENDBRANCH  26  27
ENDBRANCH  18  26
ENDBRANCH  17  18
ENDBRANCH   4  17
TORSDOF 9
ENDMDL
MODEL 4
REMARK VINA RESULT:      -8.0      5.172      7.873
REMARK  Name = 
REMARK  9 active torsions:
REMARK  status: ('A' for Active; 'I' for Inactive)
REMARK    1  A    between atoms: C_4  and  C_5
REMARK    2  A    between atoms: C_5  and  N_6
REMARK    3  A    between atoms: N_6  and  C_7
REMARK    4  A    between atoms: N_6  and  C_14
REMARK    5  A    between atoms: C_7  and  C_8
REMARK    6  A    between atoms: C_14  and  C_15
REMARK    7  A    between atoms: N_22  and  N_23
REMARK    8  A    between atoms: C_24  and  C_25
REMARK    9  A    between atoms: C_28  and  N_29
REMARK                            x       y       z     vdW  Elec       q    Type
REMARK                         _______ _______ _______ _____ _____    ______ ____
ROOT
ATOM      1  O   UNL     1      -1.253  10.046  17.604  0.00  0.00    +0.000 OA
ATOM      2  C   UNL     1      -0.271   9.813  18.289  0.00  0.00    +0.000 C 
ATOM      3  O   UNL     1       0.795   9.065  17.844  0.00  0.00    +0.000 OA
ATOM      4  C   UNL     1       1.844   9.057  18.832  0.00  0.00    +0.000 C 
ATOM      5  C   UNL     1       1.311   9.908  19.973  0.00  0.00    +0.000 C 
ATOM      6  N   UNL     1      -0.026  10.243  19.588  0.00  0.00    +0.000 N 
ENDROOT
BRANCH   6   7
ATOM      7  N   UNL     1      -0.776  10.912  20.485  0.00  0.00    +0.000 NA
ATOM      8  C   UNL     1      -0.267  11.291  21.609  0.00  0.00    +0.000 C 
BRANCH   8   9
ATOM      9  C   UNL     1      -1.079  12.099  22.482  0.00  0.00    +0.000 A 
ATOM     10  C   UNL     1      -2.430  12.076  22.795  0.00  0.00    +0.000 A 
ATOM     11  C   UNL     1      -2.672  13.191  23.641  0.00  0.00    +0.000 A 
ATOM     12  C   UNL     1      -1.453  13.807  23.786  0.00  0.00    +0.000 A 
ATOM     13  O   UNL     1      -0.475  13.151  23.108  0.00  0.00    +0.000 OA
BRANCH  12  14
ATOM     14  N   UNL     1      -1.051  15.000  24.456  0.00  0.00    +0.000 N 
ATOM     15  O   UNL     1      -0.164  15.666  23.908  0.00  0.00    +0.000 OA
ATOM     16  O   UNL     1      -1.602  15.271  25.531  0.00  0.00    +0.000 OA
ENDBRANCH  12  14
ENDBRANCH   8   9
ENDBRANCH   6   7
BRANCH   4  17
ATOM     17  C   UNL     1       2.193   7.638  19.347  0.00  0.00    +0.000 C 
BRANCH  17  18
ATOM     18  N   UNL     1       2.972   6.698  18.512  0.00  0.00    +0.000 NA
BRANCH  18  19
ATOM     19  C   UNL     1       2.185   5.714  17.752  0.00  0.00    +0.000 C 
BRANCH  19  20
ATOM     20  C   UNL     1       2.091   4.294  18.278  0.00  0.00    +0.000 A 
ATOM     21  C   UNL     1       1.265   3.960  19.366  0.00  0.00    +0.000 A 
ATOM     22  C   UNL     1       0.996   2.618  19.655  0.00  0.00    +0.000 A 
ATOM     23  C   UNL     1       1.579   1.608  18.891  0.00  0.00    +0.000 A 
ATOM     24  C   UNL     1       2.464   1.929  17.869  0.00  0.00    +0.000 A 
ATOM     25  C   UNL     1       2.719   3.264  17.568  0.00  0.00    +0.000 A 
ENDBRANCH  19  20
ENDBRANCH  18  19
BRANCH  18  26
ATOM     26  C   UNL     1       3.901   7.436  17.620  0.00  0.00    +0.000 C 
BRANCH  26  27
ATOM     27  C   UNL     1       5.041   6.583  17.097  0.00  0.00    +0.000 A 
ATOM     28  C   UNL     1       5.136   6.267  15.733  0.00  0.00    +0.000 A 
ATOM     29  C   UNL     1       6.026   5.286  15.295  0.00  0.00    +0.000 A 
ATOM     30  C   UNL     1       6.880   4.661  16.203  0.00  0.00    +0.000 A 
ATOM     31  C   UNL     1       6.868   5.042  17.545  0.00  0.00    +0.000 A 
ATOM     32  C   UNL     1       5.949   5.993  17.992  0.00  0.00    +0.000 A 
ENDBRANCH  26  27
ENDBRANCH  18  26
ENDBRANCH  17  18
ENDBRANCH   4  17
TORSDOF 9
ENDMDL
MODEL 5
REMARK VINA RESULT:      -8.0      5.654      8.463
REMARK  Name = 
REMARK  9 active torsions:
REMARK  status: ('A' for Active; 'I' for Inactive)
REMARK    1  A    between atoms: C_4  and  C_5
REMARK    2  A    between atoms: C_5  and  N_6
REMARK    3  A    between atoms: N_6  and  C_7
REMARK    4  A    between atoms: N_6  and  C_14
REMARK    5  A    between atoms: C_7  and  C_8
REMARK    6  A    between atoms: C_14  and  C_15
REMARK    7  A    between atoms: N_22  and  N_23
REMARK    8  A    between atoms: C_24  and  C_25
REMARK    9  A    between atoms: C_28  and  N_29
REMARK                            x       y       z     vdW  Elec       q    Type
REMARK                         _______ _______ _______ _____ _____    ______ ____
ROOT
ATOM      1  O   UNL     1      -1.391   9.954  17.332  0.00  0.00    +0.000 OA
ATOM      2  C   UNL     1      -0.367   9.808  17.979  0.00  0.00    +0.000 C 
ATOM      3  O   UNL     1       0.702   9.062  17.537  0.00  0.00    +0.000 OA
ATOM      4  C   UNL     1       1.799   9.167  18.465  0.00  0.00    +0.000 C 
ATOM      5  C   UNL     1       1.295  10.089  19.563  0.00  0.00    +0.000 C 
ATOM      6  N   UNL     1      -0.072  10.349  19.225  0.00  0.00    +0.000 N 
ENDROOT
BRANCH   6   7
ATOM      7  N   UNL     1      -0.798  11.063  20.107  0.00  0.00    +0.000 NA
ATOM      8  C   UNL     1      -0.302  11.385  21.254  0.00  0.00    +0.000 C 
BRANCH   8   9
ATOM      9  C   UNL     1      -1.078  12.244  22.111  0.00  0.00    +0.000 A 
ATOM     10  C   UNL     1      -0.773  13.410  22.797  0.00  0.00    +0.000 A 
ATOM     11  C   UNL     1      -1.920  13.746  23.562  0.00  0.00    +0.000 A 
ATOM     12  C   UNL     1      -2.841  12.765  23.285  0.00  0.00    +0.000 A 
ATOM     13  O   UNL     1      -2.357  11.860  22.395  0.00  0.00    +0.000 OA
BRANCH  12  14
ATOM     14  N   UNL     1      -4.152  12.506  23.783  0.00  0.00    +0.000 N 
ATOM     15  O   UNL     1      -5.057  12.443  22.941  0.00  0.00    +0.000 OA
ATOM     16  O   UNL     1      -4.290  12.379  25.007  0.00  0.00    +0.000 OA
ENDBRANCH  12  14
ENDBRANCH   8   9
ENDBRANCH   6   7
BRANCH   4  17
ATOM     17  C   UNL     1       2.226   7.806  19.069  0.00  0.00    +0.000 C 
BRANCH  17  18
ATOM     18  N   UNL     1       2.838   6.758  18.224  0.00  0.00    +0.000 NA
BRANCH  18  19
ATOM     19  C   UNL     1       4.097   6.186  18.726  0.00  0.00    +0.000 C 
BRANCH  19  20
ATOM     20  C   UNL     1       5.179   5.821  17.727  0.00  0.00    +0.000 A 
ATOM     21  C   UNL     1       6.346   5.139  18.114  0.00  0.00    +0.000 A 
ATOM     22  C   UNL     1       7.189   4.586  17.144  0.00  0.00    +0.000 A 
ATOM     23  C   UNL     1       6.896   4.746  15.790  0.00  0.00    +0.000 A 
ATOM     24  C   UNL     1       5.791   5.492  15.399  0.00  0.00    +0.000 A 
ATOM     25  C   UNL     1       4.941   6.028  16.362  0.00  0.00    +0.000 A 
ENDBRANCH  19  20
ENDBRANCH  18  19
BRANCH  18  26
ATOM     26  C   UNL     1       1.854   5.688  17.922  0.00  0.00    +0.000 C 
BRANCH  26  27
ATOM     27  C   UNL     1       1.931   4.511  18.877  0.00  0.00    +0.000 A 
ATOM     28  C   UNL     1       2.419   3.268  18.447  0.00  0.00    +0.000 A 
ATOM     29  C   UNL     1       2.254   2.132  19.239  0.00  0.00    +0.000 A 
ATOM     30  C   UNL     1       1.667   2.237  20.500  0.00  0.00    +0.000 A 
ATOM     31  C   UNL     1       1.274   3.486  20.982  0.00  0.00    +0.000 A 
ATOM     32  C   UNL     1       1.399   4.617  20.172  0.00  0.00    +0.000 A 
ENDBRANCH  26  27
ENDBRANCH  18  26
ENDBRANCH  17  18
ENDBRANCH   4  17
TORSDOF 9
ENDMDL
MODEL 6
REMARK VINA RESULT:      -8.0      5.287      8.356
REMARK  Name = 
REMARK  9 active torsions:
REMARK  status: ('A' for Active; 'I' for Inactive)
REMARK    1  A    between atoms: C_4  and  C_5
REMARK    2  A    between atoms: C_5  and  N_6
REMARK    3  A    between atoms: N_6  and  C_7
REMARK    4  A    between atoms: N_6  and  C_14
REMARK    5  A    between atoms: C_7  and  C_8
REMARK    6  A    between atoms: C_14  and  C_15
REMARK    7  A    between atoms: N_22  and  N_23
REMARK    8  A    between atoms: C_24  and  C_25
REMARK    9  A    between atoms: C_28  and  N_29
REMARK                            x       y       z     vdW  Elec       q    Type
REMARK                         _______ _______ _______ _____ _____    ______ ____
ROOT
ATOM      1  O   UNL     1      -1.623  10.311  17.464  0.00  0.00    +0.000 OA
ATOM      2  C   UNL     1      -0.592  10.159  18.097  0.00  0.00    +0.000 C 
ATOM      3  O   UNL     1       0.458   9.389  17.649  0.00  0.00    +0.000 OA
ATOM      4  C   UNL     1       1.571   9.491  18.558  0.00  0.00    +0.000 C 
ATOM      5  C   UNL     1       1.099  10.437  19.649  0.00  0.00    +0.000 C 
ATOM      6  N   UNL     1      -0.268  10.714  19.329  0.00  0.00    +0.000 N 
ENDROOT
BRANCH   6   7
ATOM      7  N   UNL     1      -0.970  11.453  20.211  0.00  0.00    +0.000 NA
ATOM      8  C   UNL     1      -0.871  11.226  21.478  0.00  0.00    +0.000 C 
BRANCH   8   9
ATOM      9  C   UNL     1      -1.554  12.117  22.380  0.00  0.00    +0.000 A 
ATOM     10  C   UNL     1      -2.881  12.223  22.770  0.00  0.00    +0.000 A 
ATOM     11  C   UNL     1      -2.971  13.366  23.607  0.00  0.00    +0.000 A 
ATOM     12  C   UNL     1      -1.694  13.869  23.672  0.00  0.00    +0.000 A 
ATOM     13  O   UNL     1      -0.822  13.117  22.952  0.00  0.00    +0.000 OA
BRANCH  12  14
ATOM     14  N   UNL     1      -1.147  15.028  24.297  0.00  0.00    +0.000 N 
ATOM     15  O   UNL     1      -0.078  15.448  23.835  0.00  0.00    +0.000 OA
ATOM     16  O   UNL     1      -1.766  15.515  25.252  0.00  0.00    +0.000 OA
ENDBRANCH  12  14
ENDBRANCH   8   9
ENDBRANCH   6   7
BRANCH   4  17
ATOM     17  C   UNL     1       1.986   8.132  19.177  0.00  0.00    +0.000 C 
BRANCH  17  18
ATOM     18  N   UNL     1       2.692   7.114  18.370  0.00  0.00    +0.000 NA
BRANCH  18  19
ATOM     19  C   UNL     1       3.782   7.616  17.519  0.00  0.00    +0.000 C 
BRANCH  19  20
ATOM     20  C   UNL     1       4.880   6.655  17.101  0.00  0.00    +0.000 A 
ATOM     21  C   UNL     1       4.713   5.759  16.030  0.00  0.00    +0.000 A 
ATOM     22  C   UNL     1       5.819   5.084  15.503  0.00  0.00    +0.000 A 
ATOM     23  C   UNL     1       7.082   5.264  16.066  0.00  0.00    +0.000 A 
ATOM     24  C   UNL     1       7.239   6.081  17.179  0.00  0.00    +0.000 A 
ATOM     25  C   UNL     1       6.143   6.769  17.693  0.00  0.00    +0.000 A 
ENDBRANCH  19  20
ENDBRANCH  18  19
BRANCH  18  26
ATOM     26  C   UNL     1       3.163   5.998  19.230  0.00  0.00    +0.000 C 
BRANCH  26  27
ATOM     27  C   UNL     1       2.347   4.729  19.070  0.00  0.00    +0.000 A 
ATOM     28  C   UNL     1       1.383   4.369  20.023  0.00  0.00    +0.000 A 
ATOM     29  C   UNL     1       0.820   3.093  20.013  0.00  0.00    +0.000 A 
ATOM     30  C   UNL     1       1.160   2.187  19.008  0.00  0.00    +0.000 A 
ATOM     31  C   UNL     1       2.037   2.570  17.994  0.00  0.00    +0.000 A 
ATOM     32  C   UNL     1       2.634   3.832  18.028  0.00  0.00    +0.000 A 
ENDBRANCH  26  27
ENDBRANCH  18  26
ENDBRANCH  17  18
ENDBRANCH   4  17
TORSDOF 9
ENDMDL
MODEL 7
REMARK VINA RESULT:      -7.9      5.471      8.610
REMARK  Name = 
REMARK  9 active torsions:
REMARK  status: ('A' for Active; 'I' for Inactive)
REMARK    1  A    between atoms: C_4  and  C_5
REMARK    2  A    between atoms: C_5  and  N_6
REMARK    3  A    between atoms: N_6  and  C_7
REMARK    4  A    between atoms: N_6  and  C_14
REMARK    5  A    between atoms: C_7  and  C_8
REMARK    6  A    between atoms: C_14  and  C_15
REMARK    7  A    between atoms: N_22  and  N_23
REMARK    8  A    between atoms: C_24  and  C_25
REMARK    9  A    between atoms: C_28  and  N_29
REMARK                            x       y       z     vdW  Elec       q    Type
REMARK                         _______ _______ _______ _____ _____    ______ ____
ROOT
ATOM      1  O   UNL     1       0.985  12.479  18.381  0.00  0.00    +0.000 OA
ATOM      2  C   UNL     1       1.139  11.317  18.717  0.00  0.00    +0.000 C 
ATOM      3  O   UNL     1       2.127  10.511  18.201  0.00  0.00    +0.000 OA
ATOM      4  C   UNL     1       2.126   9.234  18.868  0.00  0.00    +0.000 C 
ATOM      5  C   UNL     1       1.006   9.329  19.890  0.00  0.00    +0.000 C 
ATOM      6  N   UNL     1       0.400  10.604  19.654  0.00  0.00    +0.000 N 
ENDROOT
BRANCH   6   7
ATOM      7  N   UNL     1      -0.707  10.901  20.362  0.00  0.00    +0.000 NA
ATOM      8  C   UNL     1      -0.677  11.824  21.265  0.00  0.00    +0.000 C 
BRANCH   8   9
ATOM      9  C   UNL     1      -1.914  12.178  21.911  0.00  0.00    +0.000 A 
ATOM     10  C   UNL     1      -2.343  12.093  23.228  0.00  0.00    +0.000 A 
ATOM     11  C   UNL     1      -3.703  12.499  23.241  0.00  0.00    +0.000 A 
ATOM     12  C   UNL     1      -4.003  12.806  21.936  0.00  0.00    +0.000 A 
ATOM     13  O   UNL     1      -2.929  12.637  21.122  0.00  0.00    +0.000 OA
BRANCH  12  14
ATOM     14  N   UNL     1      -5.210  13.211  21.295  0.00  0.00    +0.000 N 
ATOM     15  O   UNL     1      -5.702  12.408  20.491  0.00  0.00    +0.000 OA
ATOM     16  O   UNL     1      -5.667  14.328  21.576  0.00  0.00    +0.000 OA
ENDBRANCH  12  14
ENDBRANCH   8   9
ENDBRANCH   6   7
BRANCH   4  17
ATOM     17  C   UNL     1       1.871   8.041  17.912  0.00  0.00    +0.000 C 
BRANCH  17  18
ATOM     18  N   UNL     1       2.831   6.919  17.825  0.00  0.00    +0.000 NA
BRANCH  18  19
ATOM     19  C   UNL     1       4.131   7.235  17.214  0.00  0.00    +0.000 C 
BRANCH  19  20
ATOM     20  C   UNL     1       5.163   6.130  17.087  0.00  0.00    +0.000 A 
ATOM     21  C   UNL     1       5.121   5.193  16.039  0.00  0.00    +0.000 A 
ATOM     22  C   UNL     1       6.220   4.363  15.797  0.00  0.00    +0.000 A 
ATOM     23  C   UNL     1       7.344   4.433  16.620  0.00  0.00    +0.000 A 
ATOM     24  C   UNL     1       7.359   5.296  17.709  0.00  0.00    +0.000 A 
ATOM     25  C   UNL     1       6.273   6.136  17.941  0.00  0.00    +0.000 A 
ENDBRANCH  19  20
ENDBRANCH  18  19
BRANCH  18  26
ATOM     26  C   UNL     1       3.012   6.281  19.154  0.00  0.00    +0.000 C 
BRANCH  26  27
ATOM     27  C   UNL     1       2.383   4.904  19.251  0.00  0.00    +0.000 A 
ATOM     28  C   UNL     1       2.411   4.022  18.160  0.00  0.00    +0.000 A 
ATOM     29  C   UNL     1       1.623   2.871  18.160  0.00  0.00    +0.000 A 
ATOM     30  C   UNL     1       0.853   2.551  19.278  0.00  0.00    +0.000 A 
ATOM     31  C   UNL     1       0.898   3.365  20.410  0.00  0.00    +0.000 A 
ATOM     32  C   UNL     1       1.654   4.540  20.395  0.00  0.00    +0.000 A 
ENDBRANCH  26  27
ENDBRANCH  18  26
ENDBRANCH  17  18
ENDBRANCH   4  17
TORSDOF 9
ENDMDL
MODEL 8
REMARK VINA RESULT:      -7.9      4.934      7.992
REMARK  Name = 
REMARK  9 active torsions:
REMARK  status: ('A' for Active; 'I' for Inactive)
REMARK    1  A    between atoms: C_4  and  C_5
REMARK    2  A    between atoms: C_5  and  N_6
REMARK    3  A    between atoms: N_6  and  C_7
REMARK    4  A    between atoms: N_6  and  C_14
REMARK    5  A    between atoms: C_7  and  C_8
REMARK    6  A    between atoms: C_14  and  C_15
REMARK    7  A    between atoms: N_22  and  N_23
REMARK    8  A    between atoms: C_24  and  C_25
REMARK    9  A    between atoms: C_28  and  N_29
REMARK                            x       y       z     vdW  Elec       q    Type
REMARK                         _______ _______ _______ _____ _____    ______ ____
ROOT
ATOM      1  O   UNL     1      -1.462  10.141  17.420  0.00  0.00    +0.000 OA
ATOM      2  C   UNL     1      -0.376   9.967  17.946  0.00  0.00    +0.000 C 
ATOM      3  O   UNL     1       0.573   9.106  17.443  0.00  0.00    +0.000 OA
ATOM      4  C   UNL     1       1.786   9.198  18.215  0.00  0.00    +0.000 C 
ATOM      5  C   UNL     1       1.493  10.240  19.281  0.00  0.00    +0.000 C 
ATOM      6  N   UNL     1       0.115  10.579  19.093  0.00  0.00    +0.000 N 
ENDROOT
BRANCH   6   7
ATOM      7  N   UNL     1      -0.442  11.416  19.991  0.00  0.00    +0.000 NA
ATOM      8  C   UNL     1      -0.663  11.023  21.201  0.00  0.00    +0.000 C 
BRANCH   8   9
ATOM      9  C   UNL     1      -1.154  11.990  22.148  0.00  0.00    +0.000 A 
ATOM     10  C   UNL     1      -2.291  12.034  22.941  0.00  0.00    +0.000 A 
ATOM     11  C   UNL     1      -2.285  13.294  23.594  0.00  0.00    +0.000 A 
ATOM     12  C   UNL     1      -1.145  13.923  23.157  0.00  0.00    +0.000 A 
ATOM     13  O   UNL     1      -0.439  13.143  22.298  0.00  0.00    +0.000 OA
BRANCH  12  14
ATOM     14  N   UNL     1      -0.611  15.224  23.397  0.00  0.00    +0.000 N 
ATOM     15  O   UNL     1      -1.409  16.082  23.793  0.00  0.00    +0.000 OA
ATOM     16  O   UNL     1       0.596  15.401  23.181  0.00  0.00    +0.000 OA
ENDBRANCH  12  14
ENDBRANCH   8   9
ENDBRANCH   6   7
BRANCH   4  17
ATOM     17  C   UNL     1       2.194   7.859  18.881  0.00  0.00    +0.000 C 
BRANCH  17  18
ATOM     18  N   UNL     1       3.082   6.904  18.183  0.00  0.00    +0.000 NA
BRANCH  18  19
ATOM     19  C   UNL     1       4.260   7.490  17.524  0.00  0.00    +0.000 C 
BRANCH  19  20
ATOM     20  C   UNL     1       5.325   6.558  16.976  0.00  0.00    +0.000 A 
ATOM     21  C   UNL     1       6.473   6.227  17.717  0.00  0.00    +0.000 A 
ATOM     22  C   UNL     1       7.293   5.172  17.304  0.00  0.00    +0.000 A 
ATOM     23  C   UNL     1       6.998   4.474  16.134  0.00  0.00    +0.000 A 
ATOM     24  C   UNL     1       5.914   4.851  15.351  0.00  0.00    +0.000 A 
ATOM     25  C   UNL     1       5.085   5.889  15.770  0.00  0.00    +0.000 A 
ENDBRANCH  19  20
ENDBRANCH  18  19
BRANCH  18  26
ATOM     26  C   UNL     1       3.479   5.799  19.092  0.00  0.00    +0.000 C 
BRANCH  26  27
ATOM     27  C   UNL     1       2.818   4.475  18.756  0.00  0.00    +0.000 A 
ATOM     28  C   UNL     1       1.518   4.189  19.198  0.00  0.00    +0.000 A 
ATOM     29  C   UNL     1       1.011   2.892  19.111  0.00  0.00    +0.000 A 
ATOM     30  C   UNL     1       1.768   1.884  18.515  0.00  0.00    +0.000 A 
ATOM     31  C   UNL     1       3.020   2.181  17.976  0.00  0.00    +0.000 A 
ATOM     32  C   UNL     1       3.546   3.468  18.102  0.00  0.00    +0.000 A 
ENDBRANCH  26  27
ENDBRANCH  18  26
ENDBRANCH  17  18
ENDBRANCH   4  17
TORSDOF 9
ENDMDL
MODEL 9
REMARK VINA RESULT:      -7.8      3.701      6.159
REMARK  Name = 
REMARK  9 active torsions:
REMARK  status: ('A' for Active; 'I' for Inactive)
REMARK    1  A    between atoms: C_4  and  C_5
REMARK    2  A    between atoms: C_5  and  N_6
REMARK    3  A    between atoms: N_6  and  C_7
REMARK    4  A    between atoms: N_6  and  C_14
REMARK    5  A    between atoms: C_7  and  C_8
REMARK    6  A    between atoms: C_14  and  C_15
REMARK    7  A    between atoms: N_22  and  N_23
REMARK    8  A    between atoms: C_24  and  C_25
REMARK    9  A    between atoms: C_28  and  N_29
REMARK                            x       y       z     vdW  Elec       q    Type
REMARK                         _______ _______ _______ _____ _____    ______ ____
ROOT
ATOM      1  O   UNL     1      -0.624  11.496  19.699  0.00  0.00    +0.000 OA
ATOM      2  C   UNL     1       0.292  10.889  19.169  0.00  0.00    +0.000 C 
ATOM      3  O   UNL     1       0.216   9.556  18.835  0.00  0.00    +0.000 OA
ATOM      4  C   UNL     1       1.405   9.153  18.129  0.00  0.00    +0.000 C 
ATOM      5  C   UNL     1       2.256  10.409  18.046  0.00  0.00    +0.000 C 
ATOM      6  N   UNL     1       1.533  11.392  18.795  0.00  0.00    +0.000 N 
ENDROOT
BRANCH   6   7
ATOM      7  N   UNL     1       2.127  12.587  18.978  0.00  0.00    +0.000 NA
ATOM      8  C   UNL     1       2.589  13.248  17.970  0.00  0.00    +0.000 C 
BRANCH   8   9
ATOM      9  C   UNL     1       3.111  14.568  18.208  0.00  0.00    +0.000 A 
ATOM     10  C   UNL     1       2.524  15.825  18.205  0.00  0.00    +0.000 A 
ATOM     11  C   UNL     1       3.568  16.765  18.408  0.00  0.00    +0.000 A 
ATOM     12  C   UNL     1       4.713  16.015  18.524  0.00  0.00    +0.000 A 
ATOM     13  O   UNL     1       4.454  14.685  18.425  0.00  0.00    +0.000 OA
BRANCH  12  14
ATOM     14  N   UNL     1       6.086  16.370  18.676  0.00  0.00    +0.000 N 
ATOM     15  O   UNL     1       6.899  15.437  18.673  0.00  0.00    +0.000 OA
ATOM     16  O   UNL     1       6.360  17.570  18.810  0.00  0.00    +0.000 OA
ENDBRANCH  12  14
ENDBRANCH   8   9
ENDBRANCH   6   7
BRANCH   4  17
ATOM     17  C   UNL     1       2.193   8.025  18.843  0.00  0.00    +0.000 C 
BRANCH  17  18
ATOM     18  N   UNL     1       2.942   7.013  18.068  0.00  0.00    +0.000 NA
BRANCH  18  19
ATOM     19  C   UNL     1       4.065   7.524  17.267  0.00  0.00    +0.000 C 
BRANCH  19  20
ATOM     20  C   UNL     1       5.208   6.582  16.934  0.00  0.00    +0.000 A 
ATOM     21  C   UNL     1       6.239   6.314  17.852  0.00  0.00    +0.000 A 
ATOM     22  C   UNL     1       7.121   5.253  17.625  0.00  0.00    +0.000 A 
ATOM     23  C   UNL     1       7.007   4.485  16.466  0.00  0.00    +0.000 A 
ATOM     24  C   UNL     1       6.045   4.798  15.513  0.00  0.00    +0.000 A 
ATOM     25  C   UNL     1       5.154   5.842  15.746  0.00  0.00    +0.000 A 
ENDBRANCH  19  20
ENDBRANCH  18  19
BRANCH  18  26
ATOM     26  C   UNL     1       3.381   5.900  18.947  0.00  0.00    +0.000 C 
BRANCH  26  27
ATOM     27  C   UNL     1       2.533   4.650  18.807  0.00  0.00    +0.000 A 
ATOM     28  C   UNL     1       1.489   4.385  19.707  0.00  0.00    +0.000 A 
ATOM     29  C   UNL     1       0.882   3.130  19.735  0.00  0.00    +0.000 A 
ATOM     30  C   UNL     1       1.259   2.150  18.817  0.00  0.00    +0.000 A 
ATOM     31  C   UNL     1       2.221   2.437  17.849  0.00  0.00    +0.000 A 
ATOM     32  C   UNL     1       2.860   3.678  17.847  0.00  0.00    +0.000 A 
ENDBRANCH  26  27
ENDBRANCH  18  26
ENDBRANCH  17  18
ENDBRANCH   4  17
TORSDOF 9
ENDMDL
