MODEL 1
REMARK VINA RESULT:      -7.9      0.000      0.000
REMARK  Name = 
REMARK  9 active torsions:
REMARK  status: ('A' for Active; 'I' for Inactive)
REMARK    1  A    between atoms: C_1  and  C_2
REMARK    2  A    between atoms: C_2  and  C_3
REMARK    3  A    between atoms: C_8  and  N_9
REMARK    4  A    between atoms: C_10  and  C_12
REMARK    5  A    between atoms: C_12  and  O_13
REMARK    6  A    between atoms: O_13  and  C_14
REMARK    7  A    between atoms: C_21  and  C_22
REMARK    8  A    between atoms: C_24  and  C_25
REMARK    9  A    between atoms: C_24  and  C_26
REMARK                            x       y       z     vdW  Elec       q    Type
REMARK                         _______ _______ _______ _____ _____    ______ ____
ROOT
ATOM      1  C   UNL     1       1.632   3.290  21.026  0.00  0.00    +0.000 C 
ATOM      2  C   UNL     1       1.469   3.158  19.499  0.00  0.00    +0.000 C 
ATOM      3  C   UNL     1       0.079   2.518  19.272  0.00  0.00    +0.000 C 
ATOM      4  C   UNL     1       1.569   4.568  18.809  0.00  0.00    +0.000 C 
ATOM      5  C   UNL     1       3.014   4.994  18.595  0.00  0.00    +0.000 A 
ATOM      6  C   UNL     1       4.043   4.069  18.708  0.00  0.00    +0.000 A 
ATOM      7  S   UNL     1       5.587   4.803  18.601  0.00  0.00    +0.000 S 
ATOM      8  C   UNL     1       4.906   6.267  18.100  0.00  0.00    +0.000 A 
ATOM      9  C   UNL     1       3.532   6.288  18.218  0.00  0.00    +0.000 A 
ATOM     10  C   UNL     1       3.872   2.583  18.949  0.00  0.00    +0.000 C 
ATOM     11  C   UNL     1       4.521   2.146  20.272  0.00  0.00    +0.000 C 
ATOM     12  C   UNL     1       4.528   1.785  17.801  0.00  0.00    +0.000 C 
ATOM     13  N   UNL     1       2.440   2.214  18.904  0.00  0.00    +0.000 NA
ATOM     14  H   UNL     1       2.310   1.274  19.270  0.00  0.00    +0.000 HD
ENDROOT
BRANCH   8  15
ATOM     15  N   UNL     1       5.828   7.228  17.740  0.00  0.00    +0.000 N 
ATOM     16  C   UNL     1       7.035   6.922  17.144  0.00  0.00    +0.000 C 
ATOM     17  O   UNL     1       7.905   7.801  17.116  0.00  0.00    +0.000 OA
ATOM     18  H   UNL     1       5.979   7.984  18.401  0.00  0.00    +0.000 HD
BRANCH  16  19
ATOM     19  C   UNL     1       7.313   5.519  16.605  0.00  0.00    +0.000 C 
BRANCH  19  20
ATOM     20  O   UNL     1       7.658   5.628  15.225  0.00  0.00    +0.000 OA
BRANCH  20  21
ATOM     21  C   UNL     1       6.913   4.905  14.335  0.00  0.00    +0.000 A 
ATOM     22  C   UNL     1       5.645   4.370  14.569  0.00  0.00    +0.000 A 
ATOM     23  C   UNL     1       5.004   3.616  13.578  0.00  0.00    +0.000 A 
ATOM     24  C   UNL     1       5.626   3.403  12.351  0.00  0.00    +0.000 A 
ATOM     25 CL   UNL     1       4.837   2.467  11.142  0.00  0.00    +0.000 Cl
ATOM     26  C   UNL     1       6.884   3.944  12.101  0.00  0.00    +0.000 A 
ATOM     27  C   UNL     1       7.523   4.694  13.093  0.00  0.00    +0.000 A 
ENDBRANCH  20  21
ENDBRANCH  19  20
ENDBRANCH  16  19
ENDBRANCH   8  15
BRANCH   9  28
ATOM     28  C   UNL     1       2.764   7.482  18.005  0.00  0.00    +0.000 C 
ATOM     29  N   UNL     1       2.181   8.463  17.815  0.00  0.00    +0.000 NA
ENDBRANCH   9  28
TORSDOF 5
ENDMDL
MODEL 2
REMARK VINA RESULT:      -7.7      6.170      8.858
REMARK  Name = 
REMARK  9 active torsions:
REMARK  status: ('A' for Active; 'I' for Inactive)
REMARK    1  A    between atoms: C_1  and  C_2
REMARK    2  A    between atoms: C_2  and  C_3
REMARK    3  A    between atoms: C_8  and  N_9
REMARK    4  A    between atoms: C_10  and  C_12
REMARK    5  A    between atoms: C_12  and  O_13
REMARK    6  A    between atoms: O_13  and  C_14
REMARK    7  A    between atoms: C_21  and  C_22
REMARK    8  A    between atoms: C_24  and  C_25
REMARK    9  A    between atoms: C_24  and  C_26
REMARK                            x       y       z     vdW  Elec       q    Type
REMARK                         _______ _______ _______ _____ _____    ______ ____
ROOT
ATOM      1  C   UNL     1      -3.086  14.551  21.062  0.00  0.00    +0.000 C 
ATOM      2  C   UNL     1      -3.555  13.092  21.228  0.00  0.00    +0.000 C 
ATOM      3  C   UNL     1      -5.026  13.168  21.699  0.00  0.00    +0.000 C 
ATOM      4  C   UNL     1      -3.428  12.312  19.868  0.00  0.00    +0.000 C 
ATOM      5  C   UNL     1      -2.013  11.806  19.634  0.00  0.00    +0.000 A 
ATOM      6  C   UNL     1      -1.094  11.780  20.675  0.00  0.00    +0.000 A 
ATOM      7  S   UNL     1       0.474  11.343  20.142  0.00  0.00    +0.000 S 
ATOM      8  C   UNL     1      -0.118  10.891  18.624  0.00  0.00    +0.000 A 
ATOM      9  C   UNL     1      -1.431  11.263  18.428  0.00  0.00    +0.000 A 
ATOM     10  C   UNL     1      -1.386  12.137  22.118  0.00  0.00    +0.000 C 
ATOM     11  C   UNL     1      -0.548  13.340  22.583  0.00  0.00    +0.000 C 
ATOM     12  C   UNL     1      -1.059  10.937  23.032  0.00  0.00    +0.000 C 
ATOM     13  N   UNL     1      -2.832  12.384  22.307  0.00  0.00    +0.000 NA
ATOM     14  H   UNL     1      -2.995  12.823  23.210  0.00  0.00    +0.000 HD
ENDROOT
BRANCH   8  15
ATOM     15  N   UNL     1       0.822  10.307  17.799  0.00  0.00    +0.000 N 
ATOM     16  C   UNL     1       1.652   9.287  18.214  0.00  0.00    +0.000 C 
ATOM     17  O   UNL     1       2.637   9.023  17.514  0.00  0.00    +0.000 OA
ATOM     18  H   UNL     1       1.356  10.933  17.204  0.00  0.00    +0.000 HD
BRANCH  16  19
ATOM     19  C   UNL     1       1.404   8.557  19.535  0.00  0.00    +0.000 C 
BRANCH  19  20
ATOM     20  O   UNL     1       2.432   7.584  19.711  0.00  0.00    +0.000 OA
BRANCH  20  21
ATOM     21  C   UNL     1       2.118   6.284  19.423  0.00  0.00    +0.000 A 
ATOM     22  C   UNL     1       2.203   5.679  18.167  0.00  0.00    +0.000 A 
ATOM     23  C   UNL     1       1.817   4.343  18.003  0.00  0.00    +0.000 A 
ATOM     24  C   UNL     1       1.351   3.611  19.092  0.00  0.00    +0.000 A 
ATOM     25 CL   UNL     1       0.869   1.973  18.879  0.00  0.00    +0.000 Cl
ATOM     26  C   UNL     1       1.277   4.199  20.351  0.00  0.00    +0.000 A 
ATOM     27  C   UNL     1       1.661   5.534  20.512  0.00  0.00    +0.000 A 
ENDBRANCH  20  21
ENDBRANCH  19  20
ENDBRANCH  16  19
ENDBRANCH   8  15
BRANCH   9  28
ATOM     28  C   UNL     1      -2.084  11.126  17.157  0.00  0.00    +0.000 C 
ATOM     29  N   UNL     1      -2.595  11.058  16.121  0.00  0.00    +0.000 NA
ENDBRANCH   9  28
TORSDOF 5
ENDMDL
MODEL 3
REMARK VINA RESULT:      -7.4      7.377      9.938
REMARK  Name = 
REMARK  9 active torsions:
REMARK  status: ('A' for Active; 'I' for Inactive)
REMARK    1  A    between atoms: C_1  and  C_2
REMARK    2  A    between atoms: C_2  and  C_3
REMARK    3  A    between atoms: C_8  and  N_9
REMARK    4  A    between atoms: C_10  and  C_12
REMARK    5  A    between atoms: C_12  and  O_13
REMARK    6  A    between atoms: O_13  and  C_14
REMARK    7  A    between atoms: C_21  and  C_22
REMARK    8  A    between atoms: C_24  and  C_25
REMARK    9  A    between atoms: C_24  and  C_26
REMARK                            x       y       z     vdW  Elec       q    Type
REMARK                         _______ _______ _______ _____ _____    ______ ____
ROOT
ATOM      1  C   UNL     1      -6.561  13.590  19.367  0.00  0.00    +0.000 C 
ATOM      2  C   UNL     1      -6.154  12.215  19.933  0.00  0.00    +0.000 C 
ATOM      3  C   UNL     1      -7.469  11.424  20.121  0.00  0.00    +0.000 C 
ATOM      4  C   UNL     1      -5.179  11.478  18.944  0.00  0.00    +0.000 C 
ATOM      5  C   UNL     1      -3.741  11.946  19.109  0.00  0.00    +0.000 A 
ATOM      6  C   UNL     1      -3.364  12.677  20.228  0.00  0.00    +0.000 A 
ATOM      7  S   UNL     1      -1.752  13.244  20.116  0.00  0.00    +0.000 S 
ATOM      8  C   UNL     1      -1.456  12.277  18.762  0.00  0.00    +0.000 A 
ATOM      9  C   UNL     1      -2.602  11.699  18.255  0.00  0.00    +0.000 A 
ATOM     10  C   UNL     1      -4.255  13.005  21.409  0.00  0.00    +0.000 C 
ATOM     11  C   UNL     1      -4.442  14.522  21.572  0.00  0.00    +0.000 C 
ATOM     12  C   UNL     1      -3.630  12.451  22.708  0.00  0.00    +0.000 C 
ATOM     13  N   UNL     1      -5.556  12.312  21.282  0.00  0.00    +0.000 NA
ATOM     14  H   UNL     1      -6.220  12.692  21.953  0.00  0.00    +0.000 HD
ENDROOT
BRANCH   8  15
ATOM     15  N   UNL     1      -0.146  12.289  18.330  0.00  0.00    +0.000 N 
ATOM     16  C   UNL     1       0.762  11.305  18.666  0.00  0.00    +0.000 C 
ATOM     17  O   UNL     1       1.962  11.538  18.476  0.00  0.00    +0.000 OA
ATOM     18  H   UNL     1       0.331  13.185  18.348  0.00  0.00    +0.000 HD
BRANCH  16  19
ATOM     19  C   UNL     1       0.304  10.001  19.320  0.00  0.00    +0.000 C 
BRANCH  19  20
ATOM     20  O   UNL     1       1.418   9.422  19.995  0.00  0.00    +0.000 OA
BRANCH  20  21
ATOM     21  C   UNL     1       1.860   8.208  19.545  0.00  0.00    +0.000 A 
ATOM     22  C   UNL     1       2.369   7.940  18.273  0.00  0.00    +0.000 A 
ATOM     23  C   UNL     1       2.756   6.638  17.929  0.00  0.00    +0.000 A 
ATOM     24  C   UNL     1       2.639   5.607  18.857  0.00  0.00    +0.000 A 
ATOM     25 CL   UNL     1       3.107   4.009  18.424  0.00  0.00    +0.000 Cl
ATOM     26  C   UNL     1       2.148   5.866  20.133  0.00  0.00    +0.000 A 
ATOM     27  C   UNL     1       1.760   7.165  20.473  0.00  0.00    +0.000 A 
ENDBRANCH  20  21
ENDBRANCH  19  20
ENDBRANCH  16  19
ENDBRANCH   8  15
BRANCH   9  28
ATOM     28  C   UNL     1      -2.610  10.974  17.017  0.00  0.00    +0.000 C 
ATOM     29  N   UNL     1      -2.624  10.428  15.997  0.00  0.00    +0.000 NA
ENDBRANCH   9  28
TORSDOF 5
ENDMDL
MODEL 4
REMARK VINA RESULT:      -7.2      4.904      7.767
REMARK  Name = 
REMARK  9 active torsions:
REMARK  status: ('A' for Active; 'I' for Inactive)
REMARK    1  A    between atoms: C_1  and  C_2
REMARK    2  A    between atoms: C_2  and  C_3
REMARK    3  A    between atoms: C_8  and  N_9
REMARK    4  A    between atoms: C_10  and  C_12
REMARK    5  A    between atoms: C_12  and  O_13
REMARK    6  A    between atoms: O_13  and  C_14
REMARK    7  A    between atoms: C_21  and  C_22
REMARK    8  A    between atoms: C_24  and  C_25
REMARK    9  A    between atoms: C_24  and  C_26
REMARK                            x       y       z     vdW  Elec       q    Type
REMARK                         _______ _______ _______ _____ _____    ______ ____
ROOT
ATOM      1  C   UNL     1       3.826   1.384  18.214  0.00  0.00    +0.000 C 
ATOM      2  C   UNL     1       4.095   2.183  19.504  0.00  0.00    +0.000 C 
ATOM      3  C   UNL     1       4.954   1.264  20.405  0.00  0.00    +0.000 C 
ATOM      4  C   UNL     1       4.844   3.526  19.176  0.00  0.00    +0.000 C 
ATOM      5  C   UNL     1       3.884   4.617  18.727  0.00  0.00    +0.000 A 
ATOM      6  C   UNL     1       2.517   4.477  18.929  0.00  0.00    +0.000 A 
ATOM      7  S   UNL     1       1.623   5.737  18.191  0.00  0.00    +0.000 S 
ATOM      8  C   UNL     1       3.031   6.618  17.881  0.00  0.00    +0.000 A 
ATOM      9  C   UNL     1       4.181   5.895  18.122  0.00  0.00    +0.000 A 
ATOM     10  C   UNL     1       1.847   3.335  19.664  0.00  0.00    +0.000 C 
ATOM     11  C   UNL     1       0.897   2.550  18.744  0.00  0.00    +0.000 C 
ATOM     12  C   UNL     1       1.027   3.884  20.852  0.00  0.00    +0.000 C 
ATOM     13  N   UNL     1       2.861   2.447  20.275  0.00  0.00    +0.000 NA
ATOM     14  H   UNL     1       2.425   1.580  20.582  0.00  0.00    +0.000 HD
ENDROOT
BRANCH   8  15
ATOM     15  N   UNL     1       2.811   7.876  17.359  0.00  0.00    +0.000 N 
ATOM     16  C   UNL     1       2.206   8.889  18.075  0.00  0.00    +0.000 C 
ATOM     17  O   UNL     1       1.798   9.875  17.450  0.00  0.00    +0.000 OA
ATOM     18  H   UNL     1       2.480   7.919  16.400  0.00  0.00    +0.000 HD
BRANCH  16  19
ATOM     19  C   UNL     1       1.978   8.760  19.582  0.00  0.00    +0.000 C 
BRANCH  19  20
ATOM     20  O   UNL     1       0.573   8.761  19.826  0.00  0.00    +0.000 OA
BRANCH  20  21
ATOM     21  C   UNL     1       0.099   9.652  20.750  0.00  0.00    +0.000 A 
ATOM     22  C   UNL     1      -0.271   9.354  22.063  0.00  0.00    +0.000 A 
ATOM     23  C   UNL     1      -0.776  10.359  22.897  0.00  0.00    +0.000 A 
ATOM     24  C   UNL     1      -0.904  11.662  22.423  0.00  0.00    +0.000 A 
ATOM     25 CL   UNL     1      -1.534  12.889  23.452  0.00  0.00    +0.000 Cl
ATOM     26  C   UNL     1      -0.523  11.973  21.122  0.00  0.00    +0.000 A 
ATOM     27  C   UNL     1      -0.022  10.968  20.289  0.00  0.00    +0.000 A 
ENDBRANCH  20  21
ENDBRANCH  19  20
ENDBRANCH  16  19
ENDBRANCH   8  15
BRANCH   9  28
ATOM     28  C   UNL     1       5.483   6.387  17.773  0.00  0.00    +0.000 C 
ATOM     29  N   UNL     1       6.549   6.743  17.499  0.00  0.00    +0.000 NA
ENDBRANCH   9  28
TORSDOF 5
ENDMDL
MODEL 5
REMARK VINA RESULT:      -7.0      9.810     12.593
REMARK  Name = 
REMARK  9 active torsions:
REMARK  status: ('A' for Active; 'I' for Inactive)
REMARK    1  A    between atoms: C_1  and  C_2
REMARK    2  A    between atoms: C_2  and  C_3
REMARK    3  A    between atoms: C_8  and  N_9
REMARK    4  A    between atoms: C_10  and  C_12
REMARK    5  A    between atoms: C_12  and  O_13
REMARK    6  A    between atoms: O_13  and  C_14
REMARK    7  A    between atoms: C_21  and  C_22
REMARK    8  A    between atoms: C_24  and  C_25
REMARK    9  A    between atoms: C_24  and  C_26
REMARK                            x       y       z     vdW  Elec       q    Type
REMARK                         _______ _______ _______ _____ _____    ______ ____
ROOT
ATOM      1  C   UNL     1      -2.716   9.848  18.020  0.00  0.00    +0.000 C 
ATOM      2  C   UNL     1      -3.038  11.338  17.796  0.00  0.00    +0.000 C 
ATOM      3  C   UNL     1      -3.948  11.395  16.546  0.00  0.00    +0.000 C 
ATOM      4  C   UNL     1      -3.759  11.944  19.056  0.00  0.00    +0.000 C 
ATOM      5  C   UNL     1      -2.768  12.346  20.138  0.00  0.00    +0.000 A 
ATOM      6  C   UNL     1      -1.414  12.448  19.848  0.00  0.00    +0.000 A 
ATOM      7  S   UNL     1      -0.473  12.738  21.250  0.00  0.00    +0.000 S 
ATOM      8  C   UNL     1      -1.857  13.037  22.173  0.00  0.00    +0.000 A 
ATOM      9  C   UNL     1      -3.023  12.712  21.512  0.00  0.00    +0.000 A 
ATOM     10  C   UNL     1      -0.790  12.279  18.478  0.00  0.00    +0.000 C 
ATOM     11  C   UNL     1       0.195  11.099  18.447  0.00  0.00    +0.000 C 
ATOM     12  C   UNL     1      -0.022  13.561  18.089  0.00  0.00    +0.000 C 
ATOM     13  N   UNL     1      -1.840  12.132  17.447  0.00  0.00    +0.000 NA
ATOM     14  H   UNL     1      -1.428  11.812  16.573  0.00  0.00    +0.000 HD
ENDROOT
BRANCH   8  15
ATOM     15  N   UNL     1      -1.601  13.469  23.458  0.00  0.00    +0.000 N 
ATOM     16  C   UNL     1      -1.318  14.785  23.762  0.00  0.00    +0.000 C 
ATOM     17  O   UNL     1      -0.830  15.029  24.872  0.00  0.00    +0.000 OA
ATOM     18  H   UNL     1      -1.009  12.873  24.029  0.00  0.00    +0.000 HD
BRANCH  16  19
ATOM     19  C   UNL     1      -1.531  15.895  22.732  0.00  0.00    +0.000 C 
BRANCH  19  20
ATOM     20  O   UNL     1      -0.290  16.140  22.073  0.00  0.00    +0.000 OA
BRANCH  20  21
ATOM     21  C   UNL     1      -0.345  16.655  20.807  0.00  0.00    +0.000 A 
ATOM     22  C   UNL     1      -1.507  16.957  20.093  0.00  0.00    +0.000 A 
ATOM     23  C   UNL     1      -1.422  17.450  18.786  0.00  0.00    +0.000 A 
ATOM     24  C   UNL     1      -0.178  17.649  18.193  0.00  0.00    +0.000 A 
ATOM     25 CL   UNL     1      -0.082  18.246  16.583  0.00  0.00    +0.000 Cl
ATOM     26  C   UNL     1       0.987  17.367  18.901  0.00  0.00    +0.000 A 
ATOM     27  C   UNL     1       0.899  16.871  20.205  0.00  0.00    +0.000 A 
ENDBRANCH  20  21
ENDBRANCH  19  20
ENDBRANCH  16  19
ENDBRANCH   8  15
BRANCH   9  28
ATOM     28  C   UNL     1      -4.303  12.730  22.162  0.00  0.00    +0.000 C 
ATOM     29  N   UNL     1      -5.354  12.740  22.645  0.00  0.00    +0.000 NA
ENDBRANCH   9  28
TORSDOF 5
ENDMDL
MODEL 6
REMARK VINA RESULT:      -7.0     10.115     13.110
REMARK  Name = 
REMARK  9 active torsions:
REMARK  status: ('A' for Active; 'I' for Inactive)
REMARK    1  A    between atoms: C_1  and  C_2
REMARK    2  A    between atoms: C_2  and  C_3
REMARK    3  A    between atoms: C_8  and  N_9
REMARK    4  A    between atoms: C_10  and  C_12
REMARK    5  A    between atoms: C_12  and  O_13
REMARK    6  A    between atoms: O_13  and  C_14
REMARK    7  A    between atoms: C_21  and  C_22
REMARK    8  A    between atoms: C_24  and  C_25
REMARK    9  A    between atoms: C_24  and  C_26
REMARK                            x       y       z     vdW  Elec       q    Type
REMARK                         _______ _______ _______ _____ _____    ______ ____
ROOT
ATOM      1  C   UNL     1      -2.876   9.661  17.616  0.00  0.00    +0.000 C 
ATOM      2  C   UNL     1      -3.146  11.128  17.230  0.00  0.00    +0.000 C 
ATOM      3  C   UNL     1      -3.646  11.100  15.767  0.00  0.00    +0.000 C 
ATOM      4  C   UNL     1      -4.218  11.763  18.190  0.00  0.00    +0.000 C 
ATOM      5  C   UNL     1      -3.599  12.244  19.494  0.00  0.00    +0.000 A 
ATOM      6  C   UNL     1      -2.222  12.379  19.611  0.00  0.00    +0.000 A 
ATOM      7  S   UNL     1      -1.743  12.760  21.210  0.00  0.00    +0.000 S 
ATOM      8  C   UNL     1      -3.344  13.052  21.669  0.00  0.00    +0.000 A 
ATOM      9  C   UNL     1      -4.256  12.661  20.711  0.00  0.00    +0.000 A 
ATOM     10  C   UNL     1      -1.218  12.172  18.495  0.00  0.00    +0.000 C 
ATOM     11  C   UNL     1      -0.245  11.025  18.816  0.00  0.00    +0.000 C 
ATOM     12  C   UNL     1      -0.394  13.461  18.285  0.00  0.00    +0.000 C 
ATOM     13  N   UNL     1      -1.913  11.945  17.210  0.00  0.00    +0.000 NA
ATOM     14  H   UNL     1      -1.255  11.601  16.514  0.00  0.00    +0.000 HD
ENDROOT
BRANCH   8  15
ATOM     15  N   UNL     1      -3.487  13.548  22.948  0.00  0.00    +0.000 N 
ATOM     16  C   UNL     1      -3.361  14.889  23.250  0.00  0.00    +0.000 C 
ATOM     17  O   UNL     1      -3.224  15.203  24.438  0.00  0.00    +0.000 OA
ATOM     18  H   UNL     1      -3.059  13.010  23.695  0.00  0.00    +0.000 HD
BRANCH  16  19
ATOM     19  C   UNL     1      -3.317  15.944  22.144  0.00  0.00    +0.000 C 
BRANCH  19  20
ATOM     20  O   UNL     1      -1.959  16.334  21.949  0.00  0.00    +0.000 OA
BRANCH  20  21
ATOM     21  C   UNL     1      -1.626  16.849  20.726  0.00  0.00    +0.000 A 
ATOM     22  C   UNL     1      -2.475  17.561  19.876  0.00  0.00    +0.000 A 
ATOM     23  C   UNL     1      -2.013  18.004  18.630  0.00  0.00    +0.000 A 
ATOM     24  C   UNL     1      -0.704  17.743  18.237  0.00  0.00    +0.000 A 
ATOM     25 CL   UNL     1      -0.147  18.283  16.701  0.00  0.00    +0.000 Cl
ATOM     26  C   UNL     1       0.156  17.048  19.083  0.00  0.00    +0.000 A 
ATOM     27  C   UNL     1      -0.308  16.604  20.325  0.00  0.00    +0.000 A 
ENDBRANCH  20  21
ENDBRANCH  19  20
ENDBRANCH  16  19
ENDBRANCH   8  15
BRANCH   9  28
ATOM     28  C   UNL     1      -5.671  12.665  20.954  0.00  0.00    +0.000 C 
ATOM     29  N   UNL     1      -6.811  12.622  21.147  0.00  0.00    +0.000 NA
ENDBRANCH   9  28
TORSDOF 5
ENDMDL
MODEL 7
REMARK VINA RESULT:      -6.9      5.314      7.697
REMARK  Name = 
REMARK  9 active torsions:
REMARK  status: ('A' for Active; 'I' for Inactive)
REMARK    1  A    between atoms: C_1  and  C_2
REMARK    2  A    between atoms: C_2  and  C_3
REMARK    3  A    between atoms: C_8  and  N_9
REMARK    4  A    between atoms: C_10  and  C_12
REMARK    5  A    between atoms: C_12  and  O_13
REMARK    6  A    between atoms: O_13  and  C_14
REMARK    7  A    between atoms: C_21  and  C_22
REMARK    8  A    between atoms: C_24  and  C_25
REMARK    9  A    between atoms: C_24  and  C_26
REMARK                            x       y       z     vdW  Elec       q    Type
REMARK                         _______ _______ _______ _____ _____    ______ ____
ROOT
ATOM      1  C   UNL     1       1.402   4.099  17.307  0.00  0.00    +0.000 C 
ATOM      2  C   UNL     1       2.769   4.497  17.895  0.00  0.00    +0.000 C 
ATOM      3  C   UNL     1       3.830   3.745  17.056  0.00  0.00    +0.000 C 
ATOM      4  C   UNL     1       2.973   6.054  17.814  0.00  0.00    +0.000 C 
ATOM      5  C   UNL     1       2.293   6.777  18.967  0.00  0.00    +0.000 A 
ATOM      6  C   UNL     1       1.860   6.071  20.081  0.00  0.00    +0.000 A 
ATOM      7  S   UNL     1       0.971   7.056  21.164  0.00  0.00    +0.000 S 
ATOM      8  C   UNL     1       1.421   8.457  20.333  0.00  0.00    +0.000 A 
ATOM      9  C   UNL     1       2.045   8.190  19.131  0.00  0.00    +0.000 A 
ATOM     10  C   UNL     1       2.078   4.593  20.328  0.00  0.00    +0.000 C 
ATOM     11  C   UNL     1       0.745   3.832  20.425  0.00  0.00    +0.000 C 
ATOM     12  C   UNL     1       2.848   4.389  21.651  0.00  0.00    +0.000 C 
ATOM     13  N   UNL     1       2.952   4.017  19.282  0.00  0.00    +0.000 NA
ATOM     14  H   UNL     1       2.926   3.001  19.327  0.00  0.00    +0.000 HD
ENDROOT
BRANCH   8  15
ATOM     15  N   UNL     1       1.019   9.630  20.937  0.00  0.00    +0.000 N 
ATOM     16  C   UNL     1      -0.048  10.378  20.483  0.00  0.00    +0.000 C 
ATOM     17  O   UNL     1      -0.160  11.538  20.900  0.00  0.00    +0.000 OA
ATOM     18  H   UNL     1       1.755  10.266  21.230  0.00  0.00    +0.000 HD
BRANCH  16  19
ATOM     19  C   UNL     1      -1.017   9.817  19.442  0.00  0.00    +0.000 C 
BRANCH  19  20
ATOM     20  O   UNL     1      -1.943  10.843  19.091  0.00  0.00    +0.000 OA
BRANCH  20  21
ATOM     21  C   UNL     1      -2.521  10.768  17.853  0.00  0.00    +0.000 A 
ATOM     22  C   UNL     1      -3.645  11.479  17.427  0.00  0.00    +0.000 A 
ATOM     23  C   UNL     1      -4.157  11.281  16.139  0.00  0.00    +0.000 A 
ATOM     24  C   UNL     1      -3.543  10.378  15.274  0.00  0.00    +0.000 A 
ATOM     25 CL   UNL     1      -4.184  10.133  13.696  0.00  0.00    +0.000 Cl
ATOM     26  C   UNL     1      -2.413   9.676  15.683  0.00  0.00    +0.000 A 
ATOM     27  C   UNL     1      -1.906   9.873  16.971  0.00  0.00    +0.000 A 
ENDBRANCH  20  21
ENDBRANCH  19  20
ENDBRANCH  16  19
ENDBRANCH   8  15
BRANCH   9  28
ATOM     28  C   UNL     1       2.363   9.225  18.188  0.00  0.00    +0.000 C 
ATOM     29  N   UNL     1       2.629  10.086  17.463  0.00  0.00    +0.000 NA
ENDBRANCH   9  28
TORSDOF 5
ENDMDL
MODEL 8
REMARK VINA RESULT:      -6.8      4.787      7.324
REMARK  Name = 
REMARK  9 active torsions:
REMARK  status: ('A' for Active; 'I' for Inactive)
REMARK    1  A    between atoms: C_1  and  C_2
REMARK    2  A    between atoms: C_2  and  C_3
REMARK    3  A    between atoms: C_8  and  N_9
REMARK    4  A    between atoms: C_10  and  C_12
REMARK    5  A    between atoms: C_12  and  O_13
REMARK    6  A    between atoms: O_13  and  C_14
REMARK    7  A    between atoms: C_21  and  C_22
REMARK    8  A    between atoms: C_24  and  C_25
REMARK    9  A    between atoms: C_24  and  C_26
REMARK                            x       y       z     vdW  Elec       q    Type
REMARK                         _______ _______ _______ _____ _____    ______ ____
ROOT
ATOM      1  C   UNL     1       1.920   2.228  17.618  0.00  0.00    +0.000 C 
ATOM      2  C   UNL     1       3.216   2.487  18.411  0.00  0.00    +0.000 C 
ATOM      3  C   UNL     1       3.986   1.146  18.422  0.00  0.00    +0.000 C 
ATOM      4  C   UNL     1       4.060   3.627  17.732  0.00  0.00    +0.000 C 
ATOM      5  C   UNL     1       3.568   5.011  18.128  0.00  0.00    +0.000 A 
ATOM      6  C   UNL     1       2.707   5.169  19.206  0.00  0.00    +0.000 A 
ATOM      7  S   UNL     1       2.149   6.781  19.356  0.00  0.00    +0.000 S 
ATOM      8  C   UNL     1       3.269   7.324  18.212  0.00  0.00    +0.000 A 
ATOM      9  C   UNL     1       3.908   6.293  17.556  0.00  0.00    +0.000 A 
ATOM     10  C   UNL     1       2.247   4.066  20.136  0.00  0.00    +0.000 C 
ATOM     11  C   UNL     1       0.722   3.878  20.080  0.00  0.00    +0.000 C 
ATOM     12  C   UNL     1       2.639   4.407  21.590  0.00  0.00    +0.000 C 
ATOM     13  N   UNL     1       2.957   2.804  19.833  0.00  0.00    +0.000 NA
ATOM     14  H   UNL     1       2.503   2.026  20.307  0.00  0.00    +0.000 HD
ENDROOT
BRANCH   8  15
ATOM     15  N   UNL     1       3.301   8.695  18.054  0.00  0.00    +0.000 N 
ATOM     16  C   UNL     1       2.166   9.451  17.843  0.00  0.00    +0.000 C 
ATOM     17  O   UNL     1       2.312  10.610  17.436  0.00  0.00    +0.000 OA
ATOM     18  H   UNL     1       4.048   9.069  17.477  0.00  0.00    +0.000 HD
BRANCH  16  19
ATOM     19  C   UNL     1       0.773   8.850  18.033  0.00  0.00    +0.000 C 
BRANCH  19  20
ATOM     20  O   UNL     1       0.004   9.745  18.835  0.00  0.00    +0.000 OA
BRANCH  20  21
ATOM     21  C   UNL     1      -1.176  10.197  18.311  0.00  0.00    +0.000 A 
ATOM     22  C   UNL     1      -1.751   9.785  17.107  0.00  0.00    +0.000 A 
ATOM     23  C   UNL     1      -2.951  10.357  16.668  0.00  0.00    +0.000 A 
ATOM     24  C   UNL     1      -3.581  11.334  17.435  0.00  0.00    +0.000 A 
ATOM     25 CL   UNL     1      -5.051  12.038  16.884  0.00  0.00    +0.000 Cl
ATOM     26  C   UNL     1      -3.026  11.740  18.644  0.00  0.00    +0.000 A 
ATOM     27  C   UNL     1      -1.825  11.170  19.079  0.00  0.00    +0.000 A 
ENDBRANCH  20  21
ENDBRANCH  19  20
ENDBRANCH  16  19
ENDBRANCH   8  15
BRANCH   9  28
ATOM     28  C   UNL     1       4.776   6.520  16.435  0.00  0.00    +0.000 C 
ATOM     29  N   UNL     1       5.507   6.718  15.561  0.00  0.00    +0.000 NA
ENDBRANCH   9  28
TORSDOF 5
ENDMDL
MODEL 9
REMARK VINA RESULT:      -6.7      9.554     12.250
REMARK  Name = 
REMARK  9 active torsions:
REMARK  status: ('A' for Active; 'I' for Inactive)
REMARK    1  A    between atoms: C_1  and  C_2
REMARK    2  A    between atoms: C_2  and  C_3
REMARK    3  A    between atoms: C_8  and  N_9
REMARK    4  A    between atoms: C_10  and  C_12
REMARK    5  A    between atoms: C_12  and  O_13
REMARK    6  A    between atoms: O_13  and  C_14
REMARK    7  A    between atoms: C_21  and  C_22
REMARK    8  A    between atoms: C_24  and  C_25
REMARK    9  A    between atoms: C_24  and  C_26
REMARK                            x       y       z     vdW  Elec       q    Type
REMARK                         _______ _______ _______ _____ _____    ______ ____
ROOT
ATOM      1  C   UNL     1      -6.126  13.117  21.879  0.00  0.00    +0.000 C 
ATOM      2  C   UNL     1      -5.695  13.205  23.356  0.00  0.00    +0.000 C 
ATOM      3  C   UNL     1      -6.802  12.492  24.167  0.00  0.00    +0.000 C 
ATOM      4  C   UNL     1      -4.297  12.515  23.566  0.00  0.00    +0.000 C 
ATOM      5  C   UNL     1      -3.147  13.440  23.200  0.00  0.00    +0.000 A 
ATOM      6  C   UNL     1      -3.365  14.802  23.034  0.00  0.00    +0.000 A 
ATOM      7  S   UNL     1      -1.973  15.613  22.454  0.00  0.00    +0.000 S 
ATOM      8  C   UNL     1      -1.011  14.249  22.718  0.00  0.00    +0.000 A 
ATOM      9  C   UNL     1      -1.748  13.125  23.027  0.00  0.00    +0.000 A 
ATOM     10  C   UNL     1      -4.676  15.521  23.276  0.00  0.00    +0.000 C 
ATOM     11  C   UNL     1      -5.206  16.177  21.991  0.00  0.00    +0.000 C 
ATOM     12  C   UNL     1      -4.482  16.624  24.338  0.00  0.00    +0.000 C 
ATOM     13  N   UNL     1      -5.673  14.596  23.859  0.00  0.00    +0.000 NA
ATOM     14  H   UNL     1      -6.599  15.015  23.824  0.00  0.00    +0.000 HD
ENDROOT
BRANCH   8  15
ATOM     15  N   UNL     1       0.336  14.452  22.497  0.00  0.00    +0.000 N 
ATOM     16  C   UNL     1       0.981  14.023  21.355  0.00  0.00    +0.000 C 
ATOM     17  O   UNL     1       2.217  13.993  21.367  0.00  0.00    +0.000 OA
ATOM     18  H   UNL     1       0.954  14.303  23.290  0.00  0.00    +0.000 HD
BRANCH  16  19
ATOM     19  C   UNL     1       0.190  13.529  20.143  0.00  0.00    +0.000 C 
BRANCH  19  20
ATOM     20  O   UNL     1       0.217  12.103  20.140  0.00  0.00    +0.000 OA
BRANCH  20  21
ATOM     21  C   UNL     1      -0.504  11.466  19.168  0.00  0.00    +0.000 A 
ATOM     22  C   UNL     1      -0.142  10.284  18.518  0.00  0.00    +0.000 A 
ATOM     23  C   UNL     1      -0.960   9.754  17.512  0.00  0.00    +0.000 A 
ATOM     24  C   UNL     1      -2.141  10.401  17.160  0.00  0.00    +0.000 A 
ATOM     25 CL   UNL     1      -3.136   9.750  15.916  0.00  0.00    +0.000 Cl
ATOM     26  C   UNL     1      -2.520  11.571  17.811  0.00  0.00    +0.000 A 
ATOM     27  C   UNL     1      -1.700  12.100  18.813  0.00  0.00    +0.000 A 
ENDBRANCH  20  21
ENDBRANCH  19  20
ENDBRANCH  16  19
ENDBRANCH   8  15
BRANCH   9  28
ATOM     28  C   UNL     1      -1.152  11.822  23.129  0.00  0.00    +0.000 C 
ATOM     29  N   UNL     1      -0.639  10.791  23.238  0.00  0.00    +0.000 NA
ENDBRANCH   9  28
TORSDOF 5
ENDMDL
