MODEL 1
REMARK VINA RESULT:      -6.9      0.000      0.000
REMARK  Name = 
REMARK  19 active torsions:
REMARK  status: ('A' for Active; 'I' for Inactive)
REMARK    1  A    between atoms: C_1  and  O_2
REMARK    2  A    between atoms: O_2  and  C_3
REMARK    3  A    between atoms: C_3  and  C_4
REMARK    4  A    between atoms: C_4  and  C_5
REMARK    5  A    between atoms: C_5  and  C_6
REMARK    6  A    between atoms: C_10  and  C_11
REMARK    7  A    between atoms: C_11  and  C_12
REMARK    8  A    between atoms: C_12  and  O_13
REMARK    9  A    between atoms: C_12  and  C_14
REMARK   10  A    between atoms: C_15  and  C_16
REMARK   11  A    between atoms: C_17  and  O_18
REMARK   12  A    between atoms: C_22  and  S_23
REMARK   13  A    between atoms: S_23  and  C_24
REMARK   14  A    between atoms: C_24  and  C_25
REMARK   15  A    between atoms: C_25  and  C_26
REMARK   16  A    between atoms: C_26  and  S_27
REMARK   17  A    between atoms: S_27  and  C_28
REMARK   18  A    between atoms: C_28  and  C_29
REMARK   19  A    between atoms: C_29  and  O_31
REMARK                            x       y       z     vdW  Elec       q    Type
REMARK                         _______ _______ _______ _____ _____    ______ ____
ROOT
ATOM      1  C   UNL     1       2.129   4.607  20.261  0.00  0.00    +0.000 C 
ATOM      2  C   UNL     1       1.555   3.275  20.772  0.00  0.00    +0.000 C 
ATOM      3  C   UNL     1       2.098   2.241  19.803  0.00  0.00    +0.000 C 
ATOM      4  C   UNL     1       2.013   3.001  18.512  0.00  0.00    +0.000 C 
ATOM      5  O   UNL     1       1.937   2.435  17.428  0.00  0.00    +0.000 OA
ATOM      6  C   UNL     1       2.011   4.500  18.715  0.00  0.00    +0.000 C 
ENDROOT
BRANCH   2   7
ATOM      7  O   UNL     1       1.955   2.979  22.102  0.00  0.00    +0.000 OA
ATOM      8  H   UNL     1       1.166   2.847  22.655  0.00  0.00    +0.000 HD
ENDBRANCH   2   7
BRANCH   1  10
ATOM      9  C   UNL     1       1.841   7.042  20.812  0.00  0.00    +0.000 C 
ATOM     10  C   UNL     1       1.378   5.781  20.846  0.00  0.00    +0.000 C 
BRANCH   9  11
ATOM     11  C   UNL     1       1.138   8.283  21.286  0.00  0.00    +0.000 C 
BRANCH  11  12
ATOM     12  O   UNL     1       1.985   8.798  22.316  0.00  0.00    +0.000 OA
ATOM     13  H   UNL     1       2.757   9.200  21.886  0.00  0.00    +0.000 HD
ENDBRANCH  11  12
BRANCH  11  14
ATOM     14  C   UNL     1       0.836   9.348  20.208  0.00  0.00    +0.000 C 
BRANCH  14  19
ATOM     15  C   UNL     1      -1.235  11.885  22.167  0.00  0.00    +0.000 A 
ATOM     16  C   UNL     1      -0.917  13.080  21.514  0.00  0.00    +0.000 A 
ATOM     17  C   UNL     1       0.019  13.092  20.483  0.00  0.00    +0.000 A 
ATOM     18  C   UNL     1       0.636  11.909  20.080  0.00  0.00    +0.000 A 
ATOM     19  C   UNL     1       0.306  10.689  20.683  0.00  0.00    +0.000 A 
ATOM     20  C   UNL     1      -0.615  10.697  21.747  0.00  0.00    +0.000 A 
BRANCH  15  21
ATOM     21  C   UNL     1      -2.243  11.874  23.290  0.00  0.00    +0.000 C 
BRANCH  21  22
ATOM     22  C   UNL     1      -3.487  12.721  23.012  0.00  0.00    +0.000 C 
BRANCH  22  23
ATOM     23  C   UNL     1      -4.319  12.978  24.263  0.00  0.00    +0.000 C 
BRANCH  23  25
ATOM     24  C   UNL     1      -6.646  12.684  24.072  0.00  0.00    +0.000 C 
ATOM     25  O   UNL     1      -5.396  12.041  24.279  0.00  0.00    +0.000 OA
ENDBRANCH  23  25
ENDBRANCH  22  23
ENDBRANCH  21  22
ENDBRANCH  15  21
ENDBRANCH  14  19
ENDBRANCH  11  14
ENDBRANCH   9  11
ENDBRANCH   1  10
BRANCH   6  26
ATOM     26  S   UNL     1       3.426   5.307  17.876  0.00  0.00    +0.000 S 
BRANCH  26  27
ATOM     27  C   UNL     1       4.837   4.297  18.479  0.00  0.00    +0.000 C 
BRANCH  27  28
ATOM     28  C   UNL     1       5.693   5.149  19.418  0.00  0.00    +0.000 C 
BRANCH  28  29
ATOM     29  C   UNL     1       6.914   5.758  18.718  0.00  0.00    +0.000 C 
BRANCH  29  30
ATOM     30  S   UNL     1       7.377   4.627  17.346  0.00  0.00    +0.000 S 
BRANCH  30  31
ATOM     31  C   UNL     1       6.766   5.571  15.910  0.00  0.00    +0.000 C 
BRANCH  31  32
ATOM     32  C   UNL     1       6.960   4.823  14.603  0.00  0.00    +0.000 C 
ATOM     33  O   UNL     1       7.497   5.307  13.625  0.00  0.00    +0.000 OA
BRANCH  32  34
ATOM     34  O   UNL     1       6.426   3.580  14.592  0.00  0.00    +0.000 OA
ATOM     35  H   UNL     1       6.819   3.024  15.300  0.00  0.00    +0.000 HD
ENDBRANCH  32  34
ENDBRANCH  31  32
ENDBRANCH  30  31
ENDBRANCH  29  30
ENDBRANCH  28  29
ENDBRANCH  27  28
ENDBRANCH  26  27
ENDBRANCH   6  26
TORSDOF 18
ENDMDL
MODEL 2
REMARK VINA RESULT:      -6.9      3.146      9.515
REMARK  Name = 
REMARK  19 active torsions:
REMARK  status: ('A' for Active; 'I' for Inactive)
REMARK    1  A    between atoms: C_1  and  O_2
REMARK    2  A    between atoms: O_2  and  C_3
REMARK    3  A    between atoms: C_3  and  C_4
REMARK    4  A    between atoms: C_4  and  C_5
REMARK    5  A    between atoms: C_5  and  C_6
REMARK    6  A    between atoms: C_10  and  C_11
REMARK    7  A    between atoms: C_11  and  C_12
REMARK    8  A    between atoms: C_12  and  O_13
REMARK    9  A    between atoms: C_12  and  C_14
REMARK   10  A    between atoms: C_15  and  C_16
REMARK   11  A    between atoms: C_17  and  O_18
REMARK   12  A    between atoms: C_22  and  S_23
REMARK   13  A    between atoms: S_23  and  C_24
REMARK   14  A    between atoms: C_24  and  C_25
REMARK   15  A    between atoms: C_25  and  C_26
REMARK   16  A    between atoms: C_26  and  S_27
REMARK   17  A    between atoms: S_27  and  C_28
REMARK   18  A    between atoms: C_28  and  C_29
REMARK   19  A    between atoms: C_29  and  O_31
REMARK                            x       y       z     vdW  Elec       q    Type
REMARK                         _______ _______ _______ _____ _____    ______ ____
ROOT
ATOM      1  C   UNL     1       2.661   4.481  18.234  0.00  0.00    +0.000 C 
ATOM      2  C   UNL     1       2.648   2.966  18.501  0.00  0.00    +0.000 C 
ATOM      3  C   UNL     1       1.967   2.833  19.850  0.00  0.00    +0.000 C 
ATOM      4  C   UNL     1       2.534   4.025  20.564  0.00  0.00    +0.000 C 
ATOM      5  O   UNL     1       2.605   4.079  21.786  0.00  0.00    +0.000 OA
ATOM      6  C   UNL     1       3.009   5.103  19.615  0.00  0.00    +0.000 C 
ENDROOT
BRANCH   2   7
ATOM      7  O   UNL     1       1.940   2.239  17.506  0.00  0.00    +0.000 OA
ATOM      8  H   UNL     1       0.993   2.454  17.562  0.00  0.00    +0.000 HD
ENDBRANCH   2   7
BRANCH   1  10
ATOM      9  C   UNL     1       4.514   3.942  16.624  0.00  0.00    +0.000 C 
ATOM     10  C   UNL     1       3.650   4.830  17.145  0.00  0.00    +0.000 C 
BRANCH   9  11
ATOM     11  C   UNL     1       5.472   4.164  15.487  0.00  0.00    +0.000 C 
BRANCH  11  12
ATOM     12  O   UNL     1       4.987   5.343  14.840  0.00  0.00    +0.000 OA
ATOM     13  H   UNL     1       4.110   5.538  15.209  0.00  0.00    +0.000 HD
ENDBRANCH  11  12
BRANCH  11  14
ATOM     14  C   UNL     1       6.963   4.293  15.869  0.00  0.00    +0.000 C 
BRANCH  14  19
ATOM     15  C   UNL     1       7.812   7.422  17.880  0.00  0.00    +0.000 A 
ATOM     16  C   UNL     1       8.140   6.881  19.128  0.00  0.00    +0.000 A 
ATOM     17  C   UNL     1       8.025   5.512  19.354  0.00  0.00    +0.000 A 
ATOM     18  C   UNL     1       7.596   4.665  18.334  0.00  0.00    +0.000 A 
ATOM     19  C   UNL     1       7.305   5.170  17.061  0.00  0.00    +0.000 A 
ATOM     20  C   UNL     1       7.391   6.559  16.857  0.00  0.00    +0.000 A 
BRANCH  15  21
ATOM     21  C   UNL     1       7.930   8.908  17.639  0.00  0.00    +0.000 C 
BRANCH  21  22
ATOM     22  C   UNL     1       8.836   9.627  18.640  0.00  0.00    +0.000 C 
BRANCH  22  23
ATOM     23  C   UNL     1       9.140  11.065  18.235  0.00  0.00    +0.000 C 
BRANCH  23  25
ATOM     24  C   UNL     1      10.576  12.534  19.382  0.00  0.00    +0.000 C 
ATOM     25  O   UNL     1       9.345  11.826  19.426  0.00  0.00    +0.000 OA
ENDBRANCH  23  25
ENDBRANCH  22  23
ENDBRANCH  21  22
ENDBRANCH  15  21
ENDBRANCH  14  19
ENDBRANCH  11  14
ENDBRANCH   9  11
ENDBRANCH   1  10
BRANCH   6  26
ATOM     26  S   UNL     1       2.126   6.687  19.879  0.00  0.00    +0.000 S 
BRANCH  26  27
ATOM     27  C   UNL     1       2.472   7.568  18.304  0.00  0.00    +0.000 C 
BRANCH  27  28
ATOM     28  C   UNL     1       1.461   8.704  18.138  0.00  0.00    +0.000 C 
BRANCH  28  29
ATOM     29  C   UNL     1       1.511   9.716  19.289  0.00  0.00    +0.000 C 
BRANCH  29  30
ATOM     30  S   UNL     1      -0.211   9.948  19.887  0.00  0.00    +0.000 S 
BRANCH  30  31
ATOM     31  C   UNL     1      -0.130   9.086  21.492  0.00  0.00    +0.000 C 
BRANCH  31  32
ATOM     32  C   UNL     1      -0.370  10.023  22.662  0.00  0.00    +0.000 C 
ATOM     33  O   UNL     1      -1.101  10.995  22.606  0.00  0.00    +0.000 OA
BRANCH  32  34
ATOM     34  O   UNL     1       0.348   9.723  23.769  0.00  0.00    +0.000 OA
ATOM     35  H   UNL     1       1.246   9.406  23.528  0.00  0.00    +0.000 HD
ENDBRANCH  32  34
ENDBRANCH  31  32
ENDBRANCH  30  31
ENDBRANCH  29  30
ENDBRANCH  28  29
ENDBRANCH  27  28
ENDBRANCH  26  27
ENDBRANCH   6  26
TORSDOF 18
ENDMDL
MODEL 3
REMARK VINA RESULT:      -6.8      3.742      6.267
REMARK  Name = 
REMARK  19 active torsions:
REMARK  status: ('A' for Active; 'I' for Inactive)
REMARK    1  A    between atoms: C_1  and  O_2
REMARK    2  A    between atoms: O_2  and  C_3
REMARK    3  A    between atoms: C_3  and  C_4
REMARK    4  A    between atoms: C_4  and  C_5
REMARK    5  A    between atoms: C_5  and  C_6
REMARK    6  A    between atoms: C_10  and  C_11
REMARK    7  A    between atoms: C_11  and  C_12
REMARK    8  A    between atoms: C_12  and  O_13
REMARK    9  A    between atoms: C_12  and  C_14
REMARK   10  A    between atoms: C_15  and  C_16
REMARK   11  A    between atoms: C_17  and  O_18
REMARK   12  A    between atoms: C_22  and  S_23
REMARK   13  A    between atoms: S_23  and  C_24
REMARK   14  A    between atoms: C_24  and  C_25
REMARK   15  A    between atoms: C_25  and  C_26
REMARK   16  A    between atoms: C_26  and  S_27
REMARK   17  A    between atoms: S_27  and  C_28
REMARK   18  A    between atoms: C_28  and  C_29
REMARK   19  A    between atoms: C_29  and  O_31
REMARK                            x       y       z     vdW  Elec       q    Type
REMARK                         _______ _______ _______ _____ _____    ______ ____
ROOT
ATOM      1  C   UNL     1       5.520   6.720  16.939  0.00  0.00    +0.000 C 
ATOM      2  C   UNL     1       6.565   7.536  17.718  0.00  0.00    +0.000 C 
ATOM      3  C   UNL     1       7.770   6.618  17.795  0.00  0.00    +0.000 C 
ATOM      4  C   UNL     1       7.095   5.294  18.004  0.00  0.00    +0.000 C 
ATOM      5  O   UNL     1       7.665   4.351  18.540  0.00  0.00    +0.000 OA
ATOM      6  C   UNL     1       5.668   5.281  17.505  0.00  0.00    +0.000 C 
ENDROOT
BRANCH   2   7
ATOM      7  O   UNL     1       6.902   8.756  17.073  0.00  0.00    +0.000 OA
ATOM      8  H   UNL     1       6.334   8.875  16.292  0.00  0.00    +0.000 HD
ENDBRANCH   2   7
BRANCH   1  10
ATOM      9  C   UNL     1       3.418   7.160  18.243  0.00  0.00    +0.000 C 
ATOM     10  C   UNL     1       4.136   7.302  17.117  0.00  0.00    +0.000 C 
BRANCH   9  11
ATOM     11  C   UNL     1       2.078   7.767  18.551  0.00  0.00    +0.000 C 
BRANCH  11  12
ATOM     12  O   UNL     1       1.986   7.718  19.977  0.00  0.00    +0.000 OA
ATOM     13  H   UNL     1       2.780   7.262  20.304  0.00  0.00    +0.000 HD
ENDBRANCH  11  12
BRANCH  11  14
ATOM     14  C   UNL     1       1.836   9.194  18.012  0.00  0.00    +0.000 C 
BRANCH  14  19
ATOM     15  C   UNL     1      -1.716  10.588  18.077  0.00  0.00    +0.000 A 
ATOM     16  C   UNL     1      -1.679  11.414  19.205  0.00  0.00    +0.000 A 
ATOM     17  C   UNL     1      -0.534  11.478  19.994  0.00  0.00    +0.000 A 
ATOM     18  C   UNL     1       0.594  10.730  19.659  0.00  0.00    +0.000 A 
ATOM     19  C   UNL     1       0.604   9.929  18.510  0.00  0.00    +0.000 A 
ATOM     20  C   UNL     1      -0.572   9.846  17.742  0.00  0.00    +0.000 A 
BRANCH  15  21
ATOM     21  C   UNL     1      -2.961  10.513  17.227  0.00  0.00    +0.000 C 
BRANCH  21  22
ATOM     22  C   UNL     1      -2.711  10.777  15.741  0.00  0.00    +0.000 C 
BRANCH  22  23
ATOM     23  C   UNL     1      -3.741  10.105  14.840  0.00  0.00    +0.000 C 
BRANCH  23  25
ATOM     24  C   UNL     1      -4.310   9.837  12.572  0.00  0.00    +0.000 C 
ATOM     25  O   UNL     1      -3.300  10.236  13.488  0.00  0.00    +0.000 OA
ENDBRANCH  23  25
ENDBRANCH  22  23
ENDBRANCH  21  22
ENDBRANCH  15  21
ENDBRANCH  14  19
ENDBRANCH  11  14
ENDBRANCH   9  11
ENDBRANCH   1  10
BRANCH   6  26
ATOM     26  S   UNL     1       5.407   4.018  16.204  0.00  0.00    +0.000 S 
BRANCH  26  27
ATOM     27  C   UNL     1       4.336   2.806  17.075  0.00  0.00    +0.000 C 
BRANCH  27  28
ATOM     28  C   UNL     1       3.540   3.535  18.159  0.00  0.00    +0.000 C 
BRANCH  28  29
ATOM     29  C   UNL     1       2.072   3.749  17.775  0.00  0.00    +0.000 C 
BRANCH  29  30
ATOM     30  S   UNL     1       1.117   3.911  19.337  0.00  0.00    +0.000 S 
BRANCH  30  31
ATOM     31  C   UNL     1       2.473   4.014  20.552  0.00  0.00    +0.000 C 
BRANCH  31  32
ATOM     32  C   UNL     1       2.490   2.828  21.500  0.00  0.00    +0.000 C 
ATOM     33  O   UNL     1       1.557   2.530  22.221  0.00  0.00    +0.000 OA
BRANCH  32  34
ATOM     34  O   UNL     1       3.664   2.156  21.523  0.00  0.00    +0.000 OA
ATOM     35  H   UNL     1       3.518   1.203  21.711  0.00  0.00    +0.000 HD
ENDBRANCH  32  34
ENDBRANCH  31  32
ENDBRANCH  30  31
ENDBRANCH  29  30
ENDBRANCH  28  29
ENDBRANCH  27  28
ENDBRANCH  26  27
ENDBRANCH   6  26
TORSDOF 18
ENDMDL
MODEL 4
REMARK VINA RESULT:      -6.8      3.334     10.882
REMARK  Name = 
REMARK  19 active torsions:
REMARK  status: ('A' for Active; 'I' for Inactive)
REMARK    1  A    between atoms: C_1  and  O_2
REMARK    2  A    between atoms: O_2  and  C_3
REMARK    3  A    between atoms: C_3  and  C_4
REMARK    4  A    between atoms: C_4  and  C_5
REMARK    5  A    between atoms: C_5  and  C_6
REMARK    6  A    between atoms: C_10  and  C_11
REMARK    7  A    between atoms: C_11  and  C_12
REMARK    8  A    between atoms: C_12  and  O_13
REMARK    9  A    between atoms: C_12  and  C_14
REMARK   10  A    between atoms: C_15  and  C_16
REMARK   11  A    between atoms: C_17  and  O_18
REMARK   12  A    between atoms: C_22  and  S_23
REMARK   13  A    between atoms: S_23  and  C_24
REMARK   14  A    between atoms: C_24  and  C_25
REMARK   15  A    between atoms: C_25  and  C_26
REMARK   16  A    between atoms: C_26  and  S_27
REMARK   17  A    between atoms: S_27  and  C_28
REMARK   18  A    between atoms: C_28  and  C_29
REMARK   19  A    between atoms: C_29  and  O_31
REMARK                            x       y       z     vdW  Elec       q    Type
REMARK                         _______ _______ _______ _____ _____    ______ ____
ROOT
ATOM      1  C   UNL     1       1.837   4.026  18.820  0.00  0.00    +0.000 C 
ATOM      2  C   UNL     1       1.900   2.499  18.993  0.00  0.00    +0.000 C 
ATOM      3  C   UNL     1       1.418   2.266  20.413  0.00  0.00    +0.000 C 
ATOM      4  C   UNL     1       2.048   3.434  21.112  0.00  0.00    +0.000 C 
ATOM      5  O   UNL     1       2.287   3.421  22.314  0.00  0.00    +0.000 OA
ATOM      6  C   UNL     1       2.358   4.579  20.175  0.00  0.00    +0.000 C 
ENDROOT
BRANCH   2   7
ATOM      7  O   UNL     1       1.079   1.806  18.062  0.00  0.00    +0.000 OA
ATOM      8  H   UNL     1       1.539   1.750  17.207  0.00  0.00    +0.000 HD
ENDBRANCH   2   7
BRANCH   1  10
ATOM      9  C   UNL     1       3.845   5.084  17.742  0.00  0.00    +0.000 C 
ATOM     10  C   UNL     1       2.655   4.469  17.629  0.00  0.00    +0.000 C 
BRANCH   9  11
ATOM     11  C   UNL     1       4.772   5.486  16.628  0.00  0.00    +0.000 C 
BRANCH  11  12
ATOM     12  O   UNL     1       5.431   6.654  17.122  0.00  0.00    +0.000 OA
ATOM     13  H   UNL     1       6.374   6.570  16.904  0.00  0.00    +0.000 HD
ENDBRANCH  11  12
BRANCH  11  14
ATOM     14  C   UNL     1       5.780   4.414  16.160  0.00  0.00    +0.000 C 
BRANCH  14  19
ATOM     15  C   UNL     1       5.784   3.655  12.421  0.00  0.00    +0.000 A 
ATOM     16  C   UNL     1       6.987   4.238  12.011  0.00  0.00    +0.000 A 
ATOM     17  C   UNL     1       7.775   4.940  12.919  0.00  0.00    +0.000 A 
ATOM     18  C   UNL     1       7.379   5.055  14.251  0.00  0.00    +0.000 A 
ATOM     19  C   UNL     1       6.203   4.444  14.702  0.00  0.00    +0.000 A 
ATOM     20  C   UNL     1       5.399   3.768  13.766  0.00  0.00    +0.000 A 
BRANCH  15  21
ATOM     21  C   UNL     1       4.926   2.901  11.433  0.00  0.00    +0.000 C 
BRANCH  21  22
ATOM     22  C   UNL     1       3.677   3.665  10.990  0.00  0.00    +0.000 C 
BRANCH  22  23
ATOM     23  C   UNL     1       2.953   2.991   9.830  0.00  0.00    +0.000 C 
BRANCH  23  25
ATOM     24  C   UNL     1       2.210   5.087   9.060  0.00  0.00    +0.000 C 
ATOM     25  O   UNL     1       2.927   3.905   8.733  0.00  0.00    +0.000 OA
ENDBRANCH  23  25
ENDBRANCH  22  23
ENDBRANCH  21  22
ENDBRANCH  15  21
ENDBRANCH  14  19
ENDBRANCH  11  14
ENDBRANCH   9  11
ENDBRANCH   1  10
BRANCH   6  26
ATOM     26  S   UNL     1       1.481   6.115  20.654  0.00  0.00    +0.000 S 
BRANCH  26  27
ATOM     27  C   UNL     1       2.424   7.386  19.720  0.00  0.00    +0.000 C 
BRANCH  27  28
ATOM     28  C   UNL     1       1.481   8.531  19.348  0.00  0.00    +0.000 C 
BRANCH  28  29
ATOM     29  C   UNL     1       0.810   9.167  20.571  0.00  0.00    +0.000 C 
BRANCH  29  30
ATOM     30  S   UNL     1       0.146  10.797  20.042  0.00  0.00    +0.000 S 
BRANCH  30  31
ATOM     31  C   UNL     1      -0.580  11.390  21.606  0.00  0.00    +0.000 C 
BRANCH  31  32
ATOM     32  C   UNL     1      -0.195  12.826  21.914  0.00  0.00    +0.000 C 
ATOM     33  O   UNL     1       0.341  13.565  21.109  0.00  0.00    +0.000 OA
BRANCH  32  34
ATOM     34  O   UNL     1      -0.441  13.204  23.189  0.00  0.00    +0.000 OA
ATOM     35  H   UNL     1      -1.128  12.632  23.597  0.00  0.00    +0.000 HD
ENDBRANCH  32  34
ENDBRANCH  31  32
ENDBRANCH  30  31
ENDBRANCH  29  30
ENDBRANCH  28  29
ENDBRANCH  27  28
ENDBRANCH  26  27
ENDBRANCH   6  26
TORSDOF 18
ENDMDL
MODEL 5
REMARK VINA RESULT:      -6.7      3.316      5.735
REMARK  Name = 
REMARK  19 active torsions:
REMARK  status: ('A' for Active; 'I' for Inactive)
REMARK    1  A    between atoms: C_1  and  O_2
REMARK    2  A    between atoms: O_2  and  C_3
REMARK    3  A    between atoms: C_3  and  C_4
REMARK    4  A    between atoms: C_4  and  C_5
REMARK    5  A    between atoms: C_5  and  C_6
REMARK    6  A    between atoms: C_10  and  C_11
REMARK    7  A    between atoms: C_11  and  C_12
REMARK    8  A    between atoms: C_12  and  O_13
REMARK    9  A    between atoms: C_12  and  C_14
REMARK   10  A    between atoms: C_15  and  C_16
REMARK   11  A    between atoms: C_17  and  O_18
REMARK   12  A    between atoms: C_22  and  S_23
REMARK   13  A    between atoms: S_23  and  C_24
REMARK   14  A    between atoms: C_24  and  C_25
REMARK   15  A    between atoms: C_25  and  C_26
REMARK   16  A    between atoms: C_26  and  S_27
REMARK   17  A    between atoms: S_27  and  C_28
REMARK   18  A    between atoms: C_28  and  C_29
REMARK   19  A    between atoms: C_29  and  O_31
REMARK                            x       y       z     vdW  Elec       q    Type
REMARK                         _______ _______ _______ _____ _____    ______ ____
ROOT
ATOM      1  C   UNL     1       4.654   6.101  17.241  0.00  0.00    +0.000 C 
ATOM      2  C   UNL     1       5.742   6.651  16.303  0.00  0.00    +0.000 C 
ATOM      3  C   UNL     1       6.774   5.540  16.242  0.00  0.00    +0.000 C 
ATOM      4  C   UNL     1       6.750   5.062  17.664  0.00  0.00    +0.000 C 
ATOM      5  O   UNL     1       7.704   4.485  18.173  0.00  0.00    +0.000 OA
ATOM      6  C   UNL     1       5.453   5.391  18.369  0.00  0.00    +0.000 C 
ENDROOT
BRANCH   2   7
ATOM      7  O   UNL     1       5.248   6.952  15.006  0.00  0.00    +0.000 OA
ATOM      8  H   UNL     1       4.482   6.384  14.813  0.00  0.00    +0.000 HD
ENDBRANCH   2   7
BRANCH   1  10
ATOM      9  C   UNL     1       2.696   6.999  18.536  0.00  0.00    +0.000 C 
ATOM     10  C   UNL     1       3.758   7.212  17.740  0.00  0.00    +0.000 C 
BRANCH   9  11
ATOM     11  C   UNL     1       1.799   8.035  19.152  0.00  0.00    +0.000 C 
BRANCH  11  12
ATOM     12  O   UNL     1       2.002   7.886  20.559  0.00  0.00    +0.000 OA
ATOM     13  H   UNL     1       2.205   6.951  20.728  0.00  0.00    +0.000 HD
ENDBRANCH  11  12
BRANCH  11  14
ATOM     14  C   UNL     1       2.023   9.492  18.692  0.00  0.00    +0.000 C 
BRANCH  14  19
ATOM     15  C   UNL     1      -0.117  12.650  18.622  0.00  0.00    +0.000 A 
ATOM     16  C   UNL     1      -1.409  12.120  18.547  0.00  0.00    +0.000 A 
ATOM     17  C   UNL     1      -1.601  10.744  18.449  0.00  0.00    +0.000 A 
ATOM     18  C   UNL     1      -0.507   9.881  18.441  0.00  0.00    +0.000 A 
ATOM     19  C   UNL     1       0.797  10.378  18.560  0.00  0.00    +0.000 A 
ATOM     20  C   UNL     1       0.977  11.772  18.622  0.00  0.00    +0.000 A 
BRANCH  15  21
ATOM     21  C   UNL     1       0.090  14.143  18.720  0.00  0.00    +0.000 C 
BRANCH  21  22
ATOM     22  C   UNL     1       1.315  14.544  19.544  0.00  0.00    +0.000 C 
BRANCH  22  23
ATOM     23  C   UNL     1       1.063  14.479  21.046  0.00  0.00    +0.000 C 
BRANCH  23  25
ATOM     24  C   UNL     1       3.365  13.994  21.077  0.00  0.00    +0.000 C 
ATOM     25  O   UNL     1       2.095  13.687  21.635  0.00  0.00    +0.000 OA
ENDBRANCH  23  25
ENDBRANCH  22  23
ENDBRANCH  21  22
ENDBRANCH  15  21
ENDBRANCH  14  19
ENDBRANCH  11  14
ENDBRANCH   9  11
ENDBRANCH   1  10
BRANCH   6  26
ATOM     26  S   UNL     1       4.590   3.885  18.956  0.00  0.00    +0.000 S 
BRANCH  26  27
ATOM     27  C   UNL     1       4.298   2.989  17.379  0.00  0.00    +0.000 C 
BRANCH  27  28
ATOM     28  C   UNL     1       2.811   3.069  17.031  0.00  0.00    +0.000 C 
BRANCH  28  29
ATOM     29  C   UNL     1       1.967   3.666  18.163  0.00  0.00    +0.000 C 
BRANCH  29  30
ATOM     30  S   UNL     1       1.247   2.263  19.105  0.00  0.00    +0.000 S 
BRANCH  30  31
ATOM     31  C   UNL     1       0.745   3.109  20.641  0.00  0.00    +0.000 C 
BRANCH  31  32
ATOM     32  C   UNL     1       1.932   3.662  21.408  0.00  0.00    +0.000 C 
ATOM     33  O   UNL     1       2.236   4.841  21.419  0.00  0.00    +0.000 OA
BRANCH  32  34
ATOM     34  O   UNL     1       2.671   2.721  22.039  0.00  0.00    +0.000 OA
ATOM     35  H   UNL     1       2.405   1.819  21.755  0.00  0.00    +0.000 HD
ENDBRANCH  32  34
ENDBRANCH  31  32
ENDBRANCH  30  31
ENDBRANCH  29  30
ENDBRANCH  28  29
ENDBRANCH  27  28
ENDBRANCH  26  27
ENDBRANCH   6  26
TORSDOF 18
ENDMDL
MODEL 6
REMARK VINA RESULT:      -6.6      2.127      2.726
REMARK  Name = 
REMARK  19 active torsions:
REMARK  status: ('A' for Active; 'I' for Inactive)
REMARK    1  A    between atoms: C_1  and  O_2
REMARK    2  A    between atoms: O_2  and  C_3
REMARK    3  A    between atoms: C_3  and  C_4
REMARK    4  A    between atoms: C_4  and  C_5
REMARK    5  A    between atoms: C_5  and  C_6
REMARK    6  A    between atoms: C_10  and  C_11
REMARK    7  A    between atoms: C_11  and  C_12
REMARK    8  A    between atoms: C_12  and  O_13
REMARK    9  A    between atoms: C_12  and  C_14
REMARK   10  A    between atoms: C_15  and  C_16
REMARK   11  A    between atoms: C_17  and  O_18
REMARK   12  A    between atoms: C_22  and  S_23
REMARK   13  A    between atoms: S_23  and  C_24
REMARK   14  A    between atoms: C_24  and  C_25
REMARK   15  A    between atoms: C_25  and  C_26
REMARK   16  A    between atoms: C_26  and  S_27
REMARK   17  A    between atoms: S_27  and  C_28
REMARK   18  A    between atoms: C_28  and  C_29
REMARK   19  A    between atoms: C_29  and  O_31
REMARK                            x       y       z     vdW  Elec       q    Type
REMARK                         _______ _______ _______ _____ _____    ______ ____
ROOT
ATOM      1  C   UNL     1       2.375   4.874  19.116  0.00  0.00    +0.000 C 
ATOM      2  C   UNL     1       1.694   4.841  20.495  0.00  0.00    +0.000 C 
ATOM      3  C   UNL     1       1.271   3.394  20.666  0.00  0.00    +0.000 C 
ATOM      4  C   UNL     1       0.838   3.067  19.267  0.00  0.00    +0.000 C 
ATOM      5  O   UNL     1       0.037   2.171  19.027  0.00  0.00    +0.000 OA
ATOM      6  C   UNL     1       1.476   3.966  18.232  0.00  0.00    +0.000 C 
ENDROOT
BRANCH   2   7
ATOM      7  O   UNL     1       2.564   5.239  21.546  0.00  0.00    +0.000 OA
ATOM      8  H   UNL     1       3.037   4.460  21.886  0.00  0.00    +0.000 HD
ENDBRANCH   2   7
BRANCH   1  10
ATOM      9  C   UNL     1       1.774   7.314  19.099  0.00  0.00    +0.000 C 
ATOM     10  C   UNL     1       2.493   6.292  18.605  0.00  0.00    +0.000 C 
BRANCH   9  11
ATOM     11  C   UNL     1       1.877   8.766  18.722  0.00  0.00    +0.000 C 
BRANCH  11  12
ATOM     12  O   UNL     1       2.308   8.747  17.359  0.00  0.00    +0.000 OA
ATOM     13  H   UNL     1       1.676   8.202  16.861  0.00  0.00    +0.000 HD
ENDBRANCH  11  12
BRANCH  11  14
ATOM     14  C   UNL     1       0.598   9.610  18.907  0.00  0.00    +0.000 C 
BRANCH  14  19
ATOM     15  C   UNL     1      -0.625  11.389  22.053  0.00  0.00    +0.000 A 
ATOM     16  C   UNL     1      -0.651  10.343  22.982  0.00  0.00    +0.000 A 
ATOM     17  C   UNL     1      -0.342   9.044  22.589  0.00  0.00    +0.000 A 
ATOM     18  C   UNL     1       0.012   8.775  21.268  0.00  0.00    +0.000 A 
ATOM     19  C   UNL     1       0.092   9.807  20.325  0.00  0.00    +0.000 A 
ATOM     20  C   UNL     1      -0.258  11.109  20.728  0.00  0.00    +0.000 A 
BRANCH  15  21
ATOM     21  C   UNL     1      -0.968  12.796  22.479  0.00  0.00    +0.000 C 
BRANCH  21  22
ATOM     22  C   UNL     1      -2.468  13.095  22.472  0.00  0.00    +0.000 C 
BRANCH  22  23
ATOM     23  C   UNL     1      -3.056  13.207  23.874  0.00  0.00    +0.000 C 
BRANCH  23  25
ATOM     24  C   UNL     1      -5.141  12.354  24.553  0.00  0.00    +0.000 C 
ATOM     25  O   UNL     1      -3.825  12.031  24.127  0.00  0.00    +0.000 OA
ENDBRANCH  23  25
ENDBRANCH  22  23
ENDBRANCH  21  22
ENDBRANCH  15  21
ENDBRANCH  14  19
ENDBRANCH  11  14
ENDBRANCH   9  11
ENDBRANCH   1  10
BRANCH   6  26
ATOM     26  S   UNL     1       2.469   3.017  17.019  0.00  0.00    +0.000 S 
BRANCH  26  27
ATOM     27  C   UNL     1       4.179   3.519  17.469  0.00  0.00    +0.000 C 
BRANCH  27  28
ATOM     28  C   UNL     1       4.771   4.345  16.326  0.00  0.00    +0.000 C 
BRANCH  28  29
ATOM     29  C   UNL     1       6.158   3.853  15.895  0.00  0.00    +0.000 C 
BRANCH  29  30
ATOM     30  S   UNL     1       7.287   5.302  15.935  0.00  0.00    +0.000 S 
BRANCH  30  31
ATOM     31  C   UNL     1       6.963   5.937  17.613  0.00  0.00    +0.000 C 
BRANCH  31  32
ATOM     32  C   UNL     1       7.745   7.203  17.912  0.00  0.00    +0.000 C 
ATOM     33  O   UNL     1       8.492   7.323  18.865  0.00  0.00    +0.000 OA
BRANCH  32  34
ATOM     34  O   UNL     1       7.496   8.222  17.057  0.00  0.00    +0.000 OA
ATOM     35  H   UNL     1       6.981   7.910  16.281  0.00  0.00    +0.000 HD
ENDBRANCH  32  34
ENDBRANCH  31  32
ENDBRANCH  30  31
ENDBRANCH  29  30
ENDBRANCH  28  29
ENDBRANCH  27  28
ENDBRANCH  26  27
ENDBRANCH   6  26
TORSDOF 18
ENDMDL
MODEL 7
REMARK VINA RESULT:      -6.6      1.113      1.255
REMARK  Name = 
REMARK  19 active torsions:
REMARK  status: ('A' for Active; 'I' for Inactive)
REMARK    1  A    between atoms: C_1  and  O_2
REMARK    2  A    between atoms: O_2  and  C_3
REMARK    3  A    between atoms: C_3  and  C_4
REMARK    4  A    between atoms: C_4  and  C_5
REMARK    5  A    between atoms: C_5  and  C_6
REMARK    6  A    between atoms: C_10  and  C_11
REMARK    7  A    between atoms: C_11  and  C_12
REMARK    8  A    between atoms: C_12  and  O_13
REMARK    9  A    between atoms: C_12  and  C_14
REMARK   10  A    between atoms: C_15  and  C_16
REMARK   11  A    between atoms: C_17  and  O_18
REMARK   12  A    between atoms: C_22  and  S_23
REMARK   13  A    between atoms: S_23  and  C_24
REMARK   14  A    between atoms: C_24  and  C_25
REMARK   15  A    between atoms: C_25  and  C_26
REMARK   16  A    between atoms: C_26  and  S_27
REMARK   17  A    between atoms: S_27  and  C_28
REMARK   18  A    between atoms: C_28  and  C_29
REMARK   19  A    between atoms: C_29  and  O_31
REMARK                            x       y       z     vdW  Elec       q    Type
REMARK                         _______ _______ _______ _____ _____    ______ ____
ROOT
ATOM      1  C   UNL     1       2.016   4.686  20.278  0.00  0.00    +0.000 C 
ATOM      2  C   UNL     1       1.511   3.376  20.908  0.00  0.00    +0.000 C 
ATOM      3  C   UNL     1       2.052   2.292  19.995  0.00  0.00    +0.000 C 
ATOM      4  C   UNL     1       1.887   2.951  18.657  0.00  0.00    +0.000 C 
ATOM      5  O   UNL     1       1.787   2.305  17.621  0.00  0.00    +0.000 OA
ATOM      6  C   UNL     1       1.839   4.460  18.751  0.00  0.00    +0.000 C 
ENDROOT
BRANCH   2   7
ATOM      7  O   UNL     1       1.976   3.193  22.238  0.00  0.00    +0.000 OA
ATOM      8  H   UNL     1       1.340   3.587  22.860  0.00  0.00    +0.000 HD
ENDBRANCH   2   7
BRANCH   1  10
ATOM      9  C   UNL     1       1.754   7.117  20.856  0.00  0.00    +0.000 C 
ATOM     10  C   UNL     1       1.246   5.874  20.808  0.00  0.00    +0.000 C 
BRANCH   9  11
ATOM     11  C   UNL     1       1.047   8.373  21.282  0.00  0.00    +0.000 C 
BRANCH  11  12
ATOM     12  O   UNL     1       1.871   8.908  22.320  0.00  0.00    +0.000 OA
ATOM     13  H   UNL     1       1.292   9.390  22.933  0.00  0.00    +0.000 HD
ENDBRANCH  11  12
BRANCH  11  14
ATOM     14  C   UNL     1       0.778   9.414  20.172  0.00  0.00    +0.000 C 
BRANCH  14  19
ATOM     15  C   UNL     1      -0.338  12.608  21.934  0.00  0.00    +0.000 A 
ATOM     16  C   UNL     1       0.423  13.580  21.276  0.00  0.00    +0.000 A 
ATOM     17  C   UNL     1       1.352  13.210  20.308  0.00  0.00    +0.000 A 
ATOM     18  C   UNL     1       1.522  11.868  19.973  0.00  0.00    +0.000 A 
ATOM     19  C   UNL     1       0.743  10.876  20.581  0.00  0.00    +0.000 A 
ATOM     20  C   UNL     1      -0.167  11.261  21.583  0.00  0.00    +0.000 A 
BRANCH  15  21
ATOM     21  C   UNL     1      -1.340  13.010  22.990  0.00  0.00    +0.000 C 
BRANCH  21  22
ATOM     22  C   UNL     1      -2.460  11.990  23.199  0.00  0.00    +0.000 C 
BRANCH  22  23
ATOM     23  C   UNL     1      -3.839  12.552  22.872  0.00  0.00    +0.000 C 
BRANCH  23  25
ATOM     24  C   UNL     1      -4.694  14.524  23.829  0.00  0.00    +0.000 C 
ATOM     25  O   UNL     1      -3.758  13.977  22.912  0.00  0.00    +0.000 OA
ENDBRANCH  23  25
ENDBRANCH  22  23
ENDBRANCH  21  22
ENDBRANCH  15  21
ENDBRANCH  14  19
ENDBRANCH  11  14
ENDBRANCH   9  11
ENDBRANCH   1  10
BRANCH   6  26
ATOM     26  S   UNL     1       3.188   5.250  17.795  0.00  0.00    +0.000 S 
BRANCH  26  27
ATOM     27  C   UNL     1       4.419   3.888  17.701  0.00  0.00    +0.000 C 
BRANCH  27  28
ATOM     28  C   UNL     1       5.356   3.981  18.906  0.00  0.00    +0.000 C 
BRANCH  28  29
ATOM     29  C   UNL     1       5.707   5.427  19.274  0.00  0.00    +0.000 C 
BRANCH  29  30
ATOM     30  S   UNL     1       7.446   5.715  18.756  0.00  0.00    +0.000 S 
BRANCH  30  31
ATOM     31  C   UNL     1       7.188   6.529  17.145  0.00  0.00    +0.000 C 
BRANCH  31  32
ATOM     32  C   UNL     1       7.094   5.533  16.003  0.00  0.00    +0.000 C 
ATOM     33  O   UNL     1       6.393   5.698  15.023  0.00  0.00    +0.000 OA
BRANCH  32  34
ATOM     34  O   UNL     1       7.815   4.404  16.193  0.00  0.00    +0.000 OA
ATOM     35  H   UNL     1       7.349   3.624  15.818  0.00  0.00    +0.000 HD
ENDBRANCH  32  34
ENDBRANCH  31  32
ENDBRANCH  30  31
ENDBRANCH  29  30
ENDBRANCH  28  29
ENDBRANCH  27  28
ENDBRANCH  26  27
ENDBRANCH   6  26
TORSDOF 18
ENDMDL
MODEL 8
REMARK VINA RESULT:      -6.6      3.491      4.373
REMARK  Name = 
REMARK  19 active torsions:
REMARK  status: ('A' for Active; 'I' for Inactive)
REMARK    1  A    between atoms: C_1  and  O_2
REMARK    2  A    between atoms: O_2  and  C_3
REMARK    3  A    between atoms: C_3  and  C_4
REMARK    4  A    between atoms: C_4  and  C_5
REMARK    5  A    between atoms: C_5  and  C_6
REMARK    6  A    between atoms: C_10  and  C_11
REMARK    7  A    between atoms: C_11  and  C_12
REMARK    8  A    between atoms: C_12  and  O_13
REMARK    9  A    between atoms: C_12  and  C_14
REMARK   10  A    between atoms: C_15  and  C_16
REMARK   11  A    between atoms: C_17  and  O_18
REMARK   12  A    between atoms: C_22  and  S_23
REMARK   13  A    between atoms: S_23  and  C_24
REMARK   14  A    between atoms: C_24  and  C_25
REMARK   15  A    between atoms: C_25  and  C_26
REMARK   16  A    between atoms: C_26  and  S_27
REMARK   17  A    between atoms: S_27  and  C_28
REMARK   18  A    between atoms: C_28  and  C_29
REMARK   19  A    between atoms: C_29  and  O_31
REMARK                            x       y       z     vdW  Elec       q    Type
REMARK                         _______ _______ _______ _____ _____    ______ ____
ROOT
ATOM      1  C   UNL     1       2.380   4.726  18.913  0.00  0.00    +0.000 C 
ATOM      2  C   UNL     1       1.172   3.899  19.386  0.00  0.00    +0.000 C 
ATOM      3  C   UNL     1       1.643   2.460  19.279  0.00  0.00    +0.000 C 
ATOM      4  C   UNL     1       2.446   2.527  18.013  0.00  0.00    +0.000 C 
ATOM      5  O   UNL     1       2.651   1.537  17.320  0.00  0.00    +0.000 OA
ATOM      6  C   UNL     1       2.934   3.924  17.703  0.00  0.00    +0.000 C 
ENDROOT
BRANCH   2   7
ATOM      7  O   UNL     1       0.785   4.205  20.718  0.00  0.00    +0.000 OA
ATOM      8  H   UNL     1       0.098   3.579  21.006  0.00  0.00    +0.000 HD
ENDBRANCH   2   7
BRANCH   1  10
ATOM      9  C   UNL     1       2.289   7.204  19.318  0.00  0.00    +0.000 C 
ATOM     10  C   UNL     1       1.967   6.138  18.566  0.00  0.00    +0.000 C 
BRANCH   9  11
ATOM     11  C   UNL     1       2.002   8.649  19.019  0.00  0.00    +0.000 C 
BRANCH  11  12
ATOM     12  O   UNL     1       1.545   8.646  17.665  0.00  0.00    +0.000 OA
ATOM     13  H   UNL     1       2.280   8.338  17.109  0.00  0.00    +0.000 HD
ENDBRANCH  11  12
BRANCH  11  14
ATOM     14  C   UNL     1       1.001   9.355  19.960  0.00  0.00    +0.000 C 
BRANCH  14  19
ATOM     15  C   UNL     1      -1.926  11.271  18.438  0.00  0.00    +0.000 A 
ATOM     16  C   UNL     1      -1.332  12.497  18.119  0.00  0.00    +0.000 A 
ATOM     17  C   UNL     1      -0.003  12.743  18.452  0.00  0.00    +0.000 A 
ATOM     18  C   UNL     1       0.754  11.764  19.094  0.00  0.00    +0.000 A 
ATOM     19  C   UNL     1       0.201  10.511  19.386  0.00  0.00    +0.000 A 
ATOM     20  C   UNL     1      -1.153  10.289  19.075  0.00  0.00    +0.000 A 
BRANCH  15  21
ATOM     21  C   UNL     1      -3.370  11.008  18.083  0.00  0.00    +0.000 C 
BRANCH  21  22
ATOM     22  C   UNL     1      -3.703  11.273  16.614  0.00  0.00    +0.000 C 
BRANCH  22  23
ATOM     23  C   UNL     1      -2.950  10.351  15.662  0.00  0.00    +0.000 C 
BRANCH  23  25
ATOM     24  C   UNL     1      -2.887   9.642  13.419  0.00  0.00    +0.000 C 
ATOM     25  O   UNL     1      -3.561  10.449  14.375  0.00  0.00    +0.000 OA
ENDBRANCH  23  25
ENDBRANCH  22  23
ENDBRANCH  21  22
ENDBRANCH  15  21
ENDBRANCH  14  19
ENDBRANCH  11  14
ENDBRANCH   9  11
ENDBRANCH   1  10
BRANCH   6  26
ATOM     26  S   UNL     1       4.763   4.010  17.623  0.00  0.00    +0.000 S 
BRANCH  26  27
ATOM     27  C   UNL     1       5.033   4.495  15.872  0.00  0.00    +0.000 C 
BRANCH  27  28
ATOM     28  C   UNL     1       5.542   5.937  15.829  0.00  0.00    +0.000 C 
BRANCH  28  29
ATOM     29  C   UNL     1       5.747   6.536  17.225  0.00  0.00    +0.000 C 
BRANCH  29  30
ATOM     30  S   UNL     1       7.301   7.515  17.176  0.00  0.00    +0.000 S 
BRANCH  30  31
ATOM     31  C   UNL     1       8.112   6.938  18.704  0.00  0.00    +0.000 C 
BRANCH  31  32
ATOM     32  C   UNL     1       7.823   5.476  18.993  0.00  0.00    +0.000 C 
ATOM     33  O   UNL     1       8.127   4.569  18.241  0.00  0.00    +0.000 OA
BRANCH  32  34
ATOM     34  O   UNL     1       7.138   5.263  20.141  0.00  0.00    +0.000 OA
ATOM     35  H   UNL     1       6.185   5.468  20.022  0.00  0.00    +0.000 HD
ENDBRANCH  32  34
ENDBRANCH  31  32
ENDBRANCH  30  31
ENDBRANCH  29  30
ENDBRANCH  28  29
ENDBRANCH  27  28
ENDBRANCH  26  27
ENDBRANCH   6  26
TORSDOF 18
ENDMDL
MODEL 9
REMARK VINA RESULT:      -6.5      3.477      5.989
REMARK  Name = 
REMARK  19 active torsions:
REMARK  status: ('A' for Active; 'I' for Inactive)
REMARK    1  A    between atoms: C_1  and  O_2
REMARK    2  A    between atoms: O_2  and  C_3
REMARK    3  A    between atoms: C_3  and  C_4
REMARK    4  A    between atoms: C_4  and  C_5
REMARK    5  A    between atoms: C_5  and  C_6
REMARK    6  A    between atoms: C_10  and  C_11
REMARK    7  A    between atoms: C_11  and  C_12
REMARK    8  A    between atoms: C_12  and  O_13
REMARK    9  A    between atoms: C_12  and  C_14
REMARK   10  A    between atoms: C_15  and  C_16
REMARK   11  A    between atoms: C_17  and  O_18
REMARK   12  A    between atoms: C_22  and  S_23
REMARK   13  A    between atoms: S_23  and  C_24
REMARK   14  A    between atoms: C_24  and  C_25
REMARK   15  A    between atoms: C_25  and  C_26
REMARK   16  A    between atoms: C_26  and  S_27
REMARK   17  A    between atoms: S_27  and  C_28
REMARK   18  A    between atoms: C_28  and  C_29
REMARK   19  A    between atoms: C_29  and  O_31
REMARK                            x       y       z     vdW  Elec       q    Type
REMARK                         _______ _______ _______ _____ _____    ______ ____
ROOT
ATOM      1  C   UNL     1       4.885   5.974  17.111  0.00  0.00    +0.000 C 
ATOM      2  C   UNL     1       5.948   6.472  16.117  0.00  0.00    +0.000 C 
ATOM      3  C   UNL     1       6.914   5.308  15.993  0.00  0.00    +0.000 C 
ATOM      4  C   UNL     1       6.942   4.821  17.412  0.00  0.00    +0.000 C 
ATOM      5  O   UNL     1       7.890   4.190  17.865  0.00  0.00    +0.000 OA
ATOM      6  C   UNL     1       5.705   5.213  18.189  0.00  0.00    +0.000 C 
ENDROOT
BRANCH   2   7
ATOM      7  O   UNL     1       5.400   6.809  14.850  0.00  0.00    +0.000 OA
ATOM      8  H   UNL     1       4.457   6.569  14.832  0.00  0.00    +0.000 HD
ENDBRANCH   2   7
BRANCH   1  10
ATOM      9  C   UNL     1       2.775   7.030  17.975  0.00  0.00    +0.000 C 
ATOM     10  C   UNL     1       4.078   7.127  17.664  0.00  0.00    +0.000 C 
BRANCH   9  11
ATOM     11  C   UNL     1       1.909   8.084  18.607  0.00  0.00    +0.000 C 
BRANCH  11  12
ATOM     12  O   UNL     1       2.032   7.848  20.011  0.00  0.00    +0.000 OA
ATOM     13  H   UNL     1       2.419   8.646  20.408  0.00  0.00    +0.000 HD
ENDBRANCH  11  12
BRANCH  11  14
ATOM     14  C   UNL     1       2.240   9.547  18.241  0.00  0.00    +0.000 C 
BRANCH  14  19
ATOM     15  C   UNL     1      -1.254  11.076  18.354  0.00  0.00    +0.000 A 
ATOM     16  C   UNL     1      -0.968  12.430  18.554  0.00  0.00    +0.000 A 
ATOM     17  C   UNL     1       0.346  12.855  18.723  0.00  0.00    +0.000 A 
ATOM     18  C   UNL     1       1.393  11.936  18.679  0.00  0.00    +0.000 A 
ATOM     19  C   UNL     1       1.144  10.580  18.435  0.00  0.00    +0.000 A 
ATOM     20  C   UNL     1      -0.192  10.159  18.301  0.00  0.00    +0.000 A 
BRANCH  15  21
ATOM     21  C   UNL     1      -2.681  10.615  18.179  0.00  0.00    +0.000 C 
BRANCH  21  22
ATOM     22  C   UNL     1      -3.276  10.953  16.810  0.00  0.00    +0.000 C 
BRANCH  22  23
ATOM     23  C   UNL     1      -3.218   9.783  15.835  0.00  0.00    +0.000 C 
BRANCH  23  25
ATOM     24  C   UNL     1      -2.923   9.747  13.501  0.00  0.00    +0.000 C 
ATOM     25  O   UNL     1      -3.717  10.232  14.575  0.00  0.00    +0.000 OA
ENDBRANCH  23  25
ENDBRANCH  22  23
ENDBRANCH  21  22
ENDBRANCH  15  21
ENDBRANCH  14  19
ENDBRANCH  11  14
ENDBRANCH   9  11
ENDBRANCH   1  10
BRANCH   6  26
ATOM     26  S   UNL     1       4.797   3.751  18.816  0.00  0.00    +0.000 S 
BRANCH  26  27
ATOM     27  C   UNL     1       4.148   3.024  17.258  0.00  0.00    +0.000 C 
BRANCH  27  28
ATOM     28  C   UNL     1       2.974   2.102  17.591  0.00  0.00    +0.000 C 
BRANCH  28  29
ATOM     29  C   UNL     1       2.882   1.775  19.086  0.00  0.00    +0.000 C 
BRANCH  29  30
ATOM     30  S   UNL     1       1.137   2.046  19.597  0.00  0.00    +0.000 S 
BRANCH  30  31
ATOM     31  C   UNL     1       1.378   3.046  21.104  0.00  0.00    +0.000 C 
BRANCH  31  32
ATOM     32  C   UNL     1       1.672   4.502  20.789  0.00  0.00    +0.000 C 
ATOM     33  O   UNL     1       2.709   5.060  21.095  0.00  0.00    +0.000 OA
BRANCH  32  34
ATOM     34  O   UNL     1       0.650   5.155  20.189  0.00  0.00    +0.000 OA
ATOM     35  H   UNL     1       0.132   4.546  19.619  0.00  0.00    +0.000 HD
ENDBRANCH  32  34
ENDBRANCH  31  32
ENDBRANCH  30  31
ENDBRANCH  29  30
ENDBRANCH  28  29
ENDBRANCH  27  28
ENDBRANCH  26  27
ENDBRANCH   6  26
TORSDOF 18
ENDMDL
