MODEL 1
REMARK VINA RESULT:     -10.2      0.000      0.000
REMARK  Name = 
REMARK  9 active torsions:
REMARK  status: ('A' for Active; 'I' for Inactive)
REMARK    1  A    between atoms: C_1  and  C_2
REMARK    2  A    between atoms: C_2  and  C_3
REMARK    3  A    between atoms: C_2  and  C_4
REMARK    4  A    between atoms: C_7  and  N_8
REMARK    5  A    between atoms: C_9  and  C_11
REMARK    6  A    between atoms: C_11  and  N_12
REMARK    7  A    between atoms: N_15  and  C_16
REMARK    8  A    between atoms: C_16  and  C_17
REMARK    9  A    between atoms: C_17  and  C_18
REMARK                            x       y       z     vdW  Elec       q    Type
REMARK                         _______ _______ _______ _____ _____    ______ ____
ROOT
ATOM      1  N   UNL     1       7.081   5.945  18.103  0.00  0.00    +0.000 N 
ATOM      2  C   UNL     1       6.316   5.364  19.132  0.00  0.00    +0.000 A 
ATOM      3  O   UNL     1       6.727   5.155  20.260  0.00  0.00    +0.000 OA
ATOM      4  N   UNL     1       5.040   5.104  18.704  0.00  0.00    +0.000 N 
ATOM      5  C   UNL     1       5.183   3.936  18.036  0.00  0.00    +0.000 A 
ATOM      6  O   UNL     1       4.771   2.851  18.366  0.00  0.00    +0.000 OA
ATOM      7  C   UNL     1       5.990   4.126  16.783  0.00  0.00    +0.000 A 
ATOM      8  C   UNL     1       5.492   3.407  15.675  0.00  0.00    +0.000 A 
ATOM      9  C   UNL     1       5.652   3.966  14.432  0.00  0.00    +0.000 A 
ATOM     10  C   UNL     1       6.366   5.174  14.339  0.00  0.00    +0.000 A 
ATOM     11  C   UNL     1       7.004   5.814  15.468  0.00  0.00    +0.000 A 
ATOM     12  C   UNL     1       6.832   5.303  16.759  0.00  0.00    +0.000 A 
ENDROOT
BRANCH   1  13
ATOM     13  C   UNL     1       8.168   6.802  18.635  0.00  0.00    +0.000 C 
BRANCH  13  15
ATOM     14  N   UNL     1       9.089   9.322  19.032  0.00  0.00    +0.000 N 
ATOM     15  C   UNL     1       8.295   8.455  18.238  0.00  0.00    +0.000 C 
ATOM     16  O   UNL     1       7.760   8.836  17.182  0.00  0.00    +0.000 OA
ATOM     17  H   UNL     1       9.477   8.905  19.880  0.00  0.00    +0.000 HD
BRANCH  14  21
ATOM     18  C   UNL     1       9.974  13.626  18.354  0.00  0.00    +0.000 A 
ATOM     19  C   UNL     1      10.717  12.848  19.262  0.00  0.00    +0.000 A 
ATOM     20  C   UNL     1      10.462  11.446  19.509  0.00  0.00    +0.000 A 
ATOM     21  C   UNL     1       9.435  10.747  18.860  0.00  0.00    +0.000 A 
ATOM     22  C   UNL     1       8.672  11.542  17.971  0.00  0.00    +0.000 A 
ATOM     23  C   UNL     1       8.933  12.936  17.720  0.00  0.00    +0.000 A 
BRANCH  18  25
ATOM     24  C   UNL     1      10.873  15.867  19.312  0.00  0.00    +0.000 C 
ATOM     25  C   UNL     1      10.310  15.113  18.090  0.00  0.00    +0.000 C 
ATOM     26  C   UNL     1      11.269  15.374  16.912  0.00  0.00    +0.000 C 
ENDBRANCH  18  25
ENDBRANCH  14  21
ENDBRANCH  13  15
ENDBRANCH   1  13
BRANCH   4  27
ATOM     27  C   UNL     1       4.441   6.239  17.944  0.00  0.00    +0.000 C 
BRANCH  27  28
ATOM     28  C   UNL     1       3.091   6.686  18.451  0.00  0.00    +0.000 C 
BRANCH  28  29
ATOM     29  C   UNL     1       2.287   5.462  18.842  0.00  0.00    +0.000 A 
ATOM     30  C   UNL     1       1.806   4.579  17.866  0.00  0.00    +0.000 A 
ATOM     31  C   UNL     1       1.126   3.418  18.239  0.00  0.00    +0.000 A 
ATOM     32  C   UNL     1       0.898   3.144  19.587  0.00  0.00    +0.000 A 
ATOM     33  C   UNL     1       1.307   4.052  20.560  0.00  0.00    +0.000 A 
ATOM     34  C   UNL     1       1.988   5.213  20.190  0.00  0.00    +0.000 A 
ENDBRANCH  28  29
ENDBRANCH  27  28
ENDBRANCH   4  27
TORSDOF 7
ENDMDL
MODEL 2
REMARK VINA RESULT:     -10.2      0.594      1.173
REMARK  Name = 
REMARK  9 active torsions:
REMARK  status: ('A' for Active; 'I' for Inactive)
REMARK    1  A    between atoms: C_1  and  C_2
REMARK    2  A    between atoms: C_2  and  C_3
REMARK    3  A    between atoms: C_2  and  C_4
REMARK    4  A    between atoms: C_7  and  N_8
REMARK    5  A    between atoms: C_9  and  C_11
REMARK    6  A    between atoms: C_11  and  N_12
REMARK    7  A    between atoms: N_15  and  C_16
REMARK    8  A    between atoms: C_16  and  C_17
REMARK    9  A    between atoms: C_17  and  C_18
REMARK                            x       y       z     vdW  Elec       q    Type
REMARK                         _______ _______ _______ _____ _____    ______ ____
ROOT
ATOM      1  N   UNL     1       7.097   5.949  18.014  0.00  0.00    +0.000 N 
ATOM      2  C   UNL     1       6.256   5.421  19.013  0.00  0.00    +0.000 A 
ATOM      3  O   UNL     1       6.598   5.226  20.167  0.00  0.00    +0.000 OA
ATOM      4  N   UNL     1       4.998   5.192  18.520  0.00  0.00    +0.000 N 
ATOM      5  C   UNL     1       5.136   4.004  17.889  0.00  0.00    +0.000 A 
ATOM      6  O   UNL     1       4.669   2.942  18.221  0.00  0.00    +0.000 OA
ATOM      7  C   UNL     1       6.016   4.135  16.679  0.00  0.00    +0.000 A 
ATOM      8  C   UNL     1       5.555   3.405  15.562  0.00  0.00    +0.000 A 
ATOM      9  C   UNL     1       5.803   3.928  14.317  0.00  0.00    +0.000 A 
ATOM     10  C   UNL     1       6.563   5.108  14.236  0.00  0.00    +0.000 A 
ATOM     11  C   UNL     1       7.160   5.755  15.383  0.00  0.00    +0.000 A 
ATOM     12  C   UNL     1       6.900   5.282  16.675  0.00  0.00    +0.000 A 
ENDROOT
BRANCH   1  13
ATOM     13  C   UNL     1       8.182   6.782  18.587  0.00  0.00    +0.000 C 
BRANCH  13  15
ATOM     14  N   UNL     1       9.136   9.267  19.110  0.00  0.00    +0.000 N 
ATOM     15  C   UNL     1       8.263   8.466  18.330  0.00  0.00    +0.000 C 
ATOM     16  O   UNL     1       7.616   8.934  17.377  0.00  0.00    +0.000 OA
ATOM     17  H   UNL     1       9.615   8.779  19.869  0.00  0.00    +0.000 HD
BRANCH  14  21
ATOM     18  C   UNL     1      10.035  13.621  19.083  0.00  0.00    +0.000 A 
ATOM     19  C   UNL     1      10.226  12.815  17.945  0.00  0.00    +0.000 A 
ATOM     20  C   UNL     1       9.945  11.397  17.913  0.00  0.00    +0.000 A 
ATOM     21  C   UNL     1       9.460  10.705  19.031  0.00  0.00    +0.000 A 
ATOM     22  C   UNL     1       9.299  11.515  20.181  0.00  0.00    +0.000 A 
ATOM     23  C   UNL     1       9.572  12.928  20.209  0.00  0.00    +0.000 A 
BRANCH  18  25
ATOM     24  C   UNL     1      11.675  15.554  19.649  0.00  0.00    +0.000 C 
ATOM     25  C   UNL     1      10.310  15.143  19.060  0.00  0.00    +0.000 C 
ATOM     26  C   UNL     1      10.191  15.814  17.677  0.00  0.00    +0.000 C 
ENDBRANCH  18  25
ENDBRANCH  14  21
ENDBRANCH  13  15
ENDBRANCH   1  13
BRANCH   4  27
ATOM     27  C   UNL     1       4.481   6.328  17.702  0.00  0.00    +0.000 C 
BRANCH  27  28
ATOM     28  C   UNL     1       3.101   6.799  18.091  0.00  0.00    +0.000 C 
BRANCH  28  29
ATOM     29  C   UNL     1       2.340   5.637  18.695  0.00  0.00    +0.000 A 
ATOM     30  C   UNL     1       2.200   5.517  20.085  0.00  0.00    +0.000 A 
ATOM     31  C   UNL     1       1.439   4.481  20.630  0.00  0.00    +0.000 A 
ATOM     32  C   UNL     1       0.835   3.542  19.794  0.00  0.00    +0.000 A 
ATOM     33  C   UNL     1       1.030   3.610  18.417  0.00  0.00    +0.000 A 
ATOM     34  C   UNL     1       1.790   4.645  17.869  0.00  0.00    +0.000 A 
ENDBRANCH  28  29
ENDBRANCH  27  28
ENDBRANCH   4  27
TORSDOF 7
ENDMDL
MODEL 3
REMARK VINA RESULT:     -10.2      0.641      1.195
REMARK  Name = 
REMARK  9 active torsions:
REMARK  status: ('A' for Active; 'I' for Inactive)
REMARK    1  A    between atoms: C_1  and  C_2
REMARK    2  A    between atoms: C_2  and  C_3
REMARK    3  A    between atoms: C_2  and  C_4
REMARK    4  A    between atoms: C_7  and  N_8
REMARK    5  A    between atoms: C_9  and  C_11
REMARK    6  A    between atoms: C_11  and  N_12
REMARK    7  A    between atoms: N_15  and  C_16
REMARK    8  A    between atoms: C_16  and  C_17
REMARK    9  A    between atoms: C_17  and  C_18
REMARK                            x       y       z     vdW  Elec       q    Type
REMARK                         _______ _______ _______ _____ _____    ______ ____
ROOT
ATOM      1  N   UNL     1       7.054   5.805  17.981  0.00  0.00    +0.000 N 
ATOM      2  C   UNL     1       6.165   5.257  18.926  0.00  0.00    +0.000 A 
ATOM      3  O   UNL     1       6.454   5.025  20.087  0.00  0.00    +0.000 OA
ATOM      4  N   UNL     1       4.927   5.056  18.372  0.00  0.00    +0.000 N 
ATOM      5  C   UNL     1       5.082   3.885  17.713  0.00  0.00    +0.000 A 
ATOM      6  O   UNL     1       4.592   2.819  17.993  0.00  0.00    +0.000 OA
ATOM      7  C   UNL     1       6.016   4.042  16.547  0.00  0.00    +0.000 A 
ATOM      8  C   UNL     1       5.598   3.349  15.390  0.00  0.00    +0.000 A 
ATOM      9  C   UNL     1       5.904   3.905  14.173  0.00  0.00    +0.000 A 
ATOM     10  C   UNL     1       6.677   5.080  14.159  0.00  0.00    +0.000 A 
ATOM     11  C   UNL     1       7.229   5.687  15.350  0.00  0.00    +0.000 A 
ATOM     12  C   UNL     1       6.909   5.179  16.615  0.00  0.00    +0.000 A 
ENDROOT
BRANCH   1  13
ATOM     13  C   UNL     1       8.120   6.610  18.624  0.00  0.00    +0.000 C 
BRANCH  13  15
ATOM     14  N   UNL     1       9.051   9.081  19.244  0.00  0.00    +0.000 N 
ATOM     15  C   UNL     1       8.267   8.289  18.366  0.00  0.00    +0.000 C 
ATOM     16  O   UNL     1       7.757   8.760  17.334  0.00  0.00    +0.000 OA
ATOM     17  H   UNL     1       9.419   8.592  20.062  0.00  0.00    +0.000 HD
BRANCH  14  21
ATOM     18  C   UNL     1      10.185  13.365  18.882  0.00  0.00    +0.000 A 
ATOM     19  C   UNL     1       9.806  12.797  20.113  0.00  0.00    +0.000 A 
ATOM     20  C   UNL     1       9.433  11.409  20.273  0.00  0.00    +0.000 A 
ATOM     21  C   UNL     1       9.412  10.512  19.196  0.00  0.00    +0.000 A 
ATOM     22  C   UNL     1       9.764  11.096  17.956  0.00  0.00    +0.000 A 
ATOM     23  C   UNL     1      10.143  12.476  17.800  0.00  0.00    +0.000 A 
BRANCH  18  25
ATOM     24  C   UNL     1       9.724  15.701  17.845  0.00  0.00    +0.000 C 
ATOM     25  C   UNL     1      10.618  14.846  18.766  0.00  0.00    +0.000 C 
ATOM     26  C   UNL     1      10.749  15.601  20.103  0.00  0.00    +0.000 C 
ENDBRANCH  18  25
ENDBRANCH  14  21
ENDBRANCH  13  15
ENDBRANCH   1  13
BRANCH   4  27
ATOM     27  C   UNL     1       4.457   6.220  17.566  0.00  0.00    +0.000 C 
BRANCH  27  28
ATOM     28  C   UNL     1       3.077   6.713  17.929  0.00  0.00    +0.000 C 
BRANCH  28  29
ATOM     29  C   UNL     1       2.331   5.599  18.634  0.00  0.00    +0.000 A 
ATOM     30  C   UNL     1       2.247   5.566  20.034  0.00  0.00    +0.000 A 
ATOM     31  C   UNL     1       1.499   4.575  20.672  0.00  0.00    +0.000 A 
ATOM     32  C   UNL     1       0.852   3.594  19.921  0.00  0.00    +0.000 A 
ATOM     33  C   UNL     1       0.990   3.576  18.535  0.00  0.00    +0.000 A 
ATOM     34  C   UNL     1       1.736   4.565  17.894  0.00  0.00    +0.000 A 
ENDBRANCH  28  29
ENDBRANCH  27  28
ENDBRANCH   4  27
TORSDOF 7
ENDMDL
MODEL 4
REMARK VINA RESULT:     -10.0      0.636      1.176
REMARK  Name = 
REMARK  9 active torsions:
REMARK  status: ('A' for Active; 'I' for Inactive)
REMARK    1  A    between atoms: C_1  and  C_2
REMARK    2  A    between atoms: C_2  and  C_3
REMARK    3  A    between atoms: C_2  and  C_4
REMARK    4  A    between atoms: C_7  and  N_8
REMARK    5  A    between atoms: C_9  and  C_11
REMARK    6  A    between atoms: C_11  and  N_12
REMARK    7  A    between atoms: N_15  and  C_16
REMARK    8  A    between atoms: C_16  and  C_17
REMARK    9  A    between atoms: C_17  and  C_18
REMARK                            x       y       z     vdW  Elec       q    Type
REMARK                         _______ _______ _______ _____ _____    ______ ____
ROOT
ATOM      1  N   UNL     1       7.157   6.055  18.262  0.00  0.00    +0.000 N 
ATOM      2  C   UNL     1       6.614   5.459  19.417  0.00  0.00    +0.000 A 
ATOM      3  O   UNL     1       7.241   5.248  20.441  0.00  0.00    +0.000 OA
ATOM      4  N   UNL     1       5.282   5.184  19.244  0.00  0.00    +0.000 N 
ATOM      5  C   UNL     1       5.304   4.023  18.552  0.00  0.00    +0.000 A 
ATOM      6  O   UNL     1       4.978   2.931  18.948  0.00  0.00    +0.000 OA
ATOM      7  C   UNL     1       5.848   4.230  17.167  0.00  0.00    +0.000 A 
ATOM      8  C   UNL     1       5.151   3.510  16.172  0.00  0.00    +0.000 A 
ATOM      9  C   UNL     1       5.058   4.079  14.926  0.00  0.00    +0.000 A 
ATOM     10  C   UNL     1       5.726   5.297  14.705  0.00  0.00    +0.000 A 
ATOM     11  C   UNL     1       6.565   5.938  15.693  0.00  0.00    +0.000 A 
ATOM     12  C   UNL     1       6.656   5.417  16.988  0.00  0.00    +0.000 A 
ENDROOT
BRANCH   1  13
ATOM     13  C   UNL     1       8.317   6.922  18.578  0.00  0.00    +0.000 C 
BRANCH  13  15
ATOM     14  N   UNL     1       9.124   9.473  19.027  0.00  0.00    +0.000 N 
ATOM     15  C   UNL     1       8.306   8.598  18.265  0.00  0.00    +0.000 C 
ATOM     16  O   UNL     1       7.648   8.998  17.289  0.00  0.00    +0.000 OA
ATOM     17  H   UNL     1       9.618   9.038  19.808  0.00  0.00    +0.000 HD
BRANCH  14  21
ATOM     18  C   UNL     1       9.973  13.833  18.846  0.00  0.00    +0.000 A 
ATOM     19  C   UNL     1       9.159  13.194  17.892  0.00  0.00    +0.000 A 
ATOM     20  C   UNL     1       8.858  11.779  17.917  0.00  0.00    +0.000 A 
ATOM     21  C   UNL     1       9.367  10.924  18.903  0.00  0.00    +0.000 A 
ATOM     22  C   UNL     1      10.209  11.567  19.842  0.00  0.00    +0.000 A 
ATOM     23  C   UNL     1      10.502  12.976  19.820  0.00  0.00    +0.000 A 
BRANCH  18  25
ATOM     24  C   UNL     1       9.146  16.172  18.074  0.00  0.00    +0.000 C 
ATOM     25  C   UNL     1      10.234  15.358  18.804  0.00  0.00    +0.000 C 
ATOM     26  C   UNL     1      10.461  16.026  20.174  0.00  0.00    +0.000 C 
ENDBRANCH  18  25
ENDBRANCH  14  21
ENDBRANCH  13  15
ENDBRANCH   1  13
BRANCH   4  27
ATOM     27  C   UNL     1       4.533   6.317  18.626  0.00  0.00    +0.000 C 
BRANCH  27  28
ATOM     28  C   UNL     1       3.195   6.602  19.264  0.00  0.00    +0.000 C 
BRANCH  28  29
ATOM     29  C   UNL     1       2.356   5.341  19.224  0.00  0.00    +0.000 A 
ATOM     30  C   UNL     1       2.035   4.732  18.002  0.00  0.00    +0.000 A 
ATOM     31  C   UNL     1       1.320   3.533  17.978  0.00  0.00    +0.000 A 
ATOM     32  C   UNL     1       0.898   2.946  19.169  0.00  0.00    +0.000 A 
ATOM     33  C   UNL     1       1.149   3.581  20.384  0.00  0.00    +0.000 A 
ATOM     34  C   UNL     1       1.863   4.779  20.411  0.00  0.00    +0.000 A 
ENDBRANCH  28  29
ENDBRANCH  27  28
ENDBRANCH   4  27
TORSDOF 7
ENDMDL
MODEL 5
REMARK VINA RESULT:      -9.7      1.354      2.259
REMARK  Name = 
REMARK  9 active torsions:
REMARK  status: ('A' for Active; 'I' for Inactive)
REMARK    1  A    between atoms: C_1  and  C_2
REMARK    2  A    between atoms: C_2  and  C_3
REMARK    3  A    between atoms: C_2  and  C_4
REMARK    4  A    between atoms: C_7  and  N_8
REMARK    5  A    between atoms: C_9  and  C_11
REMARK    6  A    between atoms: C_11  and  N_12
REMARK    7  A    between atoms: N_15  and  C_16
REMARK    8  A    between atoms: C_16  and  C_17
REMARK    9  A    between atoms: C_17  and  C_18
REMARK                            x       y       z     vdW  Elec       q    Type
REMARK                         _______ _______ _______ _____ _____    ______ ____
ROOT
ATOM      1  N   UNL     1       7.064   5.920  18.115  0.00  0.00    +0.000 N 
ATOM      2  C   UNL     1       6.294   5.371  19.158  0.00  0.00    +0.000 A 
ATOM      3  O   UNL     1       6.718   5.140  20.277  0.00  0.00    +0.000 OA
ATOM      4  N   UNL     1       4.999   5.169  18.754  0.00  0.00    +0.000 N 
ATOM      5  C   UNL     1       5.077   3.998  18.082  0.00  0.00    +0.000 A 
ATOM      6  O   UNL     1       4.624   2.931  18.418  0.00  0.00    +0.000 OA
ATOM      7  C   UNL     1       5.866   4.155  16.813  0.00  0.00    +0.000 A 
ATOM      8  C   UNL     1       5.315   3.462  15.714  0.00  0.00    +0.000 A 
ATOM      9  C   UNL     1       5.475   4.018  14.469  0.00  0.00    +0.000 A 
ATOM     10  C   UNL     1       6.240   5.193  14.364  0.00  0.00    +0.000 A 
ATOM     11  C   UNL     1       6.928   5.801  15.482  0.00  0.00    +0.000 A 
ATOM     12  C   UNL     1       6.759   5.294  16.775  0.00  0.00    +0.000 A 
ENDROOT
BRANCH   1  13
ATOM     13  C   UNL     1       8.198   6.726  18.627  0.00  0.00    +0.000 C 
BRANCH  13  15
ATOM     14  N   UNL     1       9.087   9.223  19.205  0.00  0.00    +0.000 N 
ATOM     15  C   UNL     1       8.321   8.402  18.338  0.00  0.00    +0.000 C 
ATOM     16  O   UNL     1       7.812   8.845  17.293  0.00  0.00    +0.000 OA
ATOM     17  H   UNL     1       9.456   8.756  20.036  0.00  0.00    +0.000 HD
BRANCH  14  21
ATOM     18  C   UNL     1      10.194  13.529  19.190  0.00  0.00    +0.000 A 
ATOM     19  C   UNL     1       9.495  12.937  18.121  0.00  0.00    +0.000 A 
ATOM     20  C   UNL     1       9.116  11.542  18.089  0.00  0.00    +0.000 A 
ATOM     21  C   UNL     1       9.426  10.658  19.132  0.00  0.00    +0.000 A 
ATOM     22  C   UNL     1      10.156  11.252  20.189  0.00  0.00    +0.000 A 
ATOM     23  C   UNL     1      10.526  12.643  20.223  0.00  0.00    +0.000 A 
BRANCH  18  25
ATOM     24  C   UNL     1      10.082  15.806  17.946  0.00  0.00    +0.000 C 
ATOM     25  C   UNL     1      10.543  15.036  19.200  0.00  0.00    +0.000 C 
ATOM     26  C   UNL     1      10.040  15.822  20.427  0.00  0.00    +0.000 C 
ENDBRANCH  18  25
ENDBRANCH  14  21
ENDBRANCH  13  15
ENDBRANCH   1  13
BRANCH   4  27
ATOM     27  C   UNL     1       4.436   6.332  18.009  0.00  0.00    +0.000 C 
BRANCH  27  28
ATOM     28  C   UNL     1       2.944   6.267  17.786  0.00  0.00    +0.000 C 
BRANCH  28  29
ATOM     29  C   UNL     1       2.297   7.456  18.465  0.00  0.00    +0.000 A 
ATOM     30  C   UNL     1       1.961   8.604  17.733  0.00  0.00    +0.000 A 
ATOM     31  C   UNL     1       1.302   9.668  18.353  0.00  0.00    +0.000 A 
ATOM     32  C   UNL     1       0.998   9.606  19.712  0.00  0.00    +0.000 A 
ATOM     33  C   UNL     1       1.393   8.501  20.464  0.00  0.00    +0.000 A 
ATOM     34  C   UNL     1       2.052   7.436  19.847  0.00  0.00    +0.000 A 
ENDBRANCH  28  29
ENDBRANCH  27  28
ENDBRANCH   4  27
TORSDOF 7
ENDMDL
MODEL 6
REMARK VINA RESULT:      -9.7      5.410      8.842
REMARK  Name = 
REMARK  9 active torsions:
REMARK  status: ('A' for Active; 'I' for Inactive)
REMARK    1  A    between atoms: C_1  and  C_2
REMARK    2  A    between atoms: C_2  and  C_3
REMARK    3  A    between atoms: C_2  and  C_4
REMARK    4  A    between atoms: C_7  and  N_8
REMARK    5  A    between atoms: C_9  and  C_11
REMARK    6  A    between atoms: C_11  and  N_12
REMARK    7  A    between atoms: N_15  and  C_16
REMARK    8  A    between atoms: C_16  and  C_17
REMARK    9  A    between atoms: C_17  and  C_18
REMARK                            x       y       z     vdW  Elec       q    Type
REMARK                         _______ _______ _______ _____ _____    ______ ____
ROOT
ATOM      1  N   UNL     1       2.192   6.569  19.875  0.00  0.00    +0.000 N 
ATOM      2  C   UNL     1       2.217   6.658  18.470  0.00  0.00    +0.000 A 
ATOM      3  O   UNL     1       1.796   7.609  17.834  0.00  0.00    +0.000 OA
ATOM      4  N   UNL     1       2.809   5.551  17.921  0.00  0.00    +0.000 N 
ATOM      5  C   UNL     1       1.808   4.642  17.931  0.00  0.00    +0.000 A 
ATOM      6  O   UNL     1       1.218   4.196  16.977  0.00  0.00    +0.000 OA
ATOM      7  C   UNL     1       1.453   4.244  19.335  0.00  0.00    +0.000 A 
ATOM      8  C   UNL     1       1.202   2.863  19.486  0.00  0.00    +0.000 A 
ATOM      9  C   UNL     1       1.539   2.285  20.685  0.00  0.00    +0.000 A 
ATOM     10  C   UNL     1       2.037   3.118  21.703  0.00  0.00    +0.000 A 
ATOM     11  C   UNL     1       2.139   4.555  21.580  0.00  0.00    +0.000 A 
ATOM     12  C   UNL     1       1.846   5.183  20.364  0.00  0.00    +0.000 A 
ENDROOT
BRANCH   1  13
ATOM     13  C   UNL     1       2.183   7.906  20.516  0.00  0.00    +0.000 C 
BRANCH  13  15
ATOM     14  N   UNL     1       0.614  10.003  21.222  0.00  0.00    +0.000 N 
ATOM     15  C   UNL     1       0.761   8.593  21.157  0.00  0.00    +0.000 C 
ATOM     16  O   UNL     1      -0.167   7.821  21.457  0.00  0.00    +0.000 OA
ATOM     17  H   UNL     1       1.440  10.541  20.955  0.00  0.00    +0.000 HD
BRANCH  14  21
ATOM     18  C   UNL     1      -2.842  12.598  22.263  0.00  0.00    +0.000 A 
ATOM     19  C   UNL     1      -2.178  11.821  23.231  0.00  0.00    +0.000 A 
ATOM     20  C   UNL     1      -1.050  10.967  22.933  0.00  0.00    +0.000 A 
ATOM     21  C   UNL     1      -0.530  10.839  21.637  0.00  0.00    +0.000 A 
ATOM     22  C   UNL     1      -1.222  11.599  20.664  0.00  0.00    +0.000 A 
ATOM     23  C   UNL     1      -2.340  12.455  20.964  0.00  0.00    +0.000 A 
BRANCH  18  25
ATOM     24  C   UNL     1      -5.365  13.152  21.984  0.00  0.00    +0.000 C 
ATOM     25  C   UNL     1      -4.020  13.531  22.636  0.00  0.00    +0.000 C 
ATOM     26  C   UNL     1      -4.276  13.699  24.146  0.00  0.00    +0.000 C 
ENDBRANCH  18  25
ENDBRANCH  14  21
ENDBRANCH  13  15
ENDBRANCH   1  13
BRANCH   4  27
ATOM     27  C   UNL     1       4.071   5.164  18.618  0.00  0.00    +0.000 C 
BRANCH  27  28
ATOM     28  C   UNL     1       4.700   3.891  18.106  0.00  0.00    +0.000 C 
BRANCH  28  29
ATOM     29  C   UNL     1       5.489   4.207  16.851  0.00  0.00    +0.000 A 
ATOM     30  C   UNL     1       4.996   3.855  15.587  0.00  0.00    +0.000 A 
ATOM     31  C   UNL     1       5.696   4.211  14.433  0.00  0.00    +0.000 A 
ATOM     32  C   UNL     1       6.905   4.897  14.532  0.00  0.00    +0.000 A 
ATOM     33  C   UNL     1       7.439   5.187  15.785  0.00  0.00    +0.000 A 
ATOM     34  C   UNL     1       6.742   4.832  16.941  0.00  0.00    +0.000 A 
ENDBRANCH  28  29
ENDBRANCH  27  28
ENDBRANCH   4  27
TORSDOF 7
ENDMDL
MODEL 7
REMARK VINA RESULT:      -9.7      5.206      8.917
REMARK  Name = 
REMARK  9 active torsions:
REMARK  status: ('A' for Active; 'I' for Inactive)
REMARK    1  A    between atoms: C_1  and  C_2
REMARK    2  A    between atoms: C_2  and  C_3
REMARK    3  A    between atoms: C_2  and  C_4
REMARK    4  A    between atoms: C_7  and  N_8
REMARK    5  A    between atoms: C_9  and  C_11
REMARK    6  A    between atoms: C_11  and  N_12
REMARK    7  A    between atoms: N_15  and  C_16
REMARK    8  A    between atoms: C_16  and  C_17
REMARK    9  A    between atoms: C_17  and  C_18
REMARK                            x       y       z     vdW  Elec       q    Type
REMARK                         _______ _______ _______ _____ _____    ______ ____
ROOT
ATOM      1  N   UNL     1       2.225   6.472  19.769  0.00  0.00    +0.000 N 
ATOM      2  C   UNL     1       2.228   6.537  18.362  0.00  0.00    +0.000 A 
ATOM      3  O   UNL     1       1.821   7.487  17.716  0.00  0.00    +0.000 OA
ATOM      4  N   UNL     1       2.785   5.406  17.823  0.00  0.00    +0.000 N 
ATOM      5  C   UNL     1       1.762   4.522  17.864  0.00  0.00    +0.000 A 
ATOM      6  O   UNL     1       1.145   4.076  16.928  0.00  0.00    +0.000 OA
ATOM      7  C   UNL     1       1.420   4.158  19.280  0.00  0.00    +0.000 A 
ATOM      8  C   UNL     1       1.137   2.786  19.459  0.00  0.00    +0.000 A 
ATOM      9  C   UNL     1       1.480   2.220  20.662  0.00  0.00    +0.000 A 
ATOM     10  C   UNL     1       2.014   3.058  21.657  0.00  0.00    +0.000 A 
ATOM     11  C   UNL     1       2.149   4.490  21.509  0.00  0.00    +0.000 A 
ATOM     12  C   UNL     1       1.853   5.104  20.287  0.00  0.00    +0.000 A 
ENDROOT
BRANCH   1  13
ATOM     13  C   UNL     1       2.259   7.820  20.386  0.00  0.00    +0.000 C 
BRANCH  13  15
ATOM     14  N   UNL     1       0.697   9.947  21.013  0.00  0.00    +0.000 N 
ATOM     15  C   UNL     1       0.870   8.540  21.064  0.00  0.00    +0.000 C 
ATOM     16  O   UNL     1      -0.017   7.784  21.499  0.00  0.00    +0.000 OA
ATOM     17  H   UNL     1       1.491  10.471  20.640  0.00  0.00    +0.000 HD
BRANCH  14  21
ATOM     18  C   UNL     1      -2.690  12.423  22.485  0.00  0.00    +0.000 A 
ATOM     19  C   UNL     1      -2.265  12.466  21.144  0.00  0.00    +0.000 A 
ATOM     20  C   UNL     1      -1.170  11.676  20.626  0.00  0.00    +0.000 A 
ATOM     21  C   UNL     1      -0.432  10.800  21.434  0.00  0.00    +0.000 A 
ATOM     22  C   UNL     1      -0.844  10.784  22.788  0.00  0.00    +0.000 A 
ATOM     23  C   UNL     1      -1.940  11.565  23.300  0.00  0.00    +0.000 A 
BRANCH  18  25
ATOM     24  C   UNL     1      -5.111  13.251  22.039  0.00  0.00    +0.000 C 
ATOM     25  C   UNL     1      -3.894  13.255  22.986  0.00  0.00    +0.000 C 
ATOM     26  C   UNL     1      -4.410  12.889  24.391  0.00  0.00    +0.000 C 
ENDBRANCH  18  25
ENDBRANCH  14  21
ENDBRANCH  13  15
ENDBRANCH   1  13
BRANCH   4  27
ATOM     27  C   UNL     1       4.047   5.000  18.506  0.00  0.00    +0.000 C 
BRANCH  27  28
ATOM     28  C   UNL     1       5.218   4.784  17.577  0.00  0.00    +0.000 C 
BRANCH  28  29
ATOM     29  C   UNL     1       6.284   5.815  17.888  0.00  0.00    +0.000 A 
ATOM     30  C   UNL     1       7.215   5.597  18.913  0.00  0.00    +0.000 A 
ATOM     31  C   UNL     1       8.236   6.520  19.146  0.00  0.00    +0.000 A 
ATOM     32  C   UNL     1       8.319   7.680  18.378  0.00  0.00    +0.000 A 
ATOM     33  C   UNL     1       7.356   7.941  17.406  0.00  0.00    +0.000 A 
ATOM     34  C   UNL     1       6.335   7.020  17.170  0.00  0.00    +0.000 A 
ENDBRANCH  28  29
ENDBRANCH  27  28
ENDBRANCH   4  27
TORSDOF 7
ENDMDL
MODEL 8
REMARK VINA RESULT:      -9.6      1.398      2.223
REMARK  Name = 
REMARK  9 active torsions:
REMARK  status: ('A' for Active; 'I' for Inactive)
REMARK    1  A    between atoms: C_1  and  C_2
REMARK    2  A    between atoms: C_2  and  C_3
REMARK    3  A    between atoms: C_2  and  C_4
REMARK    4  A    between atoms: C_7  and  N_8
REMARK    5  A    between atoms: C_9  and  C_11
REMARK    6  A    between atoms: C_11  and  N_12
REMARK    7  A    between atoms: N_15  and  C_16
REMARK    8  A    between atoms: C_16  and  C_17
REMARK    9  A    between atoms: C_17  and  C_18
REMARK                            x       y       z     vdW  Elec       q    Type
REMARK                         _______ _______ _______ _____ _____    ______ ____
ROOT
ATOM      1  N   UNL     1       7.112   5.982  18.140  0.00  0.00    +0.000 N 
ATOM      2  C   UNL     1       6.378   5.449  19.218  0.00  0.00    +0.000 A 
ATOM      3  O   UNL     1       6.841   5.229  20.323  0.00  0.00    +0.000 OA
ATOM      4  N   UNL     1       5.069   5.247  18.863  0.00  0.00    +0.000 N 
ATOM      5  C   UNL     1       5.118   4.068  18.202  0.00  0.00    +0.000 A 
ATOM      6  O   UNL     1       4.673   3.007  18.567  0.00  0.00    +0.000 OA
ATOM      7  C   UNL     1       5.861   4.207  16.904  0.00  0.00    +0.000 A 
ATOM      8  C   UNL     1       5.268   3.504  15.834  0.00  0.00    +0.000 A 
ATOM      9  C   UNL     1       5.385   4.044  14.578  0.00  0.00    +0.000 A 
ATOM     10  C   UNL     1       6.150   5.215  14.431  0.00  0.00    +0.000 A 
ATOM     11  C   UNL     1       6.880   5.833  15.516  0.00  0.00    +0.000 A 
ATOM     12  C   UNL     1       6.757   5.341  16.820  0.00  0.00    +0.000 A 
ENDROOT
BRANCH   1  13
ATOM     13  C   UNL     1       8.267   6.790  18.602  0.00  0.00    +0.000 C 
BRANCH  13  15
ATOM     14  N   UNL     1       9.163   9.285  19.175  0.00  0.00    +0.000 N 
ATOM     15  C   UNL     1       8.361   8.471  18.334  0.00  0.00    +0.000 C 
ATOM     16  O   UNL     1       7.795   8.926  17.324  0.00  0.00    +0.000 OA
ATOM     17  H   UNL     1       9.577   8.808  19.978  0.00  0.00    +0.000 HD
BRANCH  14  21
ATOM     18  C   UNL     1      10.213  13.585  18.765  0.00  0.00    +0.000 A 
ATOM     19  C   UNL     1       9.687  13.059  19.960  0.00  0.00    +0.000 A 
ATOM     20  C   UNL     1       9.335  11.667  20.134  0.00  0.00    +0.000 A 
ATOM     21  C   UNL     1       9.486  10.724  19.108  0.00  0.00    +0.000 A 
ATOM     22  C   UNL     1       9.985  11.266  17.899  0.00  0.00    +0.000 A 
ATOM     23  C   UNL     1      10.343  12.650  17.731  0.00  0.00    +0.000 A 
BRANCH  18  25
ATOM     24  C   UNL     1       9.684  15.912  17.737  0.00  0.00    +0.000 C 
ATOM     25  C   UNL     1      10.615  15.074  18.638  0.00  0.00    +0.000 C 
ATOM     26  C   UNL     1      10.763  15.834  19.971  0.00  0.00    +0.000 C 
ENDBRANCH  18  25
ENDBRANCH  14  21
ENDBRANCH  13  15
ENDBRANCH   1  13
BRANCH   4  27
ATOM     27  C   UNL     1       4.484   6.404  18.125  0.00  0.00    +0.000 C 
BRANCH  27  28
ATOM     28  C   UNL     1       3.003   6.287  17.856  0.00  0.00    +0.000 C 
BRANCH  28  29
ATOM     29  C   UNL     1       2.288   7.423  18.558  0.00  0.00    +0.000 A 
ATOM     30  C   UNL     1       1.996   7.350  19.927  0.00  0.00    +0.000 A 
ATOM     31  C   UNL     1       1.399   8.431  20.579  0.00  0.00    +0.000 A 
ATOM     32  C   UNL     1       1.064   9.580  19.866  0.00  0.00    +0.000 A 
ATOM     33  C   UNL     1       1.283   9.634  18.492  0.00  0.00    +0.000 A 
ATOM     34  C   UNL     1       1.880   8.556  17.837  0.00  0.00    +0.000 A 
ENDBRANCH  28  29
ENDBRANCH  27  28
ENDBRANCH   4  27
TORSDOF 7
ENDMDL
MODEL 9
REMARK VINA RESULT:      -9.6      5.483      8.802
REMARK  Name = 
REMARK  9 active torsions:
REMARK  status: ('A' for Active; 'I' for Inactive)
REMARK    1  A    between atoms: C_1  and  C_2
REMARK    2  A    between atoms: C_2  and  C_3
REMARK    3  A    between atoms: C_2  and  C_4
REMARK    4  A    between atoms: C_7  and  N_8
REMARK    5  A    between atoms: C_9  and  C_11
REMARK    6  A    between atoms: C_11  and  N_12
REMARK    7  A    between atoms: N_15  and  C_16
REMARK    8  A    between atoms: C_16  and  C_17
REMARK    9  A    between atoms: C_17  and  C_18
REMARK                            x       y       z     vdW  Elec       q    Type
REMARK                         _______ _______ _______ _____ _____    ______ ____
ROOT
ATOM      1  N   UNL     1       2.205   6.606  19.872  0.00  0.00    +0.000 N 
ATOM      2  C   UNL     1       2.235   6.699  18.467  0.00  0.00    +0.000 A 
ATOM      3  O   UNL     1       1.810   7.648  17.832  0.00  0.00    +0.000 OA
ATOM      4  N   UNL     1       2.837   5.597  17.918  0.00  0.00    +0.000 N 
ATOM      5  C   UNL     1       1.843   4.681  17.921  0.00  0.00    +0.000 A 
ATOM      6  O   UNL     1       1.259   4.234  16.964  0.00  0.00    +0.000 OA
ATOM      7  C   UNL     1       1.484   4.277  19.322  0.00  0.00    +0.000 A 
ATOM      8  C   UNL     1       1.242   2.894  19.469  0.00  0.00    +0.000 A 
ATOM      9  C   UNL     1       1.578   2.315  20.668  0.00  0.00    +0.000 A 
ATOM     10  C   UNL     1       2.066   3.149  21.690  0.00  0.00    +0.000 A 
ATOM     11  C   UNL     1       2.158   4.587  21.571  0.00  0.00    +0.000 A 
ATOM     12  C   UNL     1       1.866   5.216  20.356  0.00  0.00    +0.000 A 
ENDROOT
BRANCH   1  13
ATOM     13  C   UNL     1       2.184   7.941  20.516  0.00  0.00    +0.000 C 
BRANCH  13  15
ATOM     14  N   UNL     1       0.600  10.054  21.133  0.00  0.00    +0.000 N 
ATOM     15  C   UNL     1       0.743   8.643  21.097  0.00  0.00    +0.000 C 
ATOM     16  O   UNL     1      -0.196   7.879  21.379  0.00  0.00    +0.000 OA
ATOM     17  H   UNL     1       1.437  10.585  20.885  0.00  0.00    +0.000 HD
BRANCH  14  21
ATOM     18  C   UNL     1      -2.863  12.521  22.435  0.00  0.00    +0.000 A 
ATOM     19  C   UNL     1      -2.412  12.517  21.101  0.00  0.00    +0.000 A 
ATOM     20  C   UNL     1      -1.292  11.728  20.638  0.00  0.00    +0.000 A 
ATOM     21  C   UNL     1      -0.554  10.901  21.496  0.00  0.00    +0.000 A 
ATOM     22  C   UNL     1      -0.993  10.933  22.842  0.00  0.00    +0.000 A 
ATOM     23  C   UNL     1      -2.113  11.713  23.299  0.00  0.00    +0.000 A 
BRANCH  18  25
ATOM     24  C   UNL     1      -3.764  14.785  23.334  0.00  0.00    +0.000 C 
ATOM     25  C   UNL     1      -4.093  13.349  22.877  0.00  0.00    +0.000 C 
ATOM     26  C   UNL     1      -5.228  13.450  21.839  0.00  0.00    +0.000 C 
ENDBRANCH  18  25
ENDBRANCH  14  21
ENDBRANCH  13  15
ENDBRANCH   1  13
BRANCH   4  27
ATOM     27  C   UNL     1       4.098   5.216  18.619  0.00  0.00    +0.000 C 
BRANCH  27  28
ATOM     28  C   UNL     1       4.715   3.926  18.136  0.00  0.00    +0.000 C 
BRANCH  28  29
ATOM     29  C   UNL     1       5.495   4.202  16.867  0.00  0.00    +0.000 A 
ATOM     30  C   UNL     1       4.918   3.980  15.608  0.00  0.00    +0.000 A 
ATOM     31  C   UNL     1       5.619   4.303  14.445  0.00  0.00    +0.000 A 
ATOM     32  C   UNL     1       6.910   4.823  14.527  0.00  0.00    +0.000 A 
ATOM     33  C   UNL     1       7.519   4.977  15.770  0.00  0.00    +0.000 A 
ATOM     34  C   UNL     1       6.821   4.656  16.935  0.00  0.00    +0.000 A 
ENDBRANCH  28  29
ENDBRANCH  27  28
ENDBRANCH   4  27
TORSDOF 7
ENDMDL
