MODEL 1
REMARK VINA RESULT:      -7.8      0.000      0.000
REMARK  Name = 
REMARK  3 active torsions:
REMARK  status: ('A' for Active; 'I' for Inactive)
REMARK    1  A    between atoms: C_1  and  C_2
REMARK    2  A    between atoms: C_5  and  C_6
REMARK    3  A    between atoms: N_10  and  C_11
REMARK                            x       y       z     vdW  Elec       q    Type
REMARK                         _______ _______ _______ _____ _____    ______ ____
ROOT
ATOM      1  C   UNL     1       3.066   6.716  18.103  0.00  0.00    +0.000 C 
ATOM      2  N   UNL     1       4.082   7.088  17.387  0.00  0.00    +0.000 NA
ATOM      3  N   UNL     1       4.793   6.135  16.656  0.00  0.00    +0.000 NA
ATOM      4  C   UNL     1       4.928   4.900  17.035  0.00  0.00    +0.000 C 
ATOM      5  N   UNL     1       5.673   3.953  16.380  0.00  0.00    +0.000 N 
ATOM      6  S   UNL     1       4.133   4.259  18.457  0.00  0.00    +0.000 S 
ATOM      7  C   UNL     1       2.655   5.278  18.283  0.00  0.00    +0.000 C 
ATOM      8  H   UNL     1       5.896   3.111  16.892  0.00  0.00    +0.000 HD
ENDROOT
BRANCH   1  13
ATOM      9  C   UNL     1      -0.365  10.606  20.672  0.00  0.00    +0.000 C 
ATOM     10  C   UNL     1       0.584   9.644  20.021  0.00  0.00    +0.000 A 
ATOM     11  C   UNL     1       0.937   9.793  18.676  0.00  0.00    +0.000 A 
ATOM     12  C   UNL     1       1.768   8.858  18.057  0.00  0.00    +0.000 A 
ATOM     13  C   UNL     1       2.244   7.759  18.776  0.00  0.00    +0.000 A 
ATOM     14  C   UNL     1       1.944   7.635  20.137  0.00  0.00    +0.000 A 
ATOM     15  C   UNL     1       1.111   8.573  20.754  0.00  0.00    +0.000 A 
ENDBRANCH   1  13
BRANCH   5  16
ATOM     16  C   UNL     1       6.168   4.059  15.071  0.00  0.00    +0.000 A 
ATOM     17  C   UNL     1       7.270   4.883  14.804  0.00  0.00    +0.000 A 
ATOM     18  C   UNL     1       7.711   5.083  13.495  0.00  0.00    +0.000 A 
ATOM     19  C   UNL     1       7.055   4.458  12.442  0.00  0.00    +0.000 A 
ATOM     20  F   UNL     1       7.465   4.665  11.185  0.00  0.00    +0.000 F 
ATOM     21  C   UNL     1       5.968   3.630  12.677  0.00  0.00    +0.000 A 
ATOM     22  C   UNL     1       5.525   3.441  13.986  0.00  0.00    +0.000 A 
ENDBRANCH   5  16
TORSDOF 2
ENDMDL
MODEL 2
REMARK VINA RESULT:      -7.7      0.162      1.067
REMARK  Name = 
REMARK  3 active torsions:
REMARK  status: ('A' for Active; 'I' for Inactive)
REMARK    1  A    between atoms: C_1  and  C_2
REMARK    2  A    between atoms: C_5  and  C_6
REMARK    3  A    between atoms: N_10  and  C_11
REMARK                            x       y       z     vdW  Elec       q    Type
REMARK                         _______ _______ _______ _____ _____    ______ ____
ROOT
ATOM      1  C   UNL     1       3.138   6.670  18.157  0.00  0.00    +0.000 C 
ATOM      2  N   UNL     1       4.101   7.081  17.390  0.00  0.00    +0.000 NA
ATOM      3  N   UNL     1       4.844   6.150  16.664  0.00  0.00    +0.000 NA
ATOM      4  C   UNL     1       5.074   4.940  17.079  0.00  0.00    +0.000 C 
ATOM      5  N   UNL     1       5.855   4.020  16.428  0.00  0.00    +0.000 N 
ATOM      6  S   UNL     1       4.376   4.301  18.552  0.00  0.00    +0.000 S 
ATOM      7  C   UNL     1       2.829   5.217  18.401  0.00  0.00    +0.000 C 
ATOM      8  H   UNL     1       6.151   3.214  16.959  0.00  0.00    +0.000 HD
ENDROOT
BRANCH   1  13
ATOM      9  C   UNL     1       0.020  10.763  20.810  0.00  0.00    +0.000 C 
ATOM     10  C   UNL     1       0.764   9.664  20.111  0.00  0.00    +0.000 A 
ATOM     11  C   UNL     1       1.180   8.528  20.812  0.00  0.00    +0.000 A 
ATOM     12  C   UNL     1       1.928   7.538  20.172  0.00  0.00    +0.000 A 
ATOM     13  C   UNL     1       2.275   7.683  18.827  0.00  0.00    +0.000 A 
ATOM     14  C   UNL     1       1.811   8.786  18.103  0.00  0.00    +0.000 A 
ATOM     15  C   UNL     1       1.063   9.775  18.747  0.00  0.00    +0.000 A 
ENDBRANCH   1  13
BRANCH   5  16
ATOM     16  C   UNL     1       6.294   4.110  15.098  0.00  0.00    +0.000 A 
ATOM     17  C   UNL     1       7.372   4.944  14.772  0.00  0.00    +0.000 A 
ATOM     18  C   UNL     1       7.755   5.128  13.441  0.00  0.00    +0.000 A 
ATOM     19  C   UNL     1       7.065   4.476  12.428  0.00  0.00    +0.000 A 
ATOM     20  F   UNL     1       7.419   4.667  11.151  0.00  0.00    +0.000 F 
ATOM     21  C   UNL     1       6.000   3.638  12.721  0.00  0.00    +0.000 A 
ATOM     22  C   UNL     1       5.615   3.466  14.051  0.00  0.00    +0.000 A 
ENDBRANCH   5  16
TORSDOF 2
ENDMDL
MODEL 3
REMARK VINA RESULT:      -7.6      0.178      1.066
REMARK  Name = 
REMARK  3 active torsions:
REMARK  status: ('A' for Active; 'I' for Inactive)
REMARK    1  A    between atoms: C_1  and  C_2
REMARK    2  A    between atoms: C_5  and  C_6
REMARK    3  A    between atoms: N_10  and  C_11
REMARK                            x       y       z     vdW  Elec       q    Type
REMARK                         _______ _______ _______ _____ _____    ______ ____
ROOT
ATOM      1  C   UNL     1       3.015   6.807  18.169  0.00  0.00    +0.000 C 
ATOM      2  N   UNL     1       3.993   7.211  17.418  0.00  0.00    +0.000 NA
ATOM      3  N   UNL     1       4.696   6.282  16.650  0.00  0.00    +0.000 NA
ATOM      4  C   UNL     1       4.875   5.047  17.010  0.00  0.00    +0.000 C 
ATOM      5  N   UNL     1       5.616   4.124  16.316  0.00  0.00    +0.000 N 
ATOM      6  S   UNL     1       4.152   4.373  18.455  0.00  0.00    +0.000 S 
ATOM      7  C   UNL     1       2.645   5.359  18.349  0.00  0.00    +0.000 C 
ATOM      8  H   UNL     1       5.878   3.283  16.810  0.00  0.00    +0.000 HD
ENDROOT
BRANCH   1  13
ATOM      9  C   UNL     1      -0.406  10.598  20.897  0.00  0.00    +0.000 C 
ATOM     10  C   UNL     1       0.540   9.660  20.206  0.00  0.00    +0.000 A 
ATOM     11  C   UNL     1       0.897   9.866  18.870  0.00  0.00    +0.000 A 
ATOM     12  C   UNL     1       1.726   8.956  18.213  0.00  0.00    +0.000 A 
ATOM     13  C   UNL     1       2.195   7.824  18.885  0.00  0.00    +0.000 A 
ATOM     14  C   UNL     1       1.892   7.643  20.239  0.00  0.00    +0.000 A 
ATOM     15  C   UNL     1       1.062   8.557  20.893  0.00  0.00    +0.000 A 
ENDBRANCH   1  13
BRANCH   5  16
ATOM     16  C   UNL     1       6.057   4.255  14.991  0.00  0.00    +0.000 A 
ATOM     17  C   UNL     1       5.404   3.558  13.964  0.00  0.00    +0.000 A 
ATOM     18  C   UNL     1       5.893   3.591  12.656  0.00  0.00    +0.000 A 
ATOM     19  C   UNL     1       7.035   4.325  12.365  0.00  0.00    +0.000 A 
ATOM     20  F   UNL     1       7.514   4.342  11.114  0.00  0.00    +0.000 F 
ATOM     21  C   UNL     1       7.696   5.031  13.357  0.00  0.00    +0.000 A 
ATOM     22  C   UNL     1       7.210   4.986  14.664  0.00  0.00    +0.000 A 
ENDBRANCH   5  16
TORSDOF 2
ENDMDL
MODEL 4
REMARK VINA RESULT:      -7.5      0.372      1.530
REMARK  Name = 
REMARK  3 active torsions:
REMARK  status: ('A' for Active; 'I' for Inactive)
REMARK    1  A    between atoms: C_1  and  C_2
REMARK    2  A    between atoms: C_5  and  C_6
REMARK    3  A    between atoms: N_10  and  C_11
REMARK                            x       y       z     vdW  Elec       q    Type
REMARK                         _______ _______ _______ _____ _____    ______ ____
ROOT
ATOM      1  C   UNL     1       3.112   6.788  18.373  0.00  0.00    +0.000 C 
ATOM      2  N   UNL     1       3.956   7.252  17.503  0.00  0.00    +0.000 NA
ATOM      3  N   UNL     1       4.737   6.363  16.763  0.00  0.00    +0.000 NA
ATOM      4  C   UNL     1       5.135   5.212  17.218  0.00  0.00    +0.000 C 
ATOM      5  N   UNL     1       5.957   4.343  16.549  0.00  0.00    +0.000 N 
ATOM      6  S   UNL     1       4.636   4.594  18.778  0.00  0.00    +0.000 S 
ATOM      7  C   UNL     1       2.989   5.328  18.718  0.00  0.00    +0.000 C 
ATOM      8  H   UNL     1       6.384   3.607  17.093  0.00  0.00    +0.000 HD
ENDROOT
BRANCH   1  13
ATOM      9  C   UNL     1      -0.206  10.655  21.120  0.00  0.00    +0.000 C 
ATOM     10  C   UNL     1       0.591   9.613  20.392  0.00  0.00    +0.000 A 
ATOM     11  C   UNL     1       1.021   8.457  21.051  0.00  0.00    +0.000 A 
ATOM     12  C   UNL     1       1.817   7.521  20.388  0.00  0.00    +0.000 A 
ATOM     13  C   UNL     1       2.199   7.741  19.062  0.00  0.00    +0.000 A 
ATOM     14  C   UNL     1       1.723   8.865  18.378  0.00  0.00    +0.000 A 
ATOM     15  C   UNL     1       0.926   9.799  19.045  0.00  0.00    +0.000 A 
ENDBRANCH   1  13
BRANCH   5  16
ATOM     16  C   UNL     1       6.272   4.398  15.182  0.00  0.00    +0.000 A 
ATOM     17  C   UNL     1       5.540   3.632  14.264  0.00  0.00    +0.000 A 
ATOM     18  C   UNL     1       5.905   3.592  12.917  0.00  0.00    +0.000 A 
ATOM     19  C   UNL     1       7.003   4.320  12.478  0.00  0.00    +0.000 A 
ATOM     20  F   UNL     1       7.365   4.267  11.189  0.00  0.00    +0.000 F 
ATOM     21  C   UNL     1       7.741   5.093  13.361  0.00  0.00    +0.000 A 
ATOM     22  C   UNL     1       7.378   5.122  14.708  0.00  0.00    +0.000 A 
ENDBRANCH   5  16
TORSDOF 2
ENDMDL
MODEL 5
REMARK VINA RESULT:      -7.3      0.937      1.489
REMARK  Name = 
REMARK  3 active torsions:
REMARK  status: ('A' for Active; 'I' for Inactive)
REMARK    1  A    between atoms: C_1  and  C_2
REMARK    2  A    between atoms: C_5  and  C_6
REMARK    3  A    between atoms: N_10  and  C_11
REMARK                            x       y       z     vdW  Elec       q    Type
REMARK                         _______ _______ _______ _____ _____    ______ ____
ROOT
ATOM      1  C   UNL     1       2.636   7.416  18.532  0.00  0.00    +0.000 C 
ATOM      2  N   UNL     1       3.519   7.729  17.634  0.00  0.00    +0.000 NA
ATOM      3  N   UNL     1       4.352   6.736  17.116  0.00  0.00    +0.000 NA
ATOM      4  C   UNL     1       4.741   5.702  17.800  0.00  0.00    +0.000 C 
ATOM      5  N   UNL     1       5.611   4.742  17.349  0.00  0.00    +0.000 N 
ATOM      6  S   UNL     1       4.167   5.374  19.421  0.00  0.00    +0.000 S 
ATOM      7  C   UNL     1       2.515   6.044  19.139  0.00  0.00    +0.000 C 
ATOM      8  H   UNL     1       6.018   4.132  18.043  0.00  0.00    +0.000 HD
ENDROOT
BRANCH   1  13
ATOM      9  C   UNL     1      -0.884  11.652  20.312  0.00  0.00    +0.000 C 
ATOM     10  C   UNL     1      -0.033  10.509  19.843  0.00  0.00    +0.000 A 
ATOM     11  C   UNL     1       0.433   9.552  20.749  0.00  0.00    +0.000 A 
ATOM     12  C   UNL     1       1.278   8.527  20.321  0.00  0.00    +0.000 A 
ATOM     13  C   UNL     1       1.673   8.459  18.982  0.00  0.00    +0.000 A 
ATOM     14  C   UNL     1       1.163   9.378  18.058  0.00  0.00    +0.000 A 
ATOM     15  C   UNL     1       0.317  10.402  18.491  0.00  0.00    +0.000 A 
ENDBRANCH   1  13
BRANCH   5  16
ATOM     16  C   UNL     1       5.999   4.548  16.015  0.00  0.00    +0.000 A 
ATOM     17  C   UNL     1       7.215   5.073  15.556  0.00  0.00    +0.000 A 
ATOM     18  C   UNL     1       7.569   4.981  14.208  0.00  0.00    +0.000 A 
ATOM     19  C   UNL     1       6.711   4.360  13.310  0.00  0.00    +0.000 A 
ATOM     20  F   UNL     1       7.041   4.288  12.014  0.00  0.00    +0.000 F 
ATOM     21  C   UNL     1       5.506   3.824  13.736  0.00  0.00    +0.000 A 
ATOM     22  C   UNL     1       5.152   3.927  15.082  0.00  0.00    +0.000 A 
ENDBRANCH   5  16
TORSDOF 2
ENDMDL
MODEL 6
REMARK VINA RESULT:      -6.8      3.843      8.728
REMARK  Name = 
REMARK  3 active torsions:
REMARK  status: ('A' for Active; 'I' for Inactive)
REMARK    1  A    between atoms: C_1  and  C_2
REMARK    2  A    between atoms: C_5  and  C_6
REMARK    3  A    between atoms: N_10  and  C_11
REMARK                            x       y       z     vdW  Elec       q    Type
REMARK                         _______ _______ _______ _____ _____    ______ ____
ROOT
ATOM      1  C   UNL     1       3.685   5.968  18.231  0.00  0.00    +0.000 C 
ATOM      2  N   UNL     1       2.763   6.854  18.012  0.00  0.00    +0.000 NA
ATOM      3  N   UNL     1       2.093   7.430  19.093  0.00  0.00    +0.000 NA
ATOM      4  C   UNL     1       1.872   6.805  20.210  0.00  0.00    +0.000 C 
ATOM      5  N   UNL     1       1.161   7.311  21.268  0.00  0.00    +0.000 N 
ATOM      6  S   UNL     1       2.493   5.199  20.531  0.00  0.00    +0.000 S 
ATOM      7  C   UNL     1       4.020   5.434  19.599  0.00  0.00    +0.000 C 
ATOM      8  H   UNL     1       0.854   6.654  21.970  0.00  0.00    +0.000 HD
ENDROOT
BRANCH   1  13
ATOM      9  C   UNL     1       6.513   3.982  13.587  0.00  0.00    +0.000 C 
ATOM     10  C   UNL     1       5.846   4.496  14.829  0.00  0.00    +0.000 A 
ATOM     11  C   UNL     1       5.386   3.609  15.807  0.00  0.00    +0.000 A 
ATOM     12  C   UNL     1       4.708   4.087  16.930  0.00  0.00    +0.000 A 
ATOM     13  C   UNL     1       4.476   5.457  17.077  0.00  0.00    +0.000 A 
ATOM     14  C   UNL     1       4.985   6.355  16.133  0.00  0.00    +0.000 A 
ATOM     15  C   UNL     1       5.663   5.872  15.010  0.00  0.00    +0.000 A 
ENDBRANCH   1  13
BRANCH   5  16
ATOM     16  C   UNL     1       0.805   8.657  21.448  0.00  0.00    +0.000 A 
ATOM     17  C   UNL     1       0.094   9.045  22.592  0.00  0.00    +0.000 A 
ATOM     18  C   UNL     1      -0.360  10.358  22.739  0.00  0.00    +0.000 A 
ATOM     19  C   UNL     1      -0.104  11.292  21.745  0.00  0.00    +0.000 A 
ATOM     20  F   UNL     1      -0.555  12.546  21.876  0.00  0.00    +0.000 F 
ATOM     21  C   UNL     1       0.604  10.939  20.606  0.00  0.00    +0.000 A 
ATOM     22  C   UNL     1       1.047   9.624  20.459  0.00  0.00    +0.000 A 
ENDBRANCH   5  16
TORSDOF 2
ENDMDL
MODEL 7
REMARK VINA RESULT:      -6.7      4.344      5.998
REMARK  Name = 
REMARK  3 active torsions:
REMARK  status: ('A' for Active; 'I' for Inactive)
REMARK    1  A    between atoms: C_1  and  C_2
REMARK    2  A    between atoms: C_5  and  C_6
REMARK    3  A    between atoms: N_10  and  C_11
REMARK                            x       y       z     vdW  Elec       q    Type
REMARK                         _______ _______ _______ _____ _____    ______ ____
ROOT
ATOM      1  C   UNL     1       0.786  10.292  19.768  0.00  0.00    +0.000 C 
ATOM      2  N   UNL     1       1.549   9.593  18.986  0.00  0.00    +0.000 NA
ATOM      3  N   UNL     1       1.736   8.234  19.245  0.00  0.00    +0.000 NA
ATOM      4  C   UNL     1       1.718   7.726  20.441  0.00  0.00    +0.000 C 
ATOM      5  N   UNL     1       1.963   6.411  20.741  0.00  0.00    +0.000 N 
ATOM      6  S   UNL     1       1.340   8.677  21.861  0.00  0.00    +0.000 S 
ATOM      7  C   UNL     1       0.156   9.748  21.022  0.00  0.00    +0.000 C 
ATOM      8  H   UNL     1       2.157   6.191  21.707  0.00  0.00    +0.000 HD
ENDROOT
BRANCH   1  13
ATOM      9  C   UNL     1      -0.218  15.876  18.617  0.00  0.00    +0.000 C 
ATOM     10  C   UNL     1       0.011  14.411  18.848  0.00  0.00    +0.000 A 
ATOM     11  C   UNL     1      -0.993  13.614  19.406  0.00  0.00    +0.000 A 
ATOM     12  C   UNL     1      -0.754  12.266  19.679  0.00  0.00    +0.000 A 
ATOM     13  C   UNL     1       0.497  11.708  19.407  0.00  0.00    +0.000 A 
ATOM     14  C   UNL     1       1.487  12.484  18.793  0.00  0.00    +0.000 A 
ATOM     15  C   UNL     1       1.244  13.832  18.521  0.00  0.00    +0.000 A 
ENDBRANCH   1  13
BRANCH   5  16
ATOM     16  C   UNL     1       1.989   5.350  19.823  0.00  0.00    +0.000 A 
ATOM     17  C   UNL     1       1.138   4.250  20.000  0.00  0.00    +0.000 A 
ATOM     18  C   UNL     1       1.223   3.139  19.158  0.00  0.00    +0.000 A 
ATOM     19  C   UNL     1       2.157   3.121  18.131  0.00  0.00    +0.000 A 
ATOM     20  F   UNL     1       2.252   2.048  17.336  0.00  0.00    +0.000 F 
ATOM     21  C   UNL     1       3.006   4.198  17.926  0.00  0.00    +0.000 A 
ATOM     22  C   UNL     1       2.924   5.302  18.775  0.00  0.00    +0.000 A 
ENDBRANCH   5  16
TORSDOF 2
ENDMDL
MODEL 8
REMARK VINA RESULT:      -6.7      1.247      1.582
REMARK  Name = 
REMARK  3 active torsions:
REMARK  status: ('A' for Active; 'I' for Inactive)
REMARK    1  A    between atoms: C_1  and  C_2
REMARK    2  A    between atoms: C_5  and  C_6
REMARK    3  A    between atoms: N_10  and  C_11
REMARK                            x       y       z     vdW  Elec       q    Type
REMARK                         _______ _______ _______ _____ _____    ______ ____
ROOT
ATOM      1  C   UNL     1       2.451   7.110  19.435  0.00  0.00    +0.000 C 
ATOM      2  N   UNL     1       3.518   7.447  18.778  0.00  0.00    +0.000 NA
ATOM      3  N   UNL     1       4.250   6.466  18.109  0.00  0.00    +0.000 NA
ATOM      4  C   UNL     1       4.333   5.234  18.517  0.00  0.00    +0.000 C 
ATOM      5  N   UNL     1       5.095   4.259  17.926  0.00  0.00    +0.000 N 
ATOM      6  S   UNL     1       3.436   4.637  19.896  0.00  0.00    +0.000 S 
ATOM      7  C   UNL     1       1.996   5.686  19.612  0.00  0.00    +0.000 C 
ATOM      8  H   UNL     1       5.265   3.423  18.465  0.00  0.00    +0.000 HD
ENDROOT
BRANCH   1  13
ATOM      9  C   UNL     1      -1.044  11.124  21.712  0.00  0.00    +0.000 C 
ATOM     10  C   UNL     1      -0.079  10.128  21.141  0.00  0.00    +0.000 A 
ATOM     11  C   UNL     1       0.380  10.255  19.826  0.00  0.00    +0.000 A 
ATOM     12  C   UNL     1       1.226   9.291  19.277  0.00  0.00    +0.000 A 
ATOM     13  C   UNL     1       1.612   8.184  20.037  0.00  0.00    +0.000 A 
ATOM     14  C   UNL     1       1.206   8.081  21.372  0.00  0.00    +0.000 A 
ATOM     15  C   UNL     1       0.359   9.048  21.918  0.00  0.00    +0.000 A 
ENDBRANCH   1  13
BRANCH   5  16
ATOM     16  C   UNL     1       5.673   4.331  16.649  0.00  0.00    +0.000 A 
ATOM     17  C   UNL     1       6.994   4.776  16.504  0.00  0.00    +0.000 A 
ATOM     18  C   UNL     1       7.551   4.954  15.235  0.00  0.00    +0.000 A 
ATOM     19  C   UNL     1       6.793   4.684  14.104  0.00  0.00    +0.000 A 
ATOM     20  F   UNL     1       7.321   4.873  12.888  0.00  0.00    +0.000 F 
ATOM     21  C   UNL     1       5.487   4.234  14.217  0.00  0.00    +0.000 A 
ATOM     22  C   UNL     1       4.931   4.067  15.486  0.00  0.00    +0.000 A 
ENDBRANCH   5  16
TORSDOF 2
ENDMDL
MODEL 9
REMARK VINA RESULT:      -6.6      3.967      8.777
REMARK  Name = 
REMARK  3 active torsions:
REMARK  status: ('A' for Active; 'I' for Inactive)
REMARK    1  A    between atoms: C_1  and  C_2
REMARK    2  A    between atoms: C_5  and  C_6
REMARK    3  A    between atoms: N_10  and  C_11
REMARK                            x       y       z     vdW  Elec       q    Type
REMARK                         _______ _______ _______ _____ _____    ______ ____
ROOT
ATOM      1  C   UNL     1       3.491   6.155  18.337  0.00  0.00    +0.000 C 
ATOM      2  N   UNL     1       2.588   7.066  18.145  0.00  0.00    +0.000 NA
ATOM      3  N   UNL     1       1.929   7.621  19.244  0.00  0.00    +0.000 NA
ATOM      4  C   UNL     1       1.692   6.965  20.340  0.00  0.00    +0.000 C 
ATOM      5  N   UNL     1       0.990   7.452  21.412  0.00  0.00    +0.000 N 
ATOM      6  S   UNL     1       2.278   5.337  20.608  0.00  0.00    +0.000 S 
ATOM      7  C   UNL     1       3.811   5.569  19.686  0.00  0.00    +0.000 C 
ATOM      8  H   UNL     1       0.668   6.778  22.093  0.00  0.00    +0.000 HD
ENDROOT
BRANCH   1  13
ATOM      9  C   UNL     1       6.761   4.233  13.964  0.00  0.00    +0.000 C 
ATOM     10  C   UNL     1       5.854   4.734  15.049  0.00  0.00    +0.000 A 
ATOM     11  C   UNL     1       5.635   6.104  15.217  0.00  0.00    +0.000 A 
ATOM     12  C   UNL     1       4.842   6.569  16.268  0.00  0.00    +0.000 A 
ATOM     13  C   UNL     1       4.272   5.664  17.167  0.00  0.00    +0.000 A 
ATOM     14  C   UNL     1       4.438   4.289  16.971  0.00  0.00    +0.000 A 
ATOM     15  C   UNL     1       5.232   3.828  15.918  0.00  0.00    +0.000 A 
ENDBRANCH   1  13
BRANCH   5  16
ATOM     16  C   UNL     1       0.663   8.798  21.637  0.00  0.00    +0.000 A 
ATOM     17  C   UNL     1      -0.134   9.151  22.735  0.00  0.00    +0.000 A 
ATOM     18  C   UNL     1      -0.557  10.470  22.914  0.00  0.00    +0.000 A 
ATOM     19  C   UNL     1      -0.184  11.445  22.000  0.00  0.00    +0.000 A 
ATOM     20  F   UNL     1      -0.605  12.706  22.162  0.00  0.00    +0.000 F 
ATOM     21  C   UNL     1       0.611  11.127  20.909  0.00  0.00    +0.000 A 
ATOM     22  C   UNL     1       1.023   9.807  20.728  0.00  0.00    +0.000 A 
ENDBRANCH   5  16
TORSDOF 2
ENDMDL
