MODEL 1
REMARK VINA RESULT:      -8.4      0.000      0.000
REMARK  Name = 
REMARK  12 active torsions:
REMARK  status: ('A' for Active; 'I' for Inactive)
REMARK    1  A    between atoms: C_1  and  C_2
REMARK    2  A    between atoms: C_2  and  C_3
REMARK    3  A    between atoms: C_3  and  C_4
REMARK    4  A    between atoms: C_3  and  C_27
REMARK    5  A    between atoms: C_5  and  C_6
REMARK    6  A    between atoms: C_7  and  C_8
REMARK    7  A    between atoms: C_9  and  C_10
REMARK    8  A    between atoms: C_10  and  C_12
REMARK    9  A    between atoms: C_13  and  O_14
REMARK   10  A    between atoms: C_15  and  C_16
REMARK   11  A    between atoms: C_19  and  O_20
REMARK   12  A    between atoms: C_27  and  O_28
REMARK                            x       y       z     vdW  Elec       q    Type
REMARK                         _______ _______ _______ _____ _____    ______ ____
ROOT
ATOM      1  C   UNL     1       5.957   4.530  17.186  0.00  0.00    +0.000 A 
ATOM      2  C   UNL     1       5.247   4.216  18.296  0.00  0.00    +0.000 A 
ATOM      3  C   UNL     1       3.854   3.762  18.221  0.00  0.00    +0.000 A 
ATOM      4  C   UNL     1       3.267   3.694  17.019  0.00  0.00    +0.000 A 
ATOM      5  N   UNL     1       3.955   4.019  15.883  0.00  0.00    +0.000 N 
ATOM      6  C   UNL     1       5.260   4.432  15.865  0.00  0.00    +0.000 A 
ATOM      7  O   UNL     1       5.799   4.710  14.798  0.00  0.00    +0.000 OA
ATOM      8  H   UNL     1       3.498   3.973  14.978  0.00  0.00    +0.000 HD
ENDROOT
BRANCH   3   9
ATOM      9  C   UNL     1       3.017   3.396  19.382  0.00  0.00    +0.000 A 
ATOM     10  C   UNL     1       1.727   3.929  19.530  0.00  0.00    +0.000 A 
ATOM     11  C   UNL     1       0.951   3.612  20.649  0.00  0.00    +0.000 A 
ATOM     12  C   UNL     1       1.469   2.760  21.621  0.00  0.00    +0.000 A 
ATOM     13  C   UNL     1       2.742   2.221  21.489  0.00  0.00    +0.000 A 
ATOM     14  C   UNL     1       3.517   2.537  20.370  0.00  0.00    +0.000 A 
BRANCH  12  15
ATOM     15  O   UNL     1       0.750   2.431  22.733  0.00  0.00    +0.000 OA
ATOM     16  H   UNL     1       0.240   1.630  22.548  0.00  0.00    +0.000 HD
ENDBRANCH  12  15
ENDBRANCH   3   9
BRANCH   1  17
ATOM     17  C   UNL     1       7.365   5.010  17.319  0.00  0.00    +0.000 C 
ATOM     18  O   UNL     1       8.273   4.224  17.599  0.00  0.00    +0.000 OA
BRANCH  17  20
ATOM     19  C   UNL     1       7.684   7.357  18.029  0.00  0.00    +0.000 C 
ATOM     20  C   UNL     1       7.644   6.446  17.045  0.00  0.00    +0.000 C 
BRANCH  19  22
ATOM     21  C   UNL     1       8.865   9.481  18.423  0.00  0.00    +0.000 C 
ATOM     22  C   UNL     1       7.942   8.760  17.768  0.00  0.00    +0.000 C 
BRANCH  21  24
ATOM     23  C   UNL     1      10.170  11.554  18.628  0.00  0.00    +0.000 C 
ATOM     24  C   UNL     1       9.137  10.869  18.110  0.00  0.00    +0.000 C 
BRANCH  23  25
ATOM     25  C   UNL     1      10.489  12.995  18.270  0.00  0.00    +0.000 C 
BRANCH  25  27
ATOM     26  C   UNL     1       9.037  14.999  18.988  0.00  0.00    +0.000 C 
ATOM     27  C   UNL     1       9.214  13.832  18.027  0.00  0.00    +0.000 C 
ENDBRANCH  25  27
BRANCH  25  28
ATOM     28  C   UNL     1      11.411  13.072  17.035  0.00  0.00    +0.000 C 
BRANCH  28  29
ATOM     29  O   UNL     1      10.970  14.042  16.090  0.00  0.00    +0.000 OA
ATOM     30  H   UNL     1      11.698  14.673  15.960  0.00  0.00    +0.000 HD
ENDBRANCH  28  29
ENDBRANCH  25  28
ENDBRANCH  23  25
ENDBRANCH  21  24
ENDBRANCH  19  22
ENDBRANCH  17  20
ENDBRANCH   1  17
BRANCH   2  31
ATOM     31  O   UNL     1       5.741   4.291  19.587  0.00  0.00    +0.000 OA
ATOM     32  H   UNL     1       5.116   4.813  20.135  0.00  0.00    +0.000 HD
ENDBRANCH   2  31
TORSDOF 11
ENDMDL
MODEL 2
REMARK VINA RESULT:      -8.3      1.748      2.230
REMARK  Name = 
REMARK  12 active torsions:
REMARK  status: ('A' for Active; 'I' for Inactive)
REMARK    1  A    between atoms: C_1  and  C_2
REMARK    2  A    between atoms: C_2  and  C_3
REMARK    3  A    between atoms: C_3  and  C_4
REMARK    4  A    between atoms: C_3  and  C_27
REMARK    5  A    between atoms: C_5  and  C_6
REMARK    6  A    between atoms: C_7  and  C_8
REMARK    7  A    between atoms: C_9  and  C_10
REMARK    8  A    between atoms: C_10  and  C_12
REMARK    9  A    between atoms: C_13  and  O_14
REMARK   10  A    between atoms: C_15  and  C_16
REMARK   11  A    between atoms: C_19  and  O_20
REMARK   12  A    between atoms: C_27  and  O_28
REMARK                            x       y       z     vdW  Elec       q    Type
REMARK                         _______ _______ _______ _____ _____    ______ ____
ROOT
ATOM      1  C   UNL     1       6.650   5.715  17.344  0.00  0.00    +0.000 A 
ATOM      2  C   UNL     1       5.540   5.208  17.931  0.00  0.00    +0.000 A 
ATOM      3  C   UNL     1       4.582   4.382  17.188  0.00  0.00    +0.000 A 
ATOM      4  C   UNL     1       4.804   4.158  15.886  0.00  0.00    +0.000 A 
ATOM      5  N   UNL     1       5.909   4.669  15.265  0.00  0.00    +0.000 N 
ATOM      6  C   UNL     1       6.859   5.432  15.889  0.00  0.00    +0.000 A 
ATOM      7  O   UNL     1       7.819   5.856  15.252  0.00  0.00    +0.000 OA
ATOM      8  H   UNL     1       6.063   4.501  14.276  0.00  0.00    +0.000 HD
ENDROOT
BRANCH   3   9
ATOM      9  C   UNL     1       3.353   3.789  17.756  0.00  0.00    +0.000 A 
ATOM     10  C   UNL     1       2.143   4.500  17.741  0.00  0.00    +0.000 A 
ATOM     11  C   UNL     1       0.990   3.953  18.314  0.00  0.00    +0.000 A 
ATOM     12  C   UNL     1       1.051   2.693  18.902  0.00  0.00    +0.000 A 
ATOM     13  C   UNL     1       2.239   1.974  18.922  0.00  0.00    +0.000 A 
ATOM     14  C   UNL     1       3.391   2.520  18.350  0.00  0.00    +0.000 A 
BRANCH  12  15
ATOM     15  O   UNL     1      -0.047   2.125  19.479  0.00  0.00    +0.000 OA
ATOM     16  H   UNL     1      -0.316   1.361  18.951  0.00  0.00    +0.000 HD
ENDBRANCH  12  15
ENDBRANCH   3   9
BRANCH   1  17
ATOM     17  C   UNL     1       7.583   6.570  18.139  0.00  0.00    +0.000 C 
ATOM     18  O   UNL     1       8.153   6.120  19.135  0.00  0.00    +0.000 OA
BRANCH  17  20
ATOM     19  C   UNL     1       8.508   8.847  18.408  0.00  0.00    +0.000 C 
ATOM     20  C   UNL     1       7.844   7.954  17.658  0.00  0.00    +0.000 C 
BRANCH  19  22
ATOM     21  C   UNL     1       9.798  10.944  18.354  0.00  0.00    +0.000 C 
ATOM     22  C   UNL     1       8.755  10.202  17.951  0.00  0.00    +0.000 C 
BRANCH  21  24
ATOM     23  C   UNL     1       9.513  13.385  18.387  0.00  0.00    +0.000 C 
ATOM     24  C   UNL     1      10.048  12.278  17.847  0.00  0.00    +0.000 C 
BRANCH  23  25
ATOM     25  C   UNL     1       9.807  14.790  17.890  0.00  0.00    +0.000 C 
BRANCH  25  27
ATOM     26  C   UNL     1      10.668  15.754  20.118  0.00  0.00    +0.000 C 
ATOM     27  C   UNL     1      10.973  15.449  18.658  0.00  0.00    +0.000 C 
ENDBRANCH  25  27
BRANCH  25  28
ATOM     28  C   UNL     1       8.553  15.684  17.973  0.00  0.00    +0.000 C 
BRANCH  28  29
ATOM     29  O   UNL     1       7.439  15.120  17.285  0.00  0.00    +0.000 OA
ATOM     30  H   UNL     1       7.489  14.156  17.396  0.00  0.00    +0.000 HD
ENDBRANCH  28  29
ENDBRANCH  25  28
ENDBRANCH  23  25
ENDBRANCH  21  24
ENDBRANCH  19  22
ENDBRANCH  17  20
ENDBRANCH   1  17
BRANCH   2  31
ATOM     31  O   UNL     1       5.193   5.412  19.254  0.00  0.00    +0.000 OA
ATOM     32  H   UNL     1       4.821   4.578  19.617  0.00  0.00    +0.000 HD
ENDBRANCH   2  31
TORSDOF 11
ENDMDL
MODEL 3
REMARK VINA RESULT:      -8.2      0.717      1.173
REMARK  Name = 
REMARK  12 active torsions:
REMARK  status: ('A' for Active; 'I' for Inactive)
REMARK    1  A    between atoms: C_1  and  C_2
REMARK    2  A    between atoms: C_2  and  C_3
REMARK    3  A    between atoms: C_3  and  C_4
REMARK    4  A    between atoms: C_3  and  C_27
REMARK    5  A    between atoms: C_5  and  C_6
REMARK    6  A    between atoms: C_7  and  C_8
REMARK    7  A    between atoms: C_9  and  C_10
REMARK    8  A    between atoms: C_10  and  C_12
REMARK    9  A    between atoms: C_13  and  O_14
REMARK   10  A    between atoms: C_15  and  C_16
REMARK   11  A    between atoms: C_19  and  O_20
REMARK   12  A    between atoms: C_27  and  O_28
REMARK                            x       y       z     vdW  Elec       q    Type
REMARK                         _______ _______ _______ _____ _____    ______ ____
ROOT
ATOM      1  C   UNL     1       6.103   4.610  17.419  0.00  0.00    +0.000 A 
ATOM      2  C   UNL     1       5.377   4.257  18.507  0.00  0.00    +0.000 A 
ATOM      3  C   UNL     1       3.946   3.948  18.413  0.00  0.00    +0.000 A 
ATOM      4  C   UNL     1       3.344   4.056  17.222  0.00  0.00    +0.000 A 
ATOM      5  N   UNL     1       4.049   4.423  16.110  0.00  0.00    +0.000 N 
ATOM      6  C   UNL     1       5.388   4.710  16.108  0.00  0.00    +0.000 A 
ATOM      7  O   UNL     1       5.941   5.039  15.063  0.00  0.00    +0.000 OA
ATOM      8  H   UNL     1       3.581   4.511  15.214  0.00  0.00    +0.000 HD
ENDROOT
BRANCH   3   9
ATOM      9  C   UNL     1       3.087   3.551  19.549  0.00  0.00    +0.000 A 
ATOM     10  C   UNL     1       3.551   2.642  20.513  0.00  0.00    +0.000 A 
ATOM     11  C   UNL     1       2.723   2.238  21.565  0.00  0.00    +0.000 A 
ATOM     12  C   UNL     1       1.430   2.745  21.650  0.00  0.00    +0.000 A 
ATOM     13  C   UNL     1       0.955   3.648  20.707  0.00  0.00    +0.000 A 
ATOM     14  C   UNL     1       1.783   4.052  19.656  0.00  0.00    +0.000 A 
BRANCH  12  15
ATOM     15  O   UNL     1       0.585   2.371  22.655  0.00  0.00    +0.000 OA
ATOM     16  H   UNL     1      -0.284   2.765  22.494  0.00  0.00    +0.000 HD
ENDBRANCH  12  15
ENDBRANCH   3   9
BRANCH   1  17
ATOM     17  C   UNL     1       7.553   4.937  17.572  0.00  0.00    +0.000 C 
ATOM     18  O   UNL     1       8.417   4.104  17.292  0.00  0.00    +0.000 OA
BRANCH  17  20
ATOM     19  C   UNL     1       7.495   7.399  17.348  0.00  0.00    +0.000 C 
ATOM     20  C   UNL     1       7.917   6.312  18.011  0.00  0.00    +0.000 C 
BRANCH  19  22
ATOM     21  C   UNL     1       8.773   9.005  18.709  0.00  0.00    +0.000 C 
ATOM     22  C   UNL     1       7.858   8.741  17.763  0.00  0.00    +0.000 C 
BRANCH  21  24
ATOM     23  C   UNL     1       9.692  11.229  18.205  0.00  0.00    +0.000 C 
ATOM     24  C   UNL     1       9.152  10.355  19.072  0.00  0.00    +0.000 C 
BRANCH  23  25
ATOM     25  C   UNL     1      10.049  12.660  18.565  0.00  0.00    +0.000 C 
BRANCH  25  27
ATOM     26  C   UNL     1       9.609  15.139  18.022  0.00  0.00    +0.000 C 
ATOM     27  C   UNL     1       9.266  13.688  17.719  0.00  0.00    +0.000 C 
ENDBRANCH  25  27
BRANCH  25  28
ATOM     28  C   UNL     1      11.565  12.909  18.422  0.00  0.00    +0.000 C 
BRANCH  28  29
ATOM     29  O   UNL     1      12.132  12.186  17.333  0.00  0.00    +0.000 OA
ATOM     30  H   UNL     1      12.473  11.348  17.687  0.00  0.00    +0.000 HD
ENDBRANCH  28  29
ENDBRANCH  25  28
ENDBRANCH  23  25
ENDBRANCH  21  24
ENDBRANCH  19  22
ENDBRANCH  17  20
ENDBRANCH   1  17
BRANCH   2  31
ATOM     31  O   UNL     1       5.887   4.157  19.789  0.00  0.00    +0.000 OA
ATOM     32  H   UNL     1       6.624   4.799  19.887  0.00  0.00    +0.000 HD
ENDBRANCH   2  31
TORSDOF 11
ENDMDL
MODEL 4
REMARK VINA RESULT:      -8.1      1.710      2.146
REMARK  Name = 
REMARK  12 active torsions:
REMARK  status: ('A' for Active; 'I' for Inactive)
REMARK    1  A    between atoms: C_1  and  C_2
REMARK    2  A    between atoms: C_2  and  C_3
REMARK    3  A    between atoms: C_3  and  C_4
REMARK    4  A    between atoms: C_3  and  C_27
REMARK    5  A    between atoms: C_5  and  C_6
REMARK    6  A    between atoms: C_7  and  C_8
REMARK    7  A    between atoms: C_9  and  C_10
REMARK    8  A    between atoms: C_10  and  C_12
REMARK    9  A    between atoms: C_13  and  O_14
REMARK   10  A    between atoms: C_15  and  C_16
REMARK   11  A    between atoms: C_19  and  O_20
REMARK   12  A    between atoms: C_27  and  O_28
REMARK                            x       y       z     vdW  Elec       q    Type
REMARK                         _______ _______ _______ _____ _____    ______ ____
ROOT
ATOM      1  C   UNL     1       6.827   5.936  17.406  0.00  0.00    +0.000 A 
ATOM      2  C   UNL     1       5.701   5.407  17.942  0.00  0.00    +0.000 A 
ATOM      3  C   UNL     1       4.757   4.621  17.140  0.00  0.00    +0.000 A 
ATOM      4  C   UNL     1       5.008   4.458  15.835  0.00  0.00    +0.000 A 
ATOM      5  N   UNL     1       6.130   4.992  15.263  0.00  0.00    +0.000 N 
ATOM      6  C   UNL     1       7.068   5.721  15.944  0.00  0.00    +0.000 A 
ATOM      7  O   UNL     1       8.043   6.169  15.350  0.00  0.00    +0.000 OA
ATOM      8  H   UNL     1       6.306   4.870  14.272  0.00  0.00    +0.000 HD
ENDROOT
BRANCH   3   9
ATOM      9  C   UNL     1       3.513   4.009  17.651  0.00  0.00    +0.000 A 
ATOM     10  C   UNL     1       2.302   4.717  17.620  0.00  0.00    +0.000 A 
ATOM     11  C   UNL     1       1.134   4.150  18.139  0.00  0.00    +0.000 A 
ATOM     12  C   UNL     1       1.181   2.873  18.691  0.00  0.00    +0.000 A 
ATOM     13  C   UNL     1       2.370   2.156  18.727  0.00  0.00    +0.000 A 
ATOM     14  C   UNL     1       3.537   2.722  18.207  0.00  0.00    +0.000 A 
BRANCH  12  15
ATOM     15  O   UNL     1       0.067   2.285  19.217  0.00  0.00    +0.000 OA
ATOM     16  H   UNL     1      -0.696   2.855  19.046  0.00  0.00    +0.000 HD
ENDBRANCH  12  15
ENDBRANCH   3   9
BRANCH   1  17
ATOM     17  C   UNL     1       7.743   6.749  18.261  0.00  0.00    +0.000 C 
ATOM     18  O   UNL     1       8.321   6.238  19.223  0.00  0.00    +0.000 OA
BRANCH  17  20
ATOM     19  C   UNL     1       8.615   9.020  18.700  0.00  0.00    +0.000 C 
ATOM     20  C   UNL     1       7.981   8.168  17.880  0.00  0.00    +0.000 C 
BRANCH  19  22
ATOM     21  C   UNL     1      10.052  10.928  18.098  0.00  0.00    +0.000 C 
ATOM     22  C   UNL     1       8.838  10.408  18.340  0.00  0.00    +0.000 C 
BRANCH  21  24
ATOM     23  C   UNL     1      10.025  13.351  18.511  0.00  0.00    +0.000 C 
ATOM     24  C   UNL     1      10.244  12.306  17.695  0.00  0.00    +0.000 C 
BRANCH  23  25
ATOM     25  C   UNL     1      10.269  14.796  18.111  0.00  0.00    +0.000 C 
BRANCH  25  27
ATOM     26  C   UNL     1       7.741  15.131  18.472  0.00  0.00    +0.000 C 
ATOM     27  C   UNL     1       8.973  15.502  17.659  0.00  0.00    +0.000 C 
ENDBRANCH  25  27
BRANCH  25  28
ATOM     28  C   UNL     1      11.335  14.894  16.999  0.00  0.00    +0.000 C 
BRANCH  28  29
ATOM     29  O   UNL     1      10.955  15.796  15.964  0.00  0.00    +0.000 OA
ATOM     30  H   UNL     1      10.079  16.148  16.192  0.00  0.00    +0.000 HD
ENDBRANCH  28  29
ENDBRANCH  25  28
ENDBRANCH  23  25
ENDBRANCH  21  24
ENDBRANCH  19  22
ENDBRANCH  17  20
ENDBRANCH   1  17
BRANCH   2  31
ATOM     31  O   UNL     1       5.324   5.551  19.266  0.00  0.00    +0.000 OA
ATOM     32  H   UNL     1       6.132   5.615  19.820  0.00  0.00    +0.000 HD
ENDBRANCH   2  31
TORSDOF 11
ENDMDL
MODEL 5
REMARK VINA RESULT:      -8.0      1.279      1.676
REMARK  Name = 
REMARK  12 active torsions:
REMARK  status: ('A' for Active; 'I' for Inactive)
REMARK    1  A    between atoms: C_1  and  C_2
REMARK    2  A    between atoms: C_2  and  C_3
REMARK    3  A    between atoms: C_3  and  C_4
REMARK    4  A    between atoms: C_3  and  C_27
REMARK    5  A    between atoms: C_5  and  C_6
REMARK    6  A    between atoms: C_7  and  C_8
REMARK    7  A    between atoms: C_9  and  C_10
REMARK    8  A    between atoms: C_10  and  C_12
REMARK    9  A    between atoms: C_13  and  O_14
REMARK   10  A    between atoms: C_15  and  C_16
REMARK   11  A    between atoms: C_19  and  O_20
REMARK   12  A    between atoms: C_27  and  O_28
REMARK                            x       y       z     vdW  Elec       q    Type
REMARK                         _______ _______ _______ _____ _____    ______ ____
ROOT
ATOM      1  C   UNL     1       6.120   4.644  17.486  0.00  0.00    +0.000 A 
ATOM      2  C   UNL     1       5.392   4.289  18.572  0.00  0.00    +0.000 A 
ATOM      3  C   UNL     1       3.975   3.923  18.467  0.00  0.00    +0.000 A 
ATOM      4  C   UNL     1       3.387   3.980  17.265  0.00  0.00    +0.000 A 
ATOM      5  N   UNL     1       4.093   4.348  16.154  0.00  0.00    +0.000 N 
ATOM      6  C   UNL     1       5.420   4.685  16.163  0.00  0.00    +0.000 A 
ATOM      7  O   UNL     1       5.976   5.011  15.118  0.00  0.00    +0.000 OA
ATOM      8  H   UNL     1       3.636   4.396  15.250  0.00  0.00    +0.000 HD
ENDROOT
BRANCH   3   9
ATOM      9  C   UNL     1       3.116   3.521  19.600  0.00  0.00    +0.000 A 
ATOM     10  C   UNL     1       3.552   2.554  20.519  0.00  0.00    +0.000 A 
ATOM     11  C   UNL     1       2.722   2.146  21.568  0.00  0.00    +0.000 A 
ATOM     12  C   UNL     1       1.455   2.707  21.695  0.00  0.00    +0.000 A 
ATOM     13  C   UNL     1       1.008   3.668  20.796  0.00  0.00    +0.000 A 
ATOM     14  C   UNL     1       1.838   4.076  19.748  0.00  0.00    +0.000 A 
BRANCH  12  15
ATOM     15  O   UNL     1       0.609   2.333  22.698  0.00  0.00    +0.000 OA
ATOM     16  H   UNL     1       1.133   2.105  23.478  0.00  0.00    +0.000 HD
ENDBRANCH  12  15
ENDBRANCH   3   9
BRANCH   1  17
ATOM     17  C   UNL     1       7.554   5.030  17.650  0.00  0.00    +0.000 C 
ATOM     18  O   UNL     1       8.454   4.246  17.342  0.00  0.00    +0.000 OA
BRANCH  17  20
ATOM     19  C   UNL     1       7.607   7.488  17.384  0.00  0.00    +0.000 C 
ATOM     20  C   UNL     1       7.857   6.404  18.135  0.00  0.00    +0.000 C 
BRANCH  19  22
ATOM     21  C   UNL     1       8.912   9.113  18.696  0.00  0.00    +0.000 C 
ATOM     22  C   UNL     1       7.913   8.829  17.846  0.00  0.00    +0.000 C 
BRANCH  21  24
ATOM     23  C   UNL     1       9.535  10.803  20.368  0.00  0.00    +0.000 C 
ATOM     24  C   UNL     1       9.227  10.467  19.104  0.00  0.00    +0.000 C 
BRANCH  23  25
ATOM     25  C   UNL     1       9.912  12.211  20.796  0.00  0.00    +0.000 C 
BRANCH  25  27
ATOM     26  C   UNL     1       8.710  14.214  19.712  0.00  0.00    +0.000 C 
ATOM     27  C   UNL     1       8.696  13.161  20.811  0.00  0.00    +0.000 C 
ENDBRANCH  25  27
BRANCH  25  28
ATOM     28  C   UNL     1      11.020  12.790  19.892  0.00  0.00    +0.000 C 
BRANCH  28  29
ATOM     29  O   UNL     1      12.262  12.113  20.056  0.00  0.00    +0.000 OA
ATOM     30  H   UNL     1      12.474  11.685  19.209  0.00  0.00    +0.000 HD
ENDBRANCH  28  29
ENDBRANCH  25  28
ENDBRANCH  23  25
ENDBRANCH  21  24
ENDBRANCH  19  22
ENDBRANCH  17  20
ENDBRANCH   1  17
BRANCH   2  31
ATOM     31  O   UNL     1       5.888   4.239  19.862  0.00  0.00    +0.000 OA
ATOM     32  H   UNL     1       5.957   3.300  20.139  0.00  0.00    +0.000 HD
ENDBRANCH   2  31
TORSDOF 11
ENDMDL
MODEL 6
REMARK VINA RESULT:      -7.7      1.030      1.300
REMARK  Name = 
REMARK  12 active torsions:
REMARK  status: ('A' for Active; 'I' for Inactive)
REMARK    1  A    between atoms: C_1  and  C_2
REMARK    2  A    between atoms: C_2  and  C_3
REMARK    3  A    between atoms: C_3  and  C_4
REMARK    4  A    between atoms: C_3  and  C_27
REMARK    5  A    between atoms: C_5  and  C_6
REMARK    6  A    between atoms: C_7  and  C_8
REMARK    7  A    between atoms: C_9  and  C_10
REMARK    8  A    between atoms: C_10  and  C_12
REMARK    9  A    between atoms: C_13  and  O_14
REMARK   10  A    between atoms: C_15  and  C_16
REMARK   11  A    between atoms: C_19  and  O_20
REMARK   12  A    between atoms: C_27  and  O_28
REMARK                            x       y       z     vdW  Elec       q    Type
REMARK                         _______ _______ _______ _____ _____    ______ ____
ROOT
ATOM      1  C   UNL     1       5.921   5.066  17.322  0.00  0.00    +0.000 A 
ATOM      2  C   UNL     1       5.179   4.727  18.403  0.00  0.00    +0.000 A 
ATOM      3  C   UNL     1       3.920   3.985  18.274  0.00  0.00    +0.000 A 
ATOM      4  C   UNL     1       3.485   3.671  17.047  0.00  0.00    +0.000 A 
ATOM      5  N   UNL     1       4.207   4.013  15.937  0.00  0.00    +0.000 N 
ATOM      6  C   UNL     1       5.398   4.688  15.972  0.00  0.00    +0.000 A 
ATOM      7  O   UNL     1       5.977   4.960  14.925  0.00  0.00    +0.000 OA
ATOM      8  H   UNL     1       3.864   3.779  15.012  0.00  0.00    +0.000 HD
ENDROOT
BRANCH   3   9
ATOM      9  C   UNL     1       3.058   3.574  19.401  0.00  0.00    +0.000 A 
ATOM     10  C   UNL     1       1.770   4.111  19.550  0.00  0.00    +0.000 A 
ATOM     11  C   UNL     1       0.970   3.750  20.639  0.00  0.00    +0.000 A 
ATOM     12  C   UNL     1       1.463   2.850  21.580  0.00  0.00    +0.000 A 
ATOM     13  C   UNL     1       2.734   2.306  21.447  0.00  0.00    +0.000 A 
ATOM     14  C   UNL     1       3.533   2.667  20.358  0.00  0.00    +0.000 A 
BRANCH  12  15
ATOM     15  O   UNL     1       0.720   2.477  22.662  0.00  0.00    +0.000 OA
ATOM     16  H   UNL     1       0.688   1.511  22.699  0.00  0.00    +0.000 HD
ENDBRANCH  12  15
ENDBRANCH   3   9
BRANCH   1  17
ATOM     17  C   UNL     1       7.185   5.843  17.506  0.00  0.00    +0.000 C 
ATOM     18  O   UNL     1       8.269   5.264  17.605  0.00  0.00    +0.000 OA
BRANCH  17  20
ATOM     19  C   UNL     1       8.126   8.094  17.905  0.00  0.00    +0.000 C 
ATOM     20  C   UNL     1       7.099   7.329  17.504  0.00  0.00    +0.000 C 
BRANCH  19  22
ATOM     21  C   UNL     1       9.058  10.340  18.291  0.00  0.00    +0.000 C 
ATOM     22  C   UNL     1       8.045   9.542  17.919  0.00  0.00    +0.000 C 
BRANCH  21  24
ATOM     23  C   UNL     1      10.006  12.582  17.947  0.00  0.00    +0.000 C 
ATOM     24  C   UNL     1       8.967  11.786  18.251  0.00  0.00    +0.000 C 
BRANCH  23  25
ATOM     25  C   UNL     1       9.909  14.095  17.857  0.00  0.00    +0.000 C 
BRANCH  25  27
ATOM     26  C   UNL     1      11.279  14.092  20.038  0.00  0.00    +0.000 C 
ATOM     27  C   UNL     1      10.971  14.801  18.727  0.00  0.00    +0.000 C 
ENDBRANCH  25  27
BRANCH  25  28
ATOM     28  C   UNL     1       8.500  14.586  18.247  0.00  0.00    +0.000 C 
BRANCH  28  29
ATOM     29  O   UNL     1       7.718  14.947  17.112  0.00  0.00    +0.000 OA
ATOM     30  H   UNL     1       7.224  14.156  16.837  0.00  0.00    +0.000 HD
ENDBRANCH  28  29
ENDBRANCH  25  28
ENDBRANCH  23  25
ENDBRANCH  21  24
ENDBRANCH  19  22
ENDBRANCH  17  20
ENDBRANCH   1  17
BRANCH   2  31
ATOM     31  O   UNL     1       5.513   5.038  19.709  0.00  0.00    +0.000 OA
ATOM     32  H   UNL     1       6.258   5.677  19.702  0.00  0.00    +0.000 HD
ENDBRANCH   2  31
TORSDOF 11
ENDMDL
MODEL 7
REMARK VINA RESULT:      -7.6      1.231      1.550
REMARK  Name = 
REMARK  12 active torsions:
REMARK  status: ('A' for Active; 'I' for Inactive)
REMARK    1  A    between atoms: C_1  and  C_2
REMARK    2  A    between atoms: C_2  and  C_3
REMARK    3  A    between atoms: C_3  and  C_4
REMARK    4  A    between atoms: C_3  and  C_27
REMARK    5  A    between atoms: C_5  and  C_6
REMARK    6  A    between atoms: C_7  and  C_8
REMARK    7  A    between atoms: C_9  and  C_10
REMARK    8  A    between atoms: C_10  and  C_12
REMARK    9  A    between atoms: C_13  and  O_14
REMARK   10  A    between atoms: C_15  and  C_16
REMARK   11  A    between atoms: C_19  and  O_20
REMARK   12  A    between atoms: C_27  and  O_28
REMARK                            x       y       z     vdW  Elec       q    Type
REMARK                         _______ _______ _______ _____ _____    ______ ____
ROOT
ATOM      1  C   UNL     1       5.789   5.694  17.410  0.00  0.00    +0.000 A 
ATOM      2  C   UNL     1       5.228   4.980  18.415  0.00  0.00    +0.000 A 
ATOM      3  C   UNL     1       3.777   4.954  18.629  0.00  0.00    +0.000 A 
ATOM      4  C   UNL     1       2.998   5.689  17.825  0.00  0.00    +0.000 A 
ATOM      5  N   UNL     1       3.538   6.431  16.811  0.00  0.00    +0.000 N 
ATOM      6  C   UNL     1       4.877   6.495  16.533  0.00  0.00    +0.000 A 
ATOM      7  O   UNL     1       5.277   7.193  15.606  0.00  0.00    +0.000 OA
ATOM      8  H   UNL     1       2.940   6.992  16.214  0.00  0.00    +0.000 HD
ENDROOT
BRANCH   3   9
ATOM      9  C   UNL     1       3.090   4.197  19.695  0.00  0.00    +0.000 A 
ATOM     10  C   UNL     1       3.676   3.048  20.249  0.00  0.00    +0.000 A 
ATOM     11  C   UNL     1       3.006   2.311  21.231  0.00  0.00    +0.000 A 
ATOM     12  C   UNL     1       1.748   2.726  21.657  0.00  0.00    +0.000 A 
ATOM     13  C   UNL     1       1.154   3.862  21.122  0.00  0.00    +0.000 A 
ATOM     14  C   UNL     1       1.823   4.599  20.142  0.00  0.00    +0.000 A 
BRANCH  12  15
ATOM     15  O   UNL     1       1.055   2.032  22.606  0.00  0.00    +0.000 OA
ATOM     16  H   UNL     1       1.586   1.996  23.414  0.00  0.00    +0.000 HD
ENDBRANCH  12  15
ENDBRANCH   3   9
BRANCH   1  17
ATOM     17  C   UNL     1       7.274   5.706  17.250  0.00  0.00    +0.000 C 
ATOM     18  O   UNL     1       7.900   4.652  17.121  0.00  0.00    +0.000 OA
BRANCH  17  20
ATOM     19  C   UNL     1       7.829   7.934  18.167  0.00  0.00    +0.000 C 
ATOM     20  C   UNL     1       7.962   7.025  17.189  0.00  0.00    +0.000 C 
BRANCH  19  22
ATOM     21  C   UNL     1       9.136   9.778  19.145  0.00  0.00    +0.000 C 
ATOM     22  C   UNL     1       8.485   9.226  18.109  0.00  0.00    +0.000 C 
BRANCH  21  24
ATOM     23  C   UNL     1       9.566  11.955  18.088  0.00  0.00    +0.000 C 
ATOM     24  C   UNL     1       9.824  11.049  19.047  0.00  0.00    +0.000 C 
BRANCH  23  25
ATOM     25  C   UNL     1      10.250  13.309  18.005  0.00  0.00    +0.000 C 
BRANCH  25  27
ATOM     26  C   UNL     1       7.783  14.051  17.997  0.00  0.00    +0.000 C 
ATOM     27  C   UNL     1       9.239  14.463  17.832  0.00  0.00    +0.000 C 
ENDBRANCH  25  27
BRANCH  25  28
ATOM     28  C   UNL     1      11.284  13.342  16.861  0.00  0.00    +0.000 C 
BRANCH  28  29
ATOM     29  O   UNL     1      12.251  12.302  16.976  0.00  0.00    +0.000 OA
ATOM     30  H   UNL     1      11.813  11.543  17.399  0.00  0.00    +0.000 HD
ENDBRANCH  28  29
ENDBRANCH  25  28
ENDBRANCH  23  25
ENDBRANCH  21  24
ENDBRANCH  19  22
ENDBRANCH  17  20
ENDBRANCH   1  17
BRANCH   2  31
ATOM     31  O   UNL     1       5.941   4.222  19.327  0.00  0.00    +0.000 OA
ATOM     32  H   UNL     1       6.066   3.319  18.960  0.00  0.00    +0.000 HD
ENDBRANCH   2  31
TORSDOF 11
ENDMDL
MODEL 8
REMARK VINA RESULT:      -7.6      1.371      1.446
REMARK  Name = 
REMARK  12 active torsions:
REMARK  status: ('A' for Active; 'I' for Inactive)
REMARK    1  A    between atoms: C_1  and  C_2
REMARK    2  A    between atoms: C_2  and  C_3
REMARK    3  A    between atoms: C_3  and  C_4
REMARK    4  A    between atoms: C_3  and  C_27
REMARK    5  A    between atoms: C_5  and  C_6
REMARK    6  A    between atoms: C_7  and  C_8
REMARK    7  A    between atoms: C_9  and  C_10
REMARK    8  A    between atoms: C_10  and  C_12
REMARK    9  A    between atoms: C_13  and  O_14
REMARK   10  A    between atoms: C_15  and  C_16
REMARK   11  A    between atoms: C_19  and  O_20
REMARK   12  A    between atoms: C_27  and  O_28
REMARK                            x       y       z     vdW  Elec       q    Type
REMARK                         _______ _______ _______ _____ _____    ______ ____
ROOT
ATOM      1  C   UNL     1       5.777   5.512  17.438  0.00  0.00    +0.000 A 
ATOM      2  C   UNL     1       5.140   4.828  18.419  0.00  0.00    +0.000 A 
ATOM      3  C   UNL     1       3.679   4.847  18.551  0.00  0.00    +0.000 A 
ATOM      4  C   UNL     1       2.969   5.593  17.696  0.00  0.00    +0.000 A 
ATOM      5  N   UNL     1       3.586   6.305  16.705  0.00  0.00    +0.000 N 
ATOM      6  C   UNL     1       4.939   6.326  16.501  0.00  0.00    +0.000 A 
ATOM      7  O   UNL     1       5.411   6.999  15.590  0.00  0.00    +0.000 OA
ATOM      8  H   UNL     1       3.039   6.874  16.068  0.00  0.00    +0.000 HD
ENDROOT
BRANCH   3   9
ATOM      9  C   UNL     1       2.912   4.125  19.587  0.00  0.00    +0.000 A 
ATOM     10  C   UNL     1       2.805   4.641  20.888  0.00  0.00    +0.000 A 
ATOM     11  C   UNL     1       2.110   3.937  21.877  0.00  0.00    +0.000 A 
ATOM     12  C   UNL     1       1.524   2.716  21.562  0.00  0.00    +0.000 A 
ATOM     13  C   UNL     1       1.616   2.191  20.279  0.00  0.00    +0.000 A 
ATOM     14  C   UNL     1       2.310   2.895  19.290  0.00  0.00    +0.000 A 
BRANCH  12  15
ATOM     15  O   UNL     1       0.844   1.991  22.498  0.00  0.00    +0.000 OA
ATOM     16  H   UNL     1       1.371   1.214  22.732  0.00  0.00    +0.000 HD
ENDBRANCH  12  15
ENDBRANCH   3   9
BRANCH   1  17
ATOM     17  C   UNL     1       7.269   5.478  17.361  0.00  0.00    +0.000 C 
ATOM     18  O   UNL     1       7.843   4.614  16.695  0.00  0.00    +0.000 OA
BRANCH  17  20
ATOM     19  C   UNL     1       7.786   7.849  17.832  0.00  0.00    +0.000 C 
ATOM     20  C   UNL     1       8.030   6.549  18.058  0.00  0.00    +0.000 C 
BRANCH  19  22
ATOM     21  C   UNL     1       8.735  10.117  17.973  0.00  0.00    +0.000 C 
ATOM     22  C   UNL     1       8.533   8.899  18.498  0.00  0.00    +0.000 C 
BRANCH  21  24
ATOM     23  C   UNL     1      10.670  11.590  18.329  0.00  0.00    +0.000 C 
ATOM     24  C   UNL     1       9.445  11.164  18.679  0.00  0.00    +0.000 C 
BRANCH  23  25
ATOM     25  C   UNL     1      11.402  12.718  19.035  0.00  0.00    +0.000 C 
BRANCH  25  27
ATOM     26  C   UNL     1      10.847  14.715  20.564  0.00  0.00    +0.000 C 
ATOM     27  C   UNL     1      10.625  13.240  20.262  0.00  0.00    +0.000 C 
ENDBRANCH  25  27
BRANCH  25  28
ATOM     28  C   UNL     1      11.697  13.883  18.066  0.00  0.00    +0.000 C 
BRANCH  28  29
ATOM     29  O   UNL     1      10.758  13.948  16.997  0.00  0.00    +0.000 OA
ATOM     30  H   UNL     1      10.342  14.826  17.029  0.00  0.00    +0.000 HD
ENDBRANCH  28  29
ENDBRANCH  25  28
ENDBRANCH  23  25
ENDBRANCH  21  24
ENDBRANCH  19  22
ENDBRANCH  17  20
ENDBRANCH   1  17
BRANCH   2  31
ATOM     31  O   UNL     1       5.778   4.062  19.379  0.00  0.00    +0.000 OA
ATOM     32  H   UNL     1       6.729   4.308  19.399  0.00  0.00    +0.000 HD
ENDBRANCH   2  31
TORSDOF 11
ENDMDL
MODEL 9
REMARK VINA RESULT:      -7.5      1.576      2.230
REMARK  Name = 
REMARK  12 active torsions:
REMARK  status: ('A' for Active; 'I' for Inactive)
REMARK    1  A    between atoms: C_1  and  C_2
REMARK    2  A    between atoms: C_2  and  C_3
REMARK    3  A    between atoms: C_3  and  C_4
REMARK    4  A    between atoms: C_3  and  C_27
REMARK    5  A    between atoms: C_5  and  C_6
REMARK    6  A    between atoms: C_7  and  C_8
REMARK    7  A    between atoms: C_9  and  C_10
REMARK    8  A    between atoms: C_10  and  C_12
REMARK    9  A    between atoms: C_13  and  O_14
REMARK   10  A    between atoms: C_15  and  C_16
REMARK   11  A    between atoms: C_19  and  O_20
REMARK   12  A    between atoms: C_27  and  O_28
REMARK                            x       y       z     vdW  Elec       q    Type
REMARK                         _______ _______ _______ _____ _____    ______ ____
ROOT
ATOM      1  C   UNL     1       6.794   5.813  17.602  0.00  0.00    +0.000 A 
ATOM      2  C   UNL     1       5.700   5.366  18.264  0.00  0.00    +0.000 A 
ATOM      3  C   UNL     1       4.653   4.591  17.591  0.00  0.00    +0.000 A 
ATOM      4  C   UNL     1       4.774   4.355  16.278  0.00  0.00    +0.000 A 
ATOM      5  N   UNL     1       5.861   4.806  15.581  0.00  0.00    +0.000 N 
ATOM      6  C   UNL     1       6.889   5.519  16.137  0.00  0.00    +0.000 A 
ATOM      7  O   UNL     1       7.825   5.891  15.436  0.00  0.00    +0.000 OA
ATOM      8  H   UNL     1       5.939   4.630  14.586  0.00  0.00    +0.000 HD
ENDROOT
BRANCH   3   9
ATOM      9  C   UNL     1       3.435   4.064  18.242  0.00  0.00    +0.000 A 
ATOM     10  C   UNL     1       3.513   3.406  19.479  0.00  0.00    +0.000 A 
ATOM     11  C   UNL     1       2.366   2.875  20.076  0.00  0.00    +0.000 A 
ATOM     12  C   UNL     1       1.139   3.002  19.430  0.00  0.00    +0.000 A 
ATOM     13  C   UNL     1       1.043   3.653  18.207  0.00  0.00    +0.000 A 
ATOM     14  C   UNL     1       2.189   4.185  17.611  0.00  0.00    +0.000 A 
BRANCH  12  15
ATOM     15  O   UNL     1      -0.005   2.491  19.971  0.00  0.00    +0.000 OA
ATOM     16  H   UNL     1       0.029   2.601  20.932  0.00  0.00    +0.000 HD
ENDBRANCH  12  15
ENDBRANCH   3   9
BRANCH   1  17
ATOM     17  C   UNL     1       7.821   6.619  18.328  0.00  0.00    +0.000 C 
ATOM     18  O   UNL     1       8.390   6.162  19.322  0.00  0.00    +0.000 OA
BRANCH  17  20
ATOM     19  C   UNL     1       8.699   8.919  18.557  0.00  0.00    +0.000 C 
ATOM     20  C   UNL     1       8.176   7.957  17.782  0.00  0.00    +0.000 C 
BRANCH  19  22
ATOM     21  C   UNL     1       9.193  11.319  18.802  0.00  0.00    +0.000 C 
ATOM     22  C   UNL     1       9.035  10.230  18.034  0.00  0.00    +0.000 C 
BRANCH  21  24
ATOM     23  C   UNL     1      10.848  13.035  18.202  0.00  0.00    +0.000 C 
ATOM     24  C   UNL     1       9.575  12.607  18.260  0.00  0.00    +0.000 C 
BRANCH  23  25
ATOM     25  C   UNL     1      11.262  14.364  17.593  0.00  0.00    +0.000 C 
BRANCH  25  27
ATOM     26  C   UNL     1      12.333  14.622  19.921  0.00  0.00    +0.000 C 
ATOM     27  C   UNL     1      11.903  15.308  18.633  0.00  0.00    +0.000 C 
ENDBRANCH  25  27
BRANCH  25  28
ATOM     28  C   UNL     1      10.064  15.064  16.918  0.00  0.00    +0.000 C 
BRANCH  28  29
ATOM     29  O   UNL     1      10.475  16.013  15.938  0.00  0.00    +0.000 OA
ATOM     30  H   UNL     1       9.673  16.333  15.489  0.00  0.00    +0.000 HD
ENDBRANCH  28  29
ENDBRANCH  25  28
ENDBRANCH  23  25
ENDBRANCH  21  24
ENDBRANCH  19  22
ENDBRANCH  17  20
ENDBRANCH   1  17
BRANCH   2  31
ATOM     31  O   UNL     1       5.454   5.590  19.607  0.00  0.00    +0.000 OA
ATOM     32  H   UNL     1       5.969   4.942  20.135  0.00  0.00    +0.000 HD
ENDBRANCH   2  31
TORSDOF 11
ENDMDL
