MODEL 1
REMARK VINA RESULT:      -7.7      0.000      0.000
REMARK  Name = 
REMARK  5 active torsions:
REMARK  status: ('A' for Active; 'I' for Inactive)
REMARK    1  A    between atoms: C_1  and  C_2
REMARK    2  A    between atoms: C_5  and  C_6
REMARK    3  A    between atoms: N_11  and  C_12
REMARK    4  A    between atoms: C_15  and  S_16
REMARK    5  A    between atoms: S_16  and  N_17
REMARK                            x       y       z     vdW  Elec       q    Type
REMARK                         _______ _______ _______ _____ _____    ______ ____
ROOT
ATOM      1  C   UNL     1       4.200   4.082  17.915  0.00  0.00    +0.000 A 
ATOM      2  N   UNL     1       4.331   2.933  17.304  0.00  0.00    +0.000 NA
ATOM      3  N   UNL     1       3.203   2.250  17.617  0.00  0.00    +0.000 N 
ATOM      4  C   UNL     1       2.356   3.015  18.407  0.00  0.00    +0.000 A 
ATOM      5  S   UNL     1       0.855   2.443  18.832  0.00  0.00    +0.000 S 
ATOM      6  N   UNL     1       3.009   4.225  18.610  0.00  0.00    +0.000 N 
ATOM      7  H   UNL     1       3.003   1.330  17.238  0.00  0.00    +0.000 HD
ENDROOT
BRANCH   1  12
ATOM      8  C   UNL     1       8.270   8.194  17.785  0.00  0.00    +0.000 C 
ATOM      9  C   UNL     1       7.249   7.093  17.777  0.00  0.00    +0.000 A 
ATOM     10  C   UNL     1       6.253   7.036  16.795  0.00  0.00    +0.000 A 
ATOM     11  C   UNL     1       5.278   6.035  16.837  0.00  0.00    +0.000 A 
ATOM     12  C   UNL     1       5.293   5.081  17.862  0.00  0.00    +0.000 A 
ATOM     13  C   UNL     1       6.338   5.084  18.790  0.00  0.00    +0.000 A 
ATOM     14  C   UNL     1       7.285   6.109  18.770  0.00  0.00    +0.000 A 
ENDBRANCH   1  12
BRANCH   6  15
ATOM     15  C   UNL     1       2.479   5.386  19.248  0.00  0.00    +0.000 A 
ATOM     16  C   UNL     1       1.951   5.324  20.548  0.00  0.00    +0.000 A 
ATOM     17  C   UNL     1       1.434   6.459  21.185  0.00  0.00    +0.000 A 
ATOM     18  C   UNL     1       1.484   7.695  20.543  0.00  0.00    +0.000 A 
ATOM     19  C   UNL     1       2.007   7.792  19.256  0.00  0.00    +0.000 A 
ATOM     20  C   UNL     1       2.473   6.638  18.610  0.00  0.00    +0.000 A 
BRANCH  18  21
ATOM     21  S   UNL     1       0.799   9.126  21.331  0.00  0.00    +0.000 S 
ATOM     22  O   UNL     1       0.966  10.270  20.466  0.00  0.00    +0.000 OA
ATOM     23  O   UNL     1      -0.472   8.775  21.919  0.00  0.00    +0.000 OA
BRANCH  21  24
ATOM     24  N   UNL     1       1.856   9.360  22.614  0.00  0.00    +0.000 NA
ATOM     25  H   UNL     1       2.512   8.576  22.659  0.00  0.00    +0.000 HD
ATOM     26  H   UNL     1       2.318  10.265  22.514  0.00  0.00    +0.000 HD
ENDBRANCH  21  24
ENDBRANCH  18  21
ENDBRANCH   6  15
TORSDOF 4
ENDMDL
MODEL 2
REMARK VINA RESULT:      -7.7      0.075      1.006
REMARK  Name = 
REMARK  5 active torsions:
REMARK  status: ('A' for Active; 'I' for Inactive)
REMARK    1  A    between atoms: C_1  and  C_2
REMARK    2  A    between atoms: C_5  and  C_6
REMARK    3  A    between atoms: N_11  and  C_12
REMARK    4  A    between atoms: C_15  and  S_16
REMARK    5  A    between atoms: S_16  and  N_17
REMARK                            x       y       z     vdW  Elec       q    Type
REMARK                         _______ _______ _______ _____ _____    ______ ____
ROOT
ATOM      1  C   UNL     1       4.243   4.148  17.915  0.00  0.00    +0.000 A 
ATOM      2  N   UNL     1       4.371   3.010  17.283  0.00  0.00    +0.000 NA
ATOM      3  N   UNL     1       3.245   2.321  17.588  0.00  0.00    +0.000 N 
ATOM      4  C   UNL     1       2.401   3.073  18.394  0.00  0.00    +0.000 A 
ATOM      5  S   UNL     1       0.901   2.492  18.815  0.00  0.00    +0.000 S 
ATOM      6  N   UNL     1       3.054   4.278  18.616  0.00  0.00    +0.000 N 
ATOM      7  H   UNL     1       3.044   1.408  17.194  0.00  0.00    +0.000 HD
ENDROOT
BRANCH   1  12
ATOM      8  C   UNL     1       8.311   8.262  17.844  0.00  0.00    +0.000 C 
ATOM      9  C   UNL     1       7.291   7.162  17.820  0.00  0.00    +0.000 A 
ATOM     10  C   UNL     1       6.288   7.127  16.844  0.00  0.00    +0.000 A 
ATOM     11  C   UNL     1       5.312   6.124  16.872  0.00  0.00    +0.000 A 
ATOM     12  C   UNL     1       5.335   5.148  17.876  0.00  0.00    +0.000 A 
ATOM     13  C   UNL     1       6.387   5.131  18.795  0.00  0.00    +0.000 A 
ATOM     14  C   UNL     1       7.335   6.156  18.791  0.00  0.00    +0.000 A 
ENDBRANCH   1  12
BRANCH   6  15
ATOM     15  C   UNL     1       2.526   5.428  19.277  0.00  0.00    +0.000 A 
ATOM     16  C   UNL     1       2.500   6.682  18.645  0.00  0.00    +0.000 A 
ATOM     17  C   UNL     1       1.978   7.814  19.282  0.00  0.00    +0.000 A 
ATOM     18  C   UNL     1       1.424   7.696  20.556  0.00  0.00    +0.000 A 
ATOM     19  C   UNL     1       1.429   6.466  21.207  0.00  0.00    +0.000 A 
ATOM     20  C   UNL     1       2.002   5.352  20.579  0.00  0.00    +0.000 A 
BRANCH  18  21
ATOM     21  S   UNL     1       0.795   9.133  21.379  0.00  0.00    +0.000 S 
ATOM     22  O   UNL     1       0.967  10.284  20.524  0.00  0.00    +0.000 OA
ATOM     23  O   UNL     1      -0.469   8.806  21.996  0.00  0.00    +0.000 OA
BRANCH  21  24
ATOM     24  N   UNL     1       1.890   9.325  22.637  0.00  0.00    +0.000 NA
ATOM     25  H   UNL     1       2.830   9.100  22.304  0.00  0.00    +0.000 HD
ATOM     26  H   UNL     1       1.813  10.271  23.014  0.00  0.00    +0.000 HD
ENDBRANCH  21  24
ENDBRANCH  18  21
ENDBRANCH   6  15
TORSDOF 4
ENDMDL
MODEL 3
REMARK VINA RESULT:      -7.5      0.953      1.533
REMARK  Name = 
REMARK  5 active torsions:
REMARK  status: ('A' for Active; 'I' for Inactive)
REMARK    1  A    between atoms: C_1  and  C_2
REMARK    2  A    between atoms: C_5  and  C_6
REMARK    3  A    between atoms: N_11  and  C_12
REMARK    4  A    between atoms: C_15  and  S_16
REMARK    5  A    between atoms: S_16  and  N_17
REMARK                            x       y       z     vdW  Elec       q    Type
REMARK                         _______ _______ _______ _____ _____    ______ ____
ROOT
ATOM      1  C   UNL     1       5.368   4.764  17.556  0.00  0.00    +0.000 A 
ATOM      2  N   UNL     1       5.719   3.726  16.843  0.00  0.00    +0.000 NA
ATOM      3  N   UNL     1       4.668   2.875  16.938  0.00  0.00    +0.000 N 
ATOM      4  C   UNL     1       3.645   3.426  17.697  0.00  0.00    +0.000 A 
ATOM      5  S   UNL     1       2.199   2.624  17.869  0.00  0.00    +0.000 S 
ATOM      6  N   UNL     1       4.101   4.671  18.111  0.00  0.00    +0.000 N 
ATOM      7  H   UNL     1       4.637   1.993  16.438  0.00  0.00    +0.000 HD
ENDROOT
BRANCH   1  12
ATOM      8  C   UNL     1       8.837   9.312  18.430  0.00  0.00    +0.000 C 
ATOM      9  C   UNL     1       7.975   8.114  18.155  0.00  0.00    +0.000 A 
ATOM     10  C   UNL     1       6.970   8.154  17.182  0.00  0.00    +0.000 A 
ATOM     11  C   UNL     1       6.141   7.046  16.979  0.00  0.00    +0.000 A 
ATOM     12  C   UNL     1       6.313   5.888  17.749  0.00  0.00    +0.000 A 
ATOM     13  C   UNL     1       7.372   5.817  18.657  0.00  0.00    +0.000 A 
ATOM     14  C   UNL     1       8.171   6.938  18.887  0.00  0.00    +0.000 A 
ENDBRANCH   1  12
BRANCH   6  15
ATOM     15  C   UNL     1       3.351   5.669  18.803  0.00  0.00    +0.000 A 
ATOM     16  C   UNL     1       3.010   6.883  18.184  0.00  0.00    +0.000 A 
ATOM     17  C   UNL     1       2.269   7.865  18.853  0.00  0.00    +0.000 A 
ATOM     18  C   UNL     1       1.813   7.624  20.148  0.00  0.00    +0.000 A 
ATOM     19  C   UNL     1       2.129   6.429  20.788  0.00  0.00    +0.000 A 
ATOM     20  C   UNL     1       2.915   5.476  20.126  0.00  0.00    +0.000 A 
BRANCH  18  21
ATOM     21  S   UNL     1       0.907   8.879  21.010  0.00  0.00    +0.000 S 
ATOM     22  O   UNL     1       0.975  10.112  20.263  0.00  0.00    +0.000 OA
ATOM     23  O   UNL     1      -0.341   8.321  21.475  0.00  0.00    +0.000 OA
BRANCH  21  24
ATOM     24  N   UNL     1       1.849   9.115  22.378  0.00  0.00    +0.000 NA
ATOM     25  H   UNL     1       2.571   8.392  22.422  0.00  0.00    +0.000 HD
ATOM     26  H   UNL     1       2.230  10.063  22.369  0.00  0.00    +0.000 HD
ENDBRANCH  21  24
ENDBRANCH  18  21
ENDBRANCH   6  15
TORSDOF 4
ENDMDL
MODEL 4
REMARK VINA RESULT:      -7.5      0.959      1.161
REMARK  Name = 
REMARK  5 active torsions:
REMARK  status: ('A' for Active; 'I' for Inactive)
REMARK    1  A    between atoms: C_1  and  C_2
REMARK    2  A    between atoms: C_5  and  C_6
REMARK    3  A    between atoms: N_11  and  C_12
REMARK    4  A    between atoms: C_15  and  S_16
REMARK    5  A    between atoms: S_16  and  N_17
REMARK                            x       y       z     vdW  Elec       q    Type
REMARK                         _______ _______ _______ _____ _____    ______ ____
ROOT
ATOM      1  C   UNL     1       5.370   4.721  17.554  0.00  0.00    +0.000 A 
ATOM      2  N   UNL     1       5.736   3.678  16.857  0.00  0.00    +0.000 NA
ATOM      3  N   UNL     1       4.693   2.818  16.954  0.00  0.00    +0.000 N 
ATOM      4  C   UNL     1       3.659   3.368  17.699  0.00  0.00    +0.000 A 
ATOM      5  S   UNL     1       2.219   2.555  17.869  0.00  0.00    +0.000 S 
ATOM      6  N   UNL     1       4.100   4.623  18.100  0.00  0.00    +0.000 N 
ATOM      7  H   UNL     1       4.675   1.930  16.465  0.00  0.00    +0.000 HD
ENDROOT
BRANCH   1  12
ATOM      8  C   UNL     1       8.790   9.311  18.403  0.00  0.00    +0.000 C 
ATOM      9  C   UNL     1       7.941   8.103  18.134  0.00  0.00    +0.000 A 
ATOM     10  C   UNL     1       6.926   8.132  17.171  0.00  0.00    +0.000 A 
ATOM     11  C   UNL     1       6.109   7.013  16.974  0.00  0.00    +0.000 A 
ATOM     12  C   UNL     1       6.303   5.857  17.739  0.00  0.00    +0.000 A 
ATOM     13  C   UNL     1       7.372   5.797  18.637  0.00  0.00    +0.000 A 
ATOM     14  C   UNL     1       8.159   6.928  18.862  0.00  0.00    +0.000 A 
ENDBRANCH   1  12
BRANCH   6  15
ATOM     15  C   UNL     1       3.335   5.622  18.774  0.00  0.00    +0.000 A 
ATOM     16  C   UNL     1       2.913   5.443  20.102  0.00  0.00    +0.000 A 
ATOM     17  C   UNL     1       2.169   6.420  20.774  0.00  0.00    +0.000 A 
ATOM     18  C   UNL     1       1.875   7.625  20.137  0.00  0.00    +0.000 A 
ATOM     19  C   UNL     1       2.284   7.836  18.823  0.00  0.00    +0.000 A 
ATOM     20  C   UNL     1       2.983   6.829  18.144  0.00  0.00    +0.000 A 
BRANCH  18  21
ATOM     21  S   UNL     1       0.903   8.848  20.971  0.00  0.00    +0.000 S 
ATOM     22  O   UNL     1       0.947  10.081  20.222  0.00  0.00    +0.000 OA
ATOM     23  O   UNL     1      -0.336   8.247  21.406  0.00  0.00    +0.000 OA
BRANCH  21  24
ATOM     24  N   UNL     1       1.801   9.121  22.362  0.00  0.00    +0.000 NA
ATOM     25  H   UNL     1       2.538   8.416  22.433  0.00  0.00    +0.000 HD
ATOM     26  H   UNL     1       2.159  10.077  22.354  0.00  0.00    +0.000 HD
ENDBRANCH  21  24
ENDBRANCH  18  21
ENDBRANCH   6  15
TORSDOF 4
ENDMDL
MODEL 5
REMARK VINA RESULT:      -7.3      1.544      1.667
REMARK  Name = 
REMARK  5 active torsions:
REMARK  status: ('A' for Active; 'I' for Inactive)
REMARK    1  A    between atoms: C_1  and  C_2
REMARK    2  A    between atoms: C_5  and  C_6
REMARK    3  A    between atoms: N_11  and  C_12
REMARK    4  A    between atoms: C_15  and  S_16
REMARK    5  A    between atoms: S_16  and  N_17
REMARK                            x       y       z     vdW  Elec       q    Type
REMARK                         _______ _______ _______ _____ _____    ______ ____
ROOT
ATOM      1  C   UNL     1       4.371   4.502  18.798  0.00  0.00    +0.000 A 
ATOM      2  N   UNL     1       4.557   3.210  18.732  0.00  0.00    +0.000 NA
ATOM      3  N   UNL     1       3.388   2.674  19.159  0.00  0.00    +0.000 N 
ATOM      4  C   UNL     1       2.462   3.665  19.457  0.00  0.00    +0.000 A 
ATOM      5  S   UNL     1       0.910   3.262  19.894  0.00  0.00    +0.000 S 
ATOM      6  N   UNL     1       3.105   4.874  19.224  0.00  0.00    +0.000 N 
ATOM      7  H   UNL     1       3.221   1.673  19.169  0.00  0.00    +0.000 HD
ENDROOT
BRANCH   1  12
ATOM      8  C   UNL     1       8.525   8.355  17.623  0.00  0.00    +0.000 C 
ATOM      9  C   UNL     1       7.473   7.317  17.883  0.00  0.00    +0.000 A 
ATOM     10  C   UNL     1       6.313   7.251  17.103  0.00  0.00    +0.000 A 
ATOM     11  C   UNL     1       5.318   6.312  17.397  0.00  0.00    +0.000 A 
ATOM     12  C   UNL     1       5.478   5.431  18.473  0.00  0.00    +0.000 A 
ATOM     13  C   UNL     1       6.675   5.437  19.195  0.00  0.00    +0.000 A 
ATOM     14  C   UNL     1       7.647   6.402  18.927  0.00  0.00    +0.000 A 
ENDBRANCH   1  12
BRANCH   6  15
ATOM     15  C   UNL     1       2.519   6.175  19.261  0.00  0.00    +0.000 A 
ATOM     16  C   UNL     1       2.120   6.758  20.475  0.00  0.00    +0.000 A 
ATOM     17  C   UNL     1       1.551   8.036  20.522  0.00  0.00    +0.000 A 
ATOM     18  C   UNL     1       1.415   8.777  19.349  0.00  0.00    +0.000 A 
ATOM     19  C   UNL     1       1.807   8.230  18.130  0.00  0.00    +0.000 A 
ATOM     20  C   UNL     1       2.328   6.929  18.090  0.00  0.00    +0.000 A 
BRANCH  18  21
ATOM     21  S   UNL     1       0.662  10.379  19.401  0.00  0.00    +0.000 S 
ATOM     22  O   UNL     1      -0.690  10.285  18.904  0.00  0.00    +0.000 OA
ATOM     23  O   UNL     1       0.986  11.010  20.658  0.00  0.00    +0.000 OA
BRANCH  21  24
ATOM     24  N   UNL     1       1.527  11.212  18.227  0.00  0.00    +0.000 NA
ATOM     25  H   UNL     1       1.342  12.213  18.318  0.00  0.00    +0.000 HD
ATOM     26  H   UNL     1       2.518  10.978  18.305  0.00  0.00    +0.000 HD
ENDBRANCH  21  24
ENDBRANCH  18  21
ENDBRANCH   6  15
TORSDOF 4
ENDMDL
MODEL 6
REMARK VINA RESULT:      -7.2      1.574      1.929
REMARK  Name = 
REMARK  5 active torsions:
REMARK  status: ('A' for Active; 'I' for Inactive)
REMARK    1  A    between atoms: C_1  and  C_2
REMARK    2  A    between atoms: C_5  and  C_6
REMARK    3  A    between atoms: N_11  and  C_12
REMARK    4  A    between atoms: C_15  and  S_16
REMARK    5  A    between atoms: S_16  and  N_17
REMARK                            x       y       z     vdW  Elec       q    Type
REMARK                         _______ _______ _______ _____ _____    ______ ____
ROOT
ATOM      1  C   UNL     1       4.391   4.529  18.882  0.00  0.00    +0.000 A 
ATOM      2  N   UNL     1       4.572   3.235  18.826  0.00  0.00    +0.000 NA
ATOM      3  N   UNL     1       3.410   2.708  19.282  0.00  0.00    +0.000 N 
ATOM      4  C   UNL     1       2.493   3.704  19.589  0.00  0.00    +0.000 A 
ATOM      5  S   UNL     1       0.949   3.312  20.062  0.00  0.00    +0.000 S 
ATOM      6  N   UNL     1       3.135   4.909  19.330  0.00  0.00    +0.000 N 
ATOM      7  H   UNL     1       3.240   1.708  19.306  0.00  0.00    +0.000 HD
ENDROOT
BRANCH   1  12
ATOM      8  C   UNL     1       8.531   8.356  17.581  0.00  0.00    +0.000 C 
ATOM      9  C   UNL     1       7.481   7.324  17.874  0.00  0.00    +0.000 A 
ATOM     10  C   UNL     1       6.309   7.248  17.114  0.00  0.00    +0.000 A 
ATOM     11  C   UNL     1       5.318   6.315  17.438  0.00  0.00    +0.000 A 
ATOM     12  C   UNL     1       5.494   5.450  18.525  0.00  0.00    +0.000 A 
ATOM     13  C   UNL     1       6.702   5.466  19.228  0.00  0.00    +0.000 A 
ATOM     14  C   UNL     1       7.671   6.425  18.929  0.00  0.00    +0.000 A 
ENDBRANCH   1  12
BRANCH   6  15
ATOM     15  C   UNL     1       2.554   6.212  19.365  0.00  0.00    +0.000 A 
ATOM     16  C   UNL     1       2.394   6.970  18.193  0.00  0.00    +0.000 A 
ATOM     17  C   UNL     1       1.818   8.246  18.217  0.00  0.00    +0.000 A 
ATOM     18  C   UNL     1       1.346   8.769  19.420  0.00  0.00    +0.000 A 
ATOM     19  C   UNL     1       1.484   8.041  20.599  0.00  0.00    +0.000 A 
ATOM     20  C   UNL     1       2.109   6.786  20.569  0.00  0.00    +0.000 A 
BRANCH  18  21
ATOM     21  S   UNL     1       0.651  10.397  19.460  0.00  0.00    +0.000 S 
ATOM     22  O   UNL     1      -0.724  10.337  19.024  0.00  0.00    +0.000 OA
ATOM     23  O   UNL     1       1.049  11.048  20.686  0.00  0.00    +0.000 OA
BRANCH  21  24
ATOM     24  N   UNL     1       1.492  11.168  18.229  0.00  0.00    +0.000 NA
ATOM     25  H   UNL     1       1.606  12.157  18.465  0.00  0.00    +0.000 HD
ATOM     26  H   UNL     1       2.379  10.688  18.071  0.00  0.00    +0.000 HD
ENDBRANCH  21  24
ENDBRANCH  18  21
ENDBRANCH   6  15
TORSDOF 4
ENDMDL
MODEL 7
REMARK VINA RESULT:      -7.2      1.103      1.646
REMARK  Name = 
REMARK  5 active torsions:
REMARK  status: ('A' for Active; 'I' for Inactive)
REMARK    1  A    between atoms: C_1  and  C_2
REMARK    2  A    between atoms: C_5  and  C_6
REMARK    3  A    between atoms: N_11  and  C_12
REMARK    4  A    between atoms: C_15  and  S_16
REMARK    5  A    between atoms: S_16  and  N_17
REMARK                            x       y       z     vdW  Elec       q    Type
REMARK                         _______ _______ _______ _____ _____    ______ ____
ROOT
ATOM      1  C   UNL     1       4.207   4.425  18.236  0.00  0.00    +0.000 A 
ATOM      2  N   UNL     1       4.319   3.182  17.847  0.00  0.00    +0.000 NA
ATOM      3  N   UNL     1       3.141   2.608  18.195  0.00  0.00    +0.000 N 
ATOM      4  C   UNL     1       2.285   3.534  18.776  0.00  0.00    +0.000 A 
ATOM      5  S   UNL     1       0.734   3.102  19.188  0.00  0.00    +0.000 S 
ATOM      6  N   UNL     1       2.983   4.734  18.809  0.00  0.00    +0.000 N 
ATOM      7  H   UNL     1       2.920   1.644  17.970  0.00  0.00    +0.000 HD
ENDROOT
BRANCH   1  12
ATOM      8  C   UNL     1       8.486   8.288  17.732  0.00  0.00    +0.000 C 
ATOM      9  C   UNL     1       7.406   7.249  17.820  0.00  0.00    +0.000 A 
ATOM     10  C   UNL     1       6.348   7.226  16.905  0.00  0.00    +0.000 A 
ATOM     11  C   UNL     1       5.322   6.284  17.037  0.00  0.00    +0.000 A 
ATOM     12  C   UNL     1       5.349   5.357  18.086  0.00  0.00    +0.000 A 
ATOM     13  C   UNL     1       6.450   5.322  18.946  0.00  0.00    +0.000 A 
ATOM     14  C   UNL     1       7.451   6.289  18.837  0.00  0.00    +0.000 A 
ENDBRANCH   1  12
BRANCH   6  15
ATOM     15  C   UNL     1       2.472   6.010  19.195  0.00  0.00    +0.000 A 
ATOM     16  C   UNL     1       2.347   7.055  18.264  0.00  0.00    +0.000 A 
ATOM     17  C   UNL     1       1.840   8.307  18.632  0.00  0.00    +0.000 A 
ATOM     18  C   UNL     1       1.401   8.519  19.937  0.00  0.00    +0.000 A 
ATOM     19  C   UNL     1       1.505   7.502  20.882  0.00  0.00    +0.000 A 
ATOM     20  C   UNL     1       2.063   6.270  20.514  0.00  0.00    +0.000 A 
BRANCH  18  21
ATOM     21  S   UNL     1       0.793  10.113  20.414  0.00  0.00    +0.000 S 
ATOM     22  O   UNL     1       0.847  10.232  21.852  0.00  0.00    +0.000 OA
ATOM     23  O   UNL     1       1.348  11.111  19.531  0.00  0.00    +0.000 OA
BRANCH  21  24
ATOM     24  N   UNL     1      -0.835  10.000  20.022  0.00  0.00    +0.000 NA
ATOM     25  H   UNL     1      -1.398  10.223  20.846  0.00  0.00    +0.000 HD
ATOM     26  H   UNL     1      -1.036  10.604  19.223  0.00  0.00    +0.000 HD
ENDBRANCH  21  24
ENDBRANCH  18  21
ENDBRANCH   6  15
TORSDOF 4
ENDMDL
MODEL 8
REMARK VINA RESULT:      -7.1      0.965      1.863
REMARK  Name = 
REMARK  5 active torsions:
REMARK  status: ('A' for Active; 'I' for Inactive)
REMARK    1  A    between atoms: C_1  and  C_2
REMARK    2  A    between atoms: C_5  and  C_6
REMARK    3  A    between atoms: N_11  and  C_12
REMARK    4  A    between atoms: C_15  and  S_16
REMARK    5  A    between atoms: S_16  and  N_17
REMARK                            x       y       z     vdW  Elec       q    Type
REMARK                         _______ _______ _______ _____ _____    ______ ____
ROOT
ATOM      1  C   UNL     1       5.367   4.916  17.603  0.00  0.00    +0.000 A 
ATOM      2  N   UNL     1       5.764   3.900  16.883  0.00  0.00    +0.000 NA
ATOM      3  N   UNL     1       4.748   3.006  16.963  0.00  0.00    +0.000 N 
ATOM      4  C   UNL     1       3.699   3.508  17.721  0.00  0.00    +0.000 A 
ATOM      5  S   UNL     1       2.286   2.647  17.877  0.00  0.00    +0.000 S 
ATOM      6  N   UNL     1       4.102   4.767  18.150  0.00  0.00    +0.000 N 
ATOM      7  H   UNL     1       4.756   2.129  16.455  0.00  0.00    +0.000 HD
ENDROOT
BRANCH   1  12
ATOM      8  C   UNL     1       9.094   9.288  18.290  0.00  0.00    +0.000 C 
ATOM      9  C   UNL     1       8.094   8.176  18.162  0.00  0.00    +0.000 A 
ATOM     10  C   UNL     1       8.214   7.005  18.918  0.00  0.00    +0.000 A 
ATOM     11  C   UNL     1       7.304   5.957  18.744  0.00  0.00    +0.000 A 
ATOM     12  C   UNL     1       6.265   6.075  17.812  0.00  0.00    +0.000 A 
ATOM     13  C   UNL     1       6.092   7.279  17.123  0.00  0.00    +0.000 A 
ATOM     14  C   UNL     1       7.026   8.306  17.268  0.00  0.00    +0.000 A 
ENDBRANCH   1  12
BRANCH   6  15
ATOM     15  C   UNL     1       3.309   5.727  18.847  0.00  0.00    +0.000 A 
ATOM     16  C   UNL     1       2.961   6.952  18.254  0.00  0.00    +0.000 A 
ATOM     17  C   UNL     1       2.177   7.896  18.928  0.00  0.00    +0.000 A 
ATOM     18  C   UNL     1       1.685   7.606  20.199  0.00  0.00    +0.000 A 
ATOM     19  C   UNL     1       2.007   6.398  20.813  0.00  0.00    +0.000 A 
ATOM     20  C   UNL     1       2.835   5.483  20.148  0.00  0.00    +0.000 A 
BRANCH  18  21
ATOM     21  S   UNL     1       0.724   8.814  21.069  0.00  0.00    +0.000 S 
ATOM     22  O   UNL     1       0.698  10.039  20.305  0.00  0.00    +0.000 OA
ATOM     23  O   UNL     1      -0.474   8.186  21.573  0.00  0.00    +0.000 OA
BRANCH  21  24
ATOM     24  N   UNL     1       1.684   9.127  22.410  0.00  0.00    +0.000 NA
ATOM     25  H   UNL     1       1.984  10.104  22.390  0.00  0.00    +0.000 HD
ATOM     26  H   UNL     1       1.173   8.881  23.259  0.00  0.00    +0.000 HD
ENDBRANCH  21  24
ENDBRANCH  18  21
ENDBRANCH   6  15
TORSDOF 4
ENDMDL
MODEL 9
REMARK VINA RESULT:      -7.1      1.525      2.007
REMARK  Name = 
REMARK  5 active torsions:
REMARK  status: ('A' for Active; 'I' for Inactive)
REMARK    1  A    between atoms: C_1  and  C_2
REMARK    2  A    between atoms: C_5  and  C_6
REMARK    3  A    between atoms: N_11  and  C_12
REMARK    4  A    between atoms: C_15  and  S_16
REMARK    5  A    between atoms: S_16  and  N_17
REMARK                            x       y       z     vdW  Elec       q    Type
REMARK                         _______ _______ _______ _____ _____    ______ ____
ROOT
ATOM      1  C   UNL     1       5.096   4.892  17.922  0.00  0.00    +0.000 A 
ATOM      2  N   UNL     1       5.409   3.677  17.554  0.00  0.00    +0.000 NA
ATOM      3  N   UNL     1       4.257   2.974  17.683  0.00  0.00    +0.000 N 
ATOM      4  C   UNL     1       3.217   3.790  18.106  0.00  0.00    +0.000 A 
ATOM      5  S   UNL     1       1.672   3.189  18.232  0.00  0.00    +0.000 S 
ATOM      6  N   UNL     1       3.764   5.057  18.269  0.00  0.00    +0.000 N 
ATOM      7  H   UNL     1       4.185   1.997  17.418  0.00  0.00    +0.000 HD
ENDROOT
BRANCH   1  12
ATOM      8  C   UNL     1       8.967   9.178  18.276  0.00  0.00    +0.000 C 
ATOM      9  C   UNL     1       7.997   8.041  18.136  0.00  0.00    +0.000 A 
ATOM     10  C   UNL     1       6.956   8.089  17.203  0.00  0.00    +0.000 A 
ATOM     11  C   UNL     1       6.029   7.044  17.126  0.00  0.00    +0.000 A 
ATOM     12  C   UNL     1       6.139   5.942  17.983  0.00  0.00    +0.000 A 
ATOM     13  C   UNL     1       7.230   5.852  18.852  0.00  0.00    +0.000 A 
ATOM     14  C   UNL     1       8.129   6.915  18.956  0.00  0.00    +0.000 A 
ENDBRANCH   1  12
BRANCH   6  15
ATOM     15  C   UNL     1       3.058   6.262  18.562  0.00  0.00    +0.000 A 
ATOM     16  C   UNL     1       2.765   7.197  17.555  0.00  0.00    +0.000 A 
ATOM     17  C   UNL     1       2.067   8.378  17.832  0.00  0.00    +0.000 A 
ATOM     18  C   UNL     1       1.605   8.622  19.124  0.00  0.00    +0.000 A 
ATOM     19  C   UNL     1       1.874   7.713  20.144  0.00  0.00    +0.000 A 
ATOM     20  C   UNL     1       2.619   6.559  19.864  0.00  0.00    +0.000 A 
BRANCH  18  21
ATOM     21  S   UNL     1       0.753  10.132  19.485  0.00  0.00    +0.000 S 
ATOM     22  O   UNL     1      -0.620  10.018  19.054  0.00  0.00    +0.000 OA
ATOM     23  O   UNL     1       1.118  10.572  20.811  0.00  0.00    +0.000 OA
BRANCH  21  24
ATOM     24  N   UNL     1       1.482  11.209  18.423  0.00  0.00    +0.000 NA
ATOM     25  H   UNL     1       1.029  11.141  17.509  0.00  0.00    +0.000 HD
ATOM     26  H   UNL     1       1.450  12.150  18.818  0.00  0.00    +0.000 HD
ENDBRANCH  21  24
ENDBRANCH  18  21
ENDBRANCH   6  15
TORSDOF 4
ENDMDL
