MODEL 1
REMARK VINA RESULT:      -7.0      0.000      0.000
REMARK  Name = 
REMARK  5 active torsions:
REMARK  status: ('A' for Active; 'I' for Inactive)
REMARK    1  A    between atoms: N_1  and  N_2
REMARK    2  A    between atoms: N_2  and  S_3
REMARK    3  A    between atoms: S_3  and  C_6
REMARK    4  A    between atoms: C_9  and  N_10
REMARK    5  A    between atoms: C_16  and  N_17
REMARK                            x       y       z     vdW  Elec       q    Type
REMARK                         _______ _______ _______ _____ _____    ______ ____
ROOT
ATOM      1  C   UNL     1       5.482   5.136  17.296  0.00  0.00    +0.000 A 
ATOM      2  C   UNL     1       5.240   5.855  18.463  0.00  0.00    +0.000 A 
ATOM      3  C   UNL     1       4.349   5.351  19.420  0.00  0.00    +0.000 A 
ATOM      4  C   UNL     1       3.683   4.120  19.259  0.00  0.00    +0.000 A 
ATOM      5  C   UNL     1       3.940   3.435  18.053  0.00  0.00    +0.000 A 
ATOM      6  C   UNL     1       4.832   3.924  17.076  0.00  0.00    +0.000 A 
ENDROOT
BRANCH   4   7
ATOM      7  N   UNL     1       2.874   3.630  20.334  0.00  0.00    +0.000 N 
ATOM      8  C   UNL     1       1.456   3.905  20.445  0.00  0.00    +0.000 C 
ATOM      9  C   UNL     1       1.044   3.245  21.746  0.00  0.00    +0.000 C 
ATOM     10  C   UNL     1       1.973   2.054  21.848  0.00  0.00    +0.000 C 
ATOM     11  C   UNL     1       3.220   2.537  21.152  0.00  0.00    +0.000 C 
ATOM     12  O   UNL     1       4.311   2.002  21.282  0.00  0.00    +0.000 OA
ENDBRANCH   4   7
BRANCH   1  13
ATOM     13  S   UNL     1       6.708   5.714  16.148  0.00  0.00    +0.000 S 
ATOM     14  O   UNL     1       7.355   6.863  16.754  0.00  0.00    +0.000 OA
ATOM     15  O   UNL     1       6.099   5.776  14.840  0.00  0.00    +0.000 OA
BRANCH  13  16
ATOM     16  N   UNL     1       7.861   4.418  16.202  0.00  0.00    +0.000 NA
ATOM     17  H   UNL     1       7.495   3.594  15.711  0.00  0.00    +0.000 HD
BRANCH  16  18
ATOM     18  N   UNL     1       8.185   4.158  17.560  0.00  0.00    +0.000 NA
ATOM     19  H   UNL     1       7.399   4.412  18.160  0.00  0.00    +0.000 HD
ATOM     20  H   UNL     1       8.988   4.737  17.836  0.00  0.00    +0.000 HD
ENDBRANCH  16  18
ENDBRANCH  13  16
ENDBRANCH   1  13
BRANCH   5  21
ATOM     21  N   UNL     1       3.222   2.234  17.685  0.00  0.00    +0.000 N 
ATOM     22  O   UNL     1       3.757   1.148  17.940  0.00  0.00    +0.000 OA
ATOM     23  O   UNL     1       2.107   2.387  17.170  0.00  0.00    +0.000 OA
ENDBRANCH   5  21
TORSDOF 5
ENDMDL
MODEL 2
REMARK VINA RESULT:      -7.0      2.702      5.786
REMARK  Name = 
REMARK  5 active torsions:
REMARK  status: ('A' for Active; 'I' for Inactive)
REMARK    1  A    between atoms: N_1  and  N_2
REMARK    2  A    between atoms: N_2  and  S_3
REMARK    3  A    between atoms: S_3  and  C_6
REMARK    4  A    between atoms: C_9  and  N_10
REMARK    5  A    between atoms: C_16  and  N_17
REMARK                            x       y       z     vdW  Elec       q    Type
REMARK                         _______ _______ _______ _____ _____    ______ ____
ROOT
ATOM      1  C   UNL     1       2.958   3.844  18.616  0.00  0.00    +0.000 A 
ATOM      2  C   UNL     1       3.519   4.572  19.661  0.00  0.00    +0.000 A 
ATOM      3  C   UNL     1       4.691   5.311  19.446  0.00  0.00    +0.000 A 
ATOM      4  C   UNL     1       5.331   5.363  18.192  0.00  0.00    +0.000 A 
ATOM      5  C   UNL     1       4.742   4.595  17.168  0.00  0.00    +0.000 A 
ATOM      6  C   UNL     1       3.565   3.843  17.362  0.00  0.00    +0.000 A 
ENDROOT
BRANCH   4   7
ATOM      7  N   UNL     1       6.461   6.229  18.035  0.00  0.00    +0.000 N 
ATOM      8  C   UNL     1       6.374   7.541  17.426  0.00  0.00    +0.000 C 
ATOM      9  C   UNL     1       7.801   8.051  17.424  0.00  0.00    +0.000 C 
ATOM     10  C   UNL     1       8.405   7.421  18.660  0.00  0.00    +0.000 C 
ATOM     11  C   UNL     1       7.653   6.119  18.777  0.00  0.00    +0.000 C 
ATOM     12  O   UNL     1       8.042   5.177  19.452  0.00  0.00    +0.000 OA
ENDBRANCH   4   7
BRANCH   1  13
ATOM     13  S   UNL     1       1.406   3.016  18.858  0.00  0.00    +0.000 S 
ATOM     14  O   UNL     1       1.703   1.632  19.180  0.00  0.00    +0.000 OA
ATOM     15  O   UNL     1       0.532   3.379  17.766  0.00  0.00    +0.000 OA
BRANCH  13  16
ATOM     16  N   UNL     1       0.853   3.754  20.328  0.00  0.00    +0.000 NA
ATOM     17  H   UNL     1       1.371   4.622  20.508  0.00  0.00    +0.000 HD
BRANCH  16  18
ATOM     18  N   UNL     1       0.969   2.808  21.380  0.00  0.00    +0.000 NA
ATOM     19  H   UNL     1       1.882   2.352  21.339  0.00  0.00    +0.000 HD
ATOM     20  H   UNL     1       0.253   2.080  21.266  0.00  0.00    +0.000 HD
ENDBRANCH  16  18
ENDBRANCH  13  16
ENDBRANCH   1  13
BRANCH   5  21
ATOM     21  N   UNL     1       5.365   4.437  15.872  0.00  0.00    +0.000 N 
ATOM     22  O   UNL     1       6.000   3.396  15.666  0.00  0.00    +0.000 OA
ATOM     23  O   UNL     1       5.185   5.347  15.052  0.00  0.00    +0.000 OA
ENDBRANCH   5  21
TORSDOF 5
ENDMDL
MODEL 3
REMARK VINA RESULT:      -6.9      2.961      3.891
REMARK  Name = 
REMARK  5 active torsions:
REMARK  status: ('A' for Active; 'I' for Inactive)
REMARK    1  A    between atoms: N_1  and  N_2
REMARK    2  A    between atoms: N_2  and  S_3
REMARK    3  A    between atoms: S_3  and  C_6
REMARK    4  A    between atoms: C_9  and  N_10
REMARK    5  A    between atoms: C_16  and  N_17
REMARK                            x       y       z     vdW  Elec       q    Type
REMARK                         _______ _______ _______ _____ _____    ______ ____
ROOT
ATOM      1  C   UNL     1       5.574   5.430  16.594  0.00  0.00    +0.000 A 
ATOM      2  C   UNL     1       5.571   6.806  16.805  0.00  0.00    +0.000 A 
ATOM      3  C   UNL     1       4.509   7.402  17.499  0.00  0.00    +0.000 A 
ATOM      4  C   UNL     1       3.431   6.657  18.016  0.00  0.00    +0.000 A 
ATOM      5  C   UNL     1       3.464   5.271  17.761  0.00  0.00    +0.000 A 
ATOM      6  C   UNL     1       4.521   4.650  17.064  0.00  0.00    +0.000 A 
ENDROOT
BRANCH   4   7
ATOM      7  N   UNL     1       2.445   7.332  18.804  0.00  0.00    +0.000 N 
ATOM      8  C   UNL     1       2.248   7.073  20.216  0.00  0.00    +0.000 C 
ATOM      9  C   UNL     1       1.083   7.961  20.604  0.00  0.00    +0.000 C 
ATOM     10  C   UNL     1       1.227   9.156  19.687  0.00  0.00    +0.000 C 
ATOM     11  C   UNL     1       1.854   8.561  18.452  0.00  0.00    +0.000 C 
ATOM     12  O   UNL     1       1.854   9.118  17.364  0.00  0.00    +0.000 OA
ENDBRANCH   4   7
BRANCH   1  13
ATOM     13  S   UNL     1       6.983   4.664  15.830  0.00  0.00    +0.000 S 
ATOM     14  O   UNL     1       7.859   4.216  16.896  0.00  0.00    +0.000 OA
ATOM     15  O   UNL     1       7.443   5.534  14.772  0.00  0.00    +0.000 OA
BRANCH  13  16
ATOM     16  N   UNL     1       6.266   3.237  15.152  0.00  0.00    +0.000 NA
ATOM     17  H   UNL     1       6.768   2.399  15.470  0.00  0.00    +0.000 HD
BRANCH  16  18
ATOM     18  N   UNL     1       6.243   3.370  13.738  0.00  0.00    +0.000 NA
ATOM     19  H   UNL     1       7.198   3.414  13.378  0.00  0.00    +0.000 HD
ATOM     20  H   UNL     1       5.774   4.248  13.485  0.00  0.00    +0.000 HD
ENDBRANCH  16  18
ENDBRANCH  13  16
ENDBRANCH   1  13
BRANCH   5  21
ATOM     21  N   UNL     1       2.359   4.401  18.103  0.00  0.00    +0.000 N 
ATOM     22  O   UNL     1       2.463   3.722  19.131  0.00  0.00    +0.000 OA
ATOM     23  O   UNL     1       1.374   4.430  17.354  0.00  0.00    +0.000 OA
ENDBRANCH   5  21
TORSDOF 5
ENDMDL
MODEL 4
REMARK VINA RESULT:      -6.8      2.899      3.873
REMARK  Name = 
REMARK  5 active torsions:
REMARK  status: ('A' for Active; 'I' for Inactive)
REMARK    1  A    between atoms: N_1  and  N_2
REMARK    2  A    between atoms: N_2  and  S_3
REMARK    3  A    between atoms: S_3  and  C_6
REMARK    4  A    between atoms: C_9  and  N_10
REMARK    5  A    between atoms: C_16  and  N_17
REMARK                            x       y       z     vdW  Elec       q    Type
REMARK                         _______ _______ _______ _____ _____    ______ ____
ROOT
ATOM      1  C   UNL     1       5.222   5.365  16.369  0.00  0.00    +0.000 A 
ATOM      2  C   UNL     1       5.291   6.736  16.599  0.00  0.00    +0.000 A 
ATOM      3  C   UNL     1       4.308   7.362  17.378  0.00  0.00    +0.000 A 
ATOM      4  C   UNL     1       3.240   6.651  17.961  0.00  0.00    +0.000 A 
ATOM      5  C   UNL     1       3.197   5.269  17.684  0.00  0.00    +0.000 A 
ATOM      6  C   UNL     1       4.174   4.619  16.903  0.00  0.00    +0.000 A 
ENDROOT
BRANCH   4   7
ATOM      7  N   UNL     1       2.343   7.351  18.830  0.00  0.00    +0.000 N 
ATOM      8  C   UNL     1       2.257   7.093  20.253  0.00  0.00    +0.000 C 
ATOM      9  C   UNL     1       1.154   8.012  20.738  0.00  0.00    +0.000 C 
ATOM     10  C   UNL     1       1.256   9.206  19.814  0.00  0.00    +0.000 C 
ATOM     11  C   UNL     1       1.760   8.598  18.530  0.00  0.00    +0.000 C 
ATOM     12  O   UNL     1       1.686   9.159  17.446  0.00  0.00    +0.000 OA
ENDBRANCH   4   7
BRANCH   1  13
ATOM     13  S   UNL     1       6.538   4.556  15.491  0.00  0.00    +0.000 S 
ATOM     14  O   UNL     1       6.885   5.402  14.364  0.00  0.00    +0.000 OA
ATOM     15  O   UNL     1       6.175   3.167  15.326  0.00  0.00    +0.000 OA
BRANCH  13  16
ATOM     16  N   UNL     1       7.840   4.695  16.629  0.00  0.00    +0.000 NA
ATOM     17  H   UNL     1       8.711   4.336  16.221  0.00  0.00    +0.000 HD
BRANCH  16  18
ATOM     18  N   UNL     1       7.467   4.027  17.825  0.00  0.00    +0.000 NA
ATOM     19  H   UNL     1       6.681   3.401  17.644  0.00  0.00    +0.000 HD
ATOM     20  H   UNL     1       7.161   4.718  18.522  0.00  0.00    +0.000 HD
ENDBRANCH  16  18
ENDBRANCH  13  16
ENDBRANCH   1  13
BRANCH   5  21
ATOM     21  N   UNL     1       2.084   4.439  18.094  0.00  0.00    +0.000 N 
ATOM     22  O   UNL     1       1.115   4.365  17.330  0.00  0.00    +0.000 OA
ATOM     23  O   UNL     1       2.204   3.837  19.169  0.00  0.00    +0.000 OA
ENDBRANCH   5  21
TORSDOF 5
ENDMDL
MODEL 5
REMARK VINA RESULT:      -6.8      1.202      1.487
REMARK  Name = 
REMARK  5 active torsions:
REMARK  status: ('A' for Active; 'I' for Inactive)
REMARK    1  A    between atoms: N_1  and  N_2
REMARK    2  A    between atoms: N_2  and  S_3
REMARK    3  A    between atoms: S_3  and  C_6
REMARK    4  A    between atoms: C_9  and  N_10
REMARK    5  A    between atoms: C_16  and  N_17
REMARK                            x       y       z     vdW  Elec       q    Type
REMARK                         _______ _______ _______ _____ _____    ______ ____
ROOT
ATOM      1  C   UNL     1       5.780   5.077  17.375  0.00  0.00    +0.000 A 
ATOM      2  C   UNL     1       5.595   5.752  18.579  0.00  0.00    +0.000 A 
ATOM      3  C   UNL     1       4.647   5.285  19.500  0.00  0.00    +0.000 A 
ATOM      4  C   UNL     1       3.869   4.134  19.266  0.00  0.00    +0.000 A 
ATOM      5  C   UNL     1       4.073   3.495  18.026  0.00  0.00    +0.000 A 
ATOM      6  C   UNL     1       5.020   3.947  17.084  0.00  0.00    +0.000 A 
ENDROOT
BRANCH   4   7
ATOM      7  N   UNL     1       3.003   3.667  20.307  0.00  0.00    +0.000 N 
ATOM      8  C   UNL     1       1.593   3.994  20.369  0.00  0.00    +0.000 C 
ATOM      9  C   UNL     1       1.110   3.340  21.649  0.00  0.00    +0.000 C 
ATOM     10  C   UNL     1       1.990   2.115  21.774  0.00  0.00    +0.000 C 
ATOM     11  C   UNL     1       3.278   2.555  21.127  0.00  0.00    +0.000 C 
ATOM     12  O   UNL     1       4.344   1.979  21.292  0.00  0.00    +0.000 OA
ENDBRANCH   4   7
BRANCH   1  13
ATOM     13  S   UNL     1       7.070   5.596  16.270  0.00  0.00    +0.000 S 
ATOM     14  O   UNL     1       7.904   4.436  16.009  0.00  0.00    +0.000 OA
ATOM     15  O   UNL     1       7.615   6.836  16.772  0.00  0.00    +0.000 OA
BRANCH  13  16
ATOM     16  N   UNL     1       6.172   5.891  14.815  0.00  0.00    +0.000 NA
ATOM     17  H   UNL     1       6.805   6.162  14.053  0.00  0.00    +0.000 HD
BRANCH  16  18
ATOM     18  N   UNL     1       5.178   6.866  15.088  0.00  0.00    +0.000 NA
ATOM     19  H   UNL     1       4.274   6.550  14.733  0.00  0.00    +0.000 HD
ATOM     20  H   UNL     1       5.414   7.741  14.603  0.00  0.00    +0.000 HD
ENDBRANCH  16  18
ENDBRANCH  13  16
ENDBRANCH   1  13
BRANCH   5  21
ATOM     21  N   UNL     1       3.248   2.390  17.587  0.00  0.00    +0.000 N 
ATOM     22  O   UNL     1       3.627   1.247  17.867  0.00  0.00    +0.000 OA
ATOM     23  O   UNL     1       2.202   2.678  16.991  0.00  0.00    +0.000 OA
ENDBRANCH   5  21
TORSDOF 5
ENDMDL
MODEL 6
REMARK VINA RESULT:      -6.7      3.034      4.020
REMARK  Name = 
REMARK  5 active torsions:
REMARK  status: ('A' for Active; 'I' for Inactive)
REMARK    1  A    between atoms: N_1  and  N_2
REMARK    2  A    between atoms: N_2  and  S_3
REMARK    3  A    between atoms: S_3  and  C_6
REMARK    4  A    between atoms: C_9  and  N_10
REMARK    5  A    between atoms: C_16  and  N_17
REMARK                            x       y       z     vdW  Elec       q    Type
REMARK                         _______ _______ _______ _____ _____    ______ ____
ROOT
ATOM      1  C   UNL     1       5.258   5.314  16.511  0.00  0.00    +0.000 A 
ATOM      2  C   UNL     1       5.326   6.689  16.713  0.00  0.00    +0.000 A 
ATOM      3  C   UNL     1       4.323   7.337  17.447  0.00  0.00    +0.000 A 
ATOM      4  C   UNL     1       3.235   6.643  18.014  0.00  0.00    +0.000 A 
ATOM      5  C   UNL     1       3.194   5.256  17.767  0.00  0.00    +0.000 A 
ATOM      6  C   UNL     1       4.191   4.584  17.030  0.00  0.00    +0.000 A 
ENDROOT
BRANCH   4   7
ATOM      7  N   UNL     1       2.315   7.367  18.840  0.00  0.00    +0.000 N 
ATOM      8  C   UNL     1       2.185   7.140  20.265  0.00  0.00    +0.000 C 
ATOM      9  C   UNL     1       1.072   8.075  20.695  0.00  0.00    +0.000 C 
ATOM     10  C   UNL     1       1.208   9.248  19.748  0.00  0.00    +0.000 C 
ATOM     11  C   UNL     1       1.748   8.609  18.494  0.00  0.00    +0.000 C 
ATOM     12  O   UNL     1       1.710   9.146  17.397  0.00  0.00    +0.000 OA
ENDBRANCH   4   7
BRANCH   1  13
ATOM     13  S   UNL     1       6.596   4.480  15.692  0.00  0.00    +0.000 S 
ATOM     14  O   UNL     1       6.083   3.208  15.218  0.00  0.00    +0.000 OA
ATOM     15  O   UNL     1       7.762   4.570  16.542  0.00  0.00    +0.000 OA
BRANCH  13  16
ATOM     16  N   UNL     1       6.809   5.478  14.289  0.00  0.00    +0.000 NA
ATOM     17  H   UNL     1       6.209   5.149  13.523  0.00  0.00    +0.000 HD
BRANCH  16  18
ATOM     18  N   UNL     1       8.187   5.494  13.951  0.00  0.00    +0.000 NA
ATOM     19  H   UNL     1       8.399   6.322  13.392  0.00  0.00    +0.000 HD
ATOM     20  H   UNL     1       8.409   4.668  13.381  0.00  0.00    +0.000 HD
ENDBRANCH  16  18
ENDBRANCH  13  16
ENDBRANCH   1  13
BRANCH   5  21
ATOM     21  N   UNL     1       2.066   4.440  18.162  0.00  0.00    +0.000 N 
ATOM     22  O   UNL     1       2.109   3.905  19.276  0.00  0.00    +0.000 OA
ATOM     23  O   UNL     1       1.124   4.366  17.362  0.00  0.00    +0.000 OA
ENDBRANCH   5  21
TORSDOF 5
ENDMDL
MODEL 7
REMARK VINA RESULT:      -6.7      2.744      5.712
REMARK  Name = 
REMARK  5 active torsions:
REMARK  status: ('A' for Active; 'I' for Inactive)
REMARK    1  A    between atoms: N_1  and  N_2
REMARK    2  A    between atoms: N_2  and  S_3
REMARK    3  A    between atoms: S_3  and  C_6
REMARK    4  A    between atoms: C_9  and  N_10
REMARK    5  A    between atoms: C_16  and  N_17
REMARK                            x       y       z     vdW  Elec       q    Type
REMARK                         _______ _______ _______ _____ _____    ______ ____
ROOT
ATOM      1  C   UNL     1       3.135   4.125  18.281  0.00  0.00    +0.000 A 
ATOM      2  C   UNL     1       3.660   4.761  19.403  0.00  0.00    +0.000 A 
ATOM      3  C   UNL     1       4.844   5.504  19.293  0.00  0.00    +0.000 A 
ATOM      4  C   UNL     1       5.533   5.650  18.073  0.00  0.00    +0.000 A 
ATOM      5  C   UNL     1       4.979   4.972  16.968  0.00  0.00    +0.000 A 
ATOM      6  C   UNL     1       3.790   4.219  17.056  0.00  0.00    +0.000 A 
ENDROOT
BRANCH   4   7
ATOM      7  N   UNL     1       6.674   6.514  18.029  0.00  0.00    +0.000 N 
ATOM      8  C   UNL     1       6.627   7.860  17.493  0.00  0.00    +0.000 C 
ATOM      9  C   UNL     1       8.054   8.359  17.601  0.00  0.00    +0.000 C 
ATOM     10  C   UNL     1       8.585   7.653  18.829  0.00  0.00    +0.000 C 
ATOM     11  C   UNL     1       7.822   6.353  18.829  0.00  0.00    +0.000 C 
ATOM     12  O   UNL     1       8.168   5.371  19.469  0.00  0.00    +0.000 OA
ENDBRANCH   4   7
BRANCH   1  13
ATOM     13  S   UNL     1       1.569   3.296  18.397  0.00  0.00    +0.000 S 
ATOM     14  O   UNL     1       0.683   3.914  17.427  0.00  0.00    +0.000 OA
ATOM     15  O   UNL     1       1.223   3.191  19.796  0.00  0.00    +0.000 OA
BRANCH  13  16
ATOM     16  N   UNL     1       1.968   1.729  17.768  0.00  0.00    +0.000 NA
ATOM     17  H   UNL     1       1.148   1.111  17.803  0.00  0.00    +0.000 HD
BRANCH  16  18
ATOM     18  N   UNL     1       3.080   1.221  18.491  0.00  0.00    +0.000 NA
ATOM     19  H   UNL     1       3.924   1.286  17.921  0.00  0.00    +0.000 HD
ATOM     20  H   UNL     1       2.924   0.229  18.706  0.00  0.00    +0.000 HD
ENDBRANCH  16  18
ENDBRANCH  13  16
ENDBRANCH   1  13
BRANCH   5  21
ATOM     21  N   UNL     1       5.652   4.913  15.688  0.00  0.00    +0.000 N 
ATOM     22  O   UNL     1       5.542   5.890  14.939  0.00  0.00    +0.000 OA
ATOM     23  O   UNL     1       6.316   3.895  15.455  0.00  0.00    +0.000 OA
ENDBRANCH   5  21
TORSDOF 5
ENDMDL
MODEL 8
REMARK VINA RESULT:      -6.7      1.267      1.593
REMARK  Name = 
REMARK  5 active torsions:
REMARK  status: ('A' for Active; 'I' for Inactive)
REMARK    1  A    between atoms: N_1  and  N_2
REMARK    2  A    between atoms: N_2  and  S_3
REMARK    3  A    between atoms: S_3  and  C_6
REMARK    4  A    between atoms: C_9  and  N_10
REMARK    5  A    between atoms: C_16  and  N_17
REMARK                            x       y       z     vdW  Elec       q    Type
REMARK                         _______ _______ _______ _____ _____    ______ ____
ROOT
ATOM      1  C   UNL     1       5.760   5.056  17.270  0.00  0.00    +0.000 A 
ATOM      2  C   UNL     1       5.857   5.498  18.587  0.00  0.00    +0.000 A 
ATOM      3  C   UNL     1       4.912   5.078  19.534  0.00  0.00    +0.000 A 
ATOM      4  C   UNL     1       3.858   4.201  19.211  0.00  0.00    +0.000 A 
ATOM      5  C   UNL     1       3.785   3.796  17.862  0.00  0.00    +0.000 A 
ATOM      6  C   UNL     1       4.723   4.207  16.893  0.00  0.00    +0.000 A 
ENDROOT
BRANCH   4   7
ATOM      7  N   UNL     1       3.003   3.738  20.263  0.00  0.00    +0.000 N 
ATOM      8  C   UNL     1       1.605   4.107  20.366  0.00  0.00    +0.000 C 
ATOM      9  C   UNL     1       1.133   3.440  21.643  0.00  0.00    +0.000 C 
ATOM     10  C   UNL     1       1.977   2.186  21.721  0.00  0.00    +0.000 C 
ATOM     11  C   UNL     1       3.262   2.601  21.052  0.00  0.00    +0.000 C 
ATOM     12  O   UNL     1       4.313   1.989  21.178  0.00  0.00    +0.000 OA
ENDBRANCH   4   7
BRANCH   1  13
ATOM     13  S   UNL     1       7.032   5.487  16.107  0.00  0.00    +0.000 S 
ATOM     14  O   UNL     1       7.947   4.362  16.035  0.00  0.00    +0.000 OA
ATOM     15  O   UNL     1       7.482   6.825  16.414  0.00  0.00    +0.000 OA
BRANCH  13  16
ATOM     16  N   UNL     1       6.141   5.490  14.617  0.00  0.00    +0.000 NA
ATOM     17  H   UNL     1       5.135   5.578  14.803  0.00  0.00    +0.000 HD
BRANCH  16  18
ATOM     18  N   UNL     1       6.473   4.317  13.890  0.00  0.00    +0.000 NA
ATOM     19  H   UNL     1       6.035   4.344  12.968  0.00  0.00    +0.000 HD
ATOM     20  H   UNL     1       6.109   3.493  14.385  0.00  0.00    +0.000 HD
ENDBRANCH  16  18
ENDBRANCH  13  16
ENDBRANCH   1  13
BRANCH   5  21
ATOM     21  N   UNL     1       2.678   3.015  17.354  0.00  0.00    +0.000 N 
ATOM     22  O   UNL     1       1.744   3.626  16.823  0.00  0.00    +0.000 OA
ATOM     23  O   UNL     1       2.768   1.785  17.461  0.00  0.00    +0.000 OA
ENDBRANCH   5  21
TORSDOF 5
ENDMDL
MODEL 9
REMARK VINA RESULT:      -6.6      1.531      1.866
REMARK  Name = 
REMARK  5 active torsions:
REMARK  status: ('A' for Active; 'I' for Inactive)
REMARK    1  A    between atoms: N_1  and  N_2
REMARK    2  A    between atoms: N_2  and  S_3
REMARK    3  A    between atoms: S_3  and  C_6
REMARK    4  A    between atoms: C_9  and  N_10
REMARK    5  A    between atoms: C_16  and  N_17
REMARK                            x       y       z     vdW  Elec       q    Type
REMARK                         _______ _______ _______ _____ _____    ______ ____
ROOT
ATOM      1  C   UNL     1       5.595   4.632  16.477  0.00  0.00    +0.000 A 
ATOM      2  C   UNL     1       6.092   4.998  17.725  0.00  0.00    +0.000 A 
ATOM      3  C   UNL     1       5.337   4.745  18.878  0.00  0.00    +0.000 A 
ATOM      4  C   UNL     1       4.079   4.112  18.833  0.00  0.00    +0.000 A 
ATOM      5  C   UNL     1       3.604   3.778  17.548  0.00  0.00    +0.000 A 
ATOM      6  C   UNL     1       4.346   4.025  16.375  0.00  0.00    +0.000 A 
ENDROOT
BRANCH   4   7
ATOM      7  N   UNL     1       3.426   3.795  20.067  0.00  0.00    +0.000 N 
ATOM      8  C   UNL     1       2.217   4.456  20.515  0.00  0.00    +0.000 C 
ATOM      9  C   UNL     1       1.933   3.845  21.872  0.00  0.00    +0.000 C 
ATOM     10  C   UNL     1       2.463   2.434  21.743  0.00  0.00    +0.000 C 
ATOM     11  C   UNL     1       3.606   2.589  20.772  0.00  0.00    +0.000 C 
ATOM     12  O   UNL     1       4.489   1.755  20.635  0.00  0.00    +0.000 OA
ENDBRANCH   4   7
BRANCH   1  13
ATOM     13  S   UNL     1       6.610   4.837  15.034  0.00  0.00    +0.000 S 
ATOM     14  O   UNL     1       7.993   4.772  15.469  0.00  0.00    +0.000 OA
ATOM     15  O   UNL     1       6.094   5.959  14.282  0.00  0.00    +0.000 OA
BRANCH  13  16
ATOM     16  N   UNL     1       6.292   3.359  14.183  0.00  0.00    +0.000 NA
ATOM     17  H   UNL     1       6.917   2.614  14.516  0.00  0.00    +0.000 HD
BRANCH  16  18
ATOM     18  N   UNL     1       6.411   3.605  12.790  0.00  0.00    +0.000 NA
ATOM     19  H   UNL     1       5.715   4.294  12.498  0.00  0.00    +0.000 HD
ATOM     20  H   UNL     1       6.225   2.737  12.273  0.00  0.00    +0.000 HD
ENDBRANCH  16  18
ENDBRANCH  13  16
ENDBRANCH   1  13
BRANCH   5  21
ATOM     21  N   UNL     1       2.271   3.257  17.335  0.00  0.00    +0.000 N 
ATOM     22  O   UNL     1       1.362   4.072  17.140  0.00  0.00    +0.000 OA
ATOM     23  O   UNL     1       2.149   2.025  17.331  0.00  0.00    +0.000 OA
ENDBRANCH   5  21
TORSDOF 5
ENDMDL
