MODEL 1
REMARK VINA RESULT:      -8.4      0.000      0.000
REMARK  Name = 
REMARK  8 active torsions:
REMARK  status: ('A' for Active; 'I' for Inactive)
REMARK    1  A    between atoms: C_2  and  C_3
REMARK    2  A    between atoms: C_6  and  C_7
REMARK    3  A    between atoms: C_7  and  C_9
REMARK    4  A    between atoms: C_9  and  N_10
REMARK    5  A    between atoms: C_12  and  C_13
REMARK    6  A    between atoms: C_13  and  N_14
REMARK    7  A    between atoms: C_15  and  C_17
REMARK    8  A    between atoms: C_17  and  N_18
REMARK                            x       y       z     vdW  Elec       q    Type
REMARK                         _______ _______ _______ _____ _____    ______ ____
ROOT
ATOM      1  N   UNL     1       1.253   9.763  18.043  0.00  0.00    +0.000 N 
ATOM      2  C   UNL     1       1.549  11.104  18.184  0.00  0.00    +0.000 C 
ATOM      3  O   UNL     1       2.688  11.545  18.036  0.00  0.00    +0.000 OA
ATOM      4  H   UNL     1       0.385   9.411  18.428  0.00  0.00    +0.000 HD
ENDROOT
BRANCH   1   5
ATOM      5  C   UNL     1       2.280   8.794  17.711  0.00  0.00    +0.000 C 
BRANCH   5   8
ATOM      6  N   UNL     1       1.989   5.635  19.462  0.00  0.00    +0.000 N 
ATOM      7  C   UNL     1       2.146   6.260  18.262  0.00  0.00    +0.000 A 
ATOM      8  C   UNL     1       2.172   7.601  18.585  0.00  0.00    +0.000 A 
ATOM      9  N   UNL     1       2.046   7.736  19.944  0.00  0.00    +0.000 NA
ATOM     10  N   UNL     1       1.958   6.524  20.471  0.00  0.00    +0.000 NA
BRANCH   6  11
ATOM     11  C   UNL     1       1.969   4.220  19.747  0.00  0.00    +0.000 C 
BRANCH  11  12
ATOM     12  C   UNL     1       3.342   3.595  19.701  0.00  0.00    +0.000 C 
ATOM     13  O   UNL     1       3.694   2.749  20.523  0.00  0.00    +0.000 OA
BRANCH  12  17
ATOM     14  C   UNL     1       6.086   4.642  16.547  0.00  0.00    +0.000 A 
ATOM     15  C   UNL     1       6.337   5.014  17.868  0.00  0.00    +0.000 A 
ATOM     16  C   UNL     1       5.433   4.675  18.881  0.00  0.00    +0.000 A 
ATOM     17  C   UNL     1       4.274   3.941  18.587  0.00  0.00    +0.000 A 
ATOM     18  C   UNL     1       4.029   3.565  17.259  0.00  0.00    +0.000 A 
ATOM     19  C   UNL     1       4.923   3.918  16.246  0.00  0.00    +0.000 A 
BRANCH  14  21
ATOM     20  N   UNL     1       7.745   5.276  14.657  0.00  0.00    +0.000 NA
ATOM     21  C   UNL     1       7.003   4.994  15.500  0.00  0.00    +0.000 C 
ENDBRANCH  14  21
ENDBRANCH  12  17
ENDBRANCH  11  12
ENDBRANCH   6  11
ENDBRANCH   5   8
ENDBRANCH   1   5
BRANCH   2  22
ATOM     22  C   UNL     1       0.340  12.021  18.443  0.00  0.00    +0.000 C 
BRANCH  22  23
ATOM     23  N   UNL     1      -0.811  11.325  19.061  0.00  0.00    +0.000 N 
ATOM     24  C   UNL     1      -1.970  11.251  18.250  0.00  0.00    +0.000 A 
ATOM     25  C   UNL     1      -1.941  10.519  17.051  0.00  0.00    +0.000 A 
ATOM     26  C   UNL     1      -3.088  10.380  16.268  0.00  0.00    +0.000 A 
ATOM     27  C   UNL     1      -4.278  10.989  16.661  0.00  0.00    +0.000 A 
ATOM     28  C   UNL     1      -4.333  11.699  17.858  0.00  0.00    +0.000 A 
ATOM     29  C   UNL     1      -3.195  11.806  18.669  0.00  0.00    +0.000 A 
ATOM     30  S   UNL     1      -3.347  12.636  20.245  0.00  0.00    +0.000 S 
ATOM     31  C   UNL     1      -2.031  11.815  21.138  0.00  0.00    +0.000 A 
ATOM     32  C   UNL     1      -2.166  11.638  22.521  0.00  0.00    +0.000 A 
ATOM     33  C   UNL     1      -1.171  10.986  23.248  0.00  0.00    +0.000 A 
ATOM     34  C   UNL     1      -0.019  10.541  22.604  0.00  0.00    +0.000 A 
ATOM     35  C   UNL     1       0.129  10.729  21.229  0.00  0.00    +0.000 A 
ATOM     36  C   UNL     1      -0.881  11.346  20.471  0.00  0.00    +0.000 A 
ENDBRANCH  22  23
ENDBRANCH   2  22
TORSDOF 8
ENDMDL
MODEL 2
REMARK VINA RESULT:      -8.3      2.147      3.012
REMARK  Name = 
REMARK  8 active torsions:
REMARK  status: ('A' for Active; 'I' for Inactive)
REMARK    1  A    between atoms: C_2  and  C_3
REMARK    2  A    between atoms: C_6  and  C_7
REMARK    3  A    between atoms: C_7  and  C_9
REMARK    4  A    between atoms: C_9  and  N_10
REMARK    5  A    between atoms: C_12  and  C_13
REMARK    6  A    between atoms: C_13  and  N_14
REMARK    7  A    between atoms: C_15  and  C_17
REMARK    8  A    between atoms: C_17  and  N_18
REMARK                            x       y       z     vdW  Elec       q    Type
REMARK                         _______ _______ _______ _____ _____    ______ ____
ROOT
ATOM      1  N   UNL     1       1.803   7.643  19.217  0.00  0.00    +0.000 N 
ATOM      2  C   UNL     1       1.823   8.706  18.337  0.00  0.00    +0.000 C 
ATOM      3  O   UNL     1       2.104   8.568  17.147  0.00  0.00    +0.000 OA
ATOM      4  H   UNL     1       1.833   7.832  20.212  0.00  0.00    +0.000 HD
ENDROOT
BRANCH   1   5
ATOM      5  C   UNL     1       2.115   6.295  18.781  0.00  0.00    +0.000 C 
BRANCH   5   8
ATOM      6  N   UNL     1       5.709   5.910  18.526  0.00  0.00    +0.000 N 
ATOM      7  C   UNL     1       4.584   6.459  17.991  0.00  0.00    +0.000 A 
ATOM      8  C   UNL     1       3.577   6.055  18.844  0.00  0.00    +0.000 A 
ATOM      9  N   UNL     1       4.122   5.302  19.852  0.00  0.00    +0.000 NA
ATOM     10  N   UNL     1       5.430   5.240  19.658  0.00  0.00    +0.000 NA
BRANCH   6  11
ATOM     11  C   UNL     1       7.079   6.059  18.095  0.00  0.00    +0.000 C 
BRANCH  11  12
ATOM     12  C   UNL     1       7.580   4.869  17.315  0.00  0.00    +0.000 C 
ATOM     13  O   UNL     1       8.461   4.132  17.756  0.00  0.00    +0.000 OA
BRANCH  12  17
ATOM     14  C   UNL     1       5.676   3.810  13.596  0.00  0.00    +0.000 A 
ATOM     15  C   UNL     1       5.148   3.388  14.816  0.00  0.00    +0.000 A 
ATOM     16  C   UNL     1       5.781   3.731  16.016  0.00  0.00    +0.000 A 
ATOM     17  C   UNL     1       6.942   4.519  16.010  0.00  0.00    +0.000 A 
ATOM     18  C   UNL     1       7.465   4.946  14.781  0.00  0.00    +0.000 A 
ATOM     19  C   UNL     1       6.842   4.588  13.584  0.00  0.00    +0.000 A 
BRANCH  14  21
ATOM     20  N   UNL     1       4.527   3.165  11.361  0.00  0.00    +0.000 NA
ATOM     21  C   UNL     1       5.039   3.454  12.360  0.00  0.00    +0.000 C 
ENDBRANCH  14  21
ENDBRANCH  12  17
ENDBRANCH  11  12
ENDBRANCH   6  11
ENDBRANCH   5   8
ENDBRANCH   1   5
BRANCH   2  22
ATOM     22  C   UNL     1       1.377  10.057  18.925  0.00  0.00    +0.000 C 
BRANCH  22  23
ATOM     23  N   UNL     1      -0.002  10.042  19.464  0.00  0.00    +0.000 N 
ATOM     24  C   UNL     1      -1.005  10.442  18.547  0.00  0.00    +0.000 A 
ATOM     25  C   UNL     1      -1.253   9.670  17.399  0.00  0.00    +0.000 A 
ATOM     26  C   UNL     1      -2.279  10.010  16.515  0.00  0.00    +0.000 A 
ATOM     27  C   UNL     1      -3.059  11.138  16.753  0.00  0.00    +0.000 A 
ATOM     28  C   UNL     1      -2.844  11.903  17.899  0.00  0.00    +0.000 A 
ATOM     29  C   UNL     1      -1.844  11.542  18.811  0.00  0.00    +0.000 A 
ATOM     30  S   UNL     1      -1.681  12.493  20.316  0.00  0.00    +0.000 S 
ATOM     31  C   UNL     1      -0.969  11.241  21.379  0.00  0.00    +0.000 A 
ATOM     32  C   UNL     1      -1.256  11.282  22.749  0.00  0.00    +0.000 A 
ATOM     33  C   UNL     1      -0.736  10.313  23.606  0.00  0.00    +0.000 A 
ATOM     34  C   UNL     1       0.105   9.322  23.106  0.00  0.00    +0.000 A 
ATOM     35  C   UNL     1       0.408   9.286  21.743  0.00  0.00    +0.000 A 
ATOM     36  C   UNL     1      -0.140  10.229  20.857  0.00  0.00    +0.000 A 
ENDBRANCH  22  23
ENDBRANCH   2  22
TORSDOF 8
ENDMDL
MODEL 3
REMARK VINA RESULT:      -8.2      2.277      4.059
REMARK  Name = 
REMARK  8 active torsions:
REMARK  status: ('A' for Active; 'I' for Inactive)
REMARK    1  A    between atoms: C_2  and  C_3
REMARK    2  A    between atoms: C_6  and  C_7
REMARK    3  A    between atoms: C_7  and  C_9
REMARK    4  A    between atoms: C_9  and  N_10
REMARK    5  A    between atoms: C_12  and  C_13
REMARK    6  A    between atoms: C_13  and  N_14
REMARK    7  A    between atoms: C_15  and  C_17
REMARK    8  A    between atoms: C_17  and  N_18
REMARK                            x       y       z     vdW  Elec       q    Type
REMARK                         _______ _______ _______ _____ _____    ______ ____
ROOT
ATOM      1  N   UNL     1       1.797   7.824  18.771  0.00  0.00    +0.000 N 
ATOM      2  C   UNL     1       1.754   9.131  18.327  0.00  0.00    +0.000 C 
ATOM      3  O   UNL     1       2.071   9.446  17.180  0.00  0.00    +0.000 OA
ATOM      4  H   UNL     1       1.789   7.647  19.768  0.00  0.00    +0.000 HD
ENDROOT
BRANCH   1   5
ATOM      5  C   UNL     1       2.223   6.745  17.900  0.00  0.00    +0.000 C 
BRANCH   5   8
ATOM      6  N   UNL     1       5.663   5.801  18.536  0.00  0.00    +0.000 N 
ATOM      7  C   UNL     1       4.816   6.605  17.837  0.00  0.00    +0.000 A 
ATOM      8  C   UNL     1       3.564   6.255  18.300  0.00  0.00    +0.000 A 
ATOM      9  N   UNL     1       3.698   5.279  19.255  0.00  0.00    +0.000 NA
ATOM     10  N   UNL     1       4.989   5.026  19.406  0.00  0.00    +0.000 NA
BRANCH   6  11
ATOM     11  C   UNL     1       7.106   5.778  18.520  0.00  0.00    +0.000 C 
BRANCH  11  12
ATOM     12  C   UNL     1       7.664   4.720  17.601  0.00  0.00    +0.000 C 
ATOM     13  O   UNL     1       8.642   4.041  17.916  0.00  0.00    +0.000 OA
BRANCH  12  17
ATOM     14  C   UNL     1       5.735   3.922  13.831  0.00  0.00    +0.000 A 
ATOM     15  C   UNL     1       6.880   4.714  13.895  0.00  0.00    +0.000 A 
ATOM     16  C   UNL     1       7.493   4.973  15.127  0.00  0.00    +0.000 A 
ATOM     17  C   UNL     1       6.974   4.424  16.309  0.00  0.00    +0.000 A 
ATOM     18  C   UNL     1       5.826   3.624  16.239  0.00  0.00    +0.000 A 
ATOM     19  C   UNL     1       5.207   3.380  15.011  0.00  0.00    +0.000 A 
BRANCH  14  21
ATOM     20  N   UNL     1       4.582   3.446  11.556  0.00  0.00    +0.000 NA
ATOM     21  C   UNL     1       5.095   3.660  12.573  0.00  0.00    +0.000 C 
ENDBRANCH  14  21
ENDBRANCH  12  17
ENDBRANCH  11  12
ENDBRANCH   6  11
ENDBRANCH   5   8
ENDBRANCH   1   5
BRANCH   2  22
ATOM     22  C   UNL     1       1.189  10.150  19.333  0.00  0.00    +0.000 C 
BRANCH  22  23
ATOM     23  N   UNL     1       0.410  11.238  18.701  0.00  0.00    +0.000 N 
ATOM     24  C   UNL     1       0.954  12.536  18.865  0.00  0.00    +0.000 A 
ATOM     25  C   UNL     1       2.197  12.851  18.293  0.00  0.00    +0.000 A 
ATOM     26  C   UNL     1       2.724  14.141  18.387  0.00  0.00    +0.000 A 
ATOM     27  C   UNL     1       2.024  15.130  19.074  0.00  0.00    +0.000 A 
ATOM     28  C   UNL     1       0.778  14.843  19.628  0.00  0.00    +0.000 A 
ATOM     29  C   UNL     1       0.227  13.562  19.499  0.00  0.00    +0.000 A 
ATOM     30  S   UNL     1      -1.420  13.275  20.134  0.00  0.00    +0.000 S 
ATOM     31  C   UNL     1      -1.921  11.933  19.060  0.00  0.00    +0.000 A 
ATOM     32  C   UNL     1      -3.275  11.811  18.725  0.00  0.00    +0.000 A 
ATOM     33  C   UNL     1      -3.700  10.790  17.876  0.00  0.00    +0.000 A 
ATOM     34  C   UNL     1      -2.781   9.865  17.387  0.00  0.00    +0.000 A 
ATOM     35  C   UNL     1      -1.432   9.972  17.731  0.00  0.00    +0.000 A 
ATOM     36  C   UNL     1      -0.977  11.019  18.551  0.00  0.00    +0.000 A 
ENDBRANCH  22  23
ENDBRANCH   2  22
TORSDOF 8
ENDMDL
MODEL 4
REMARK VINA RESULT:      -8.1      3.382     10.113
REMARK  Name = 
REMARK  8 active torsions:
REMARK  status: ('A' for Active; 'I' for Inactive)
REMARK    1  A    between atoms: C_2  and  C_3
REMARK    2  A    between atoms: C_6  and  C_7
REMARK    3  A    between atoms: C_7  and  C_9
REMARK    4  A    between atoms: C_9  and  N_10
REMARK    5  A    between atoms: C_12  and  C_13
REMARK    6  A    between atoms: C_13  and  N_14
REMARK    7  A    between atoms: C_15  and  C_17
REMARK    8  A    between atoms: C_17  and  N_18
REMARK                            x       y       z     vdW  Elec       q    Type
REMARK                         _______ _______ _______ _____ _____    ______ ____
ROOT
ATOM      1  N   UNL     1       2.473   8.540  18.752  0.00  0.00    +0.000 N 
ATOM      2  C   UNL     1       2.574   7.165  18.701  0.00  0.00    +0.000 C 
ATOM      3  O   UNL     1       2.089   6.503  17.784  0.00  0.00    +0.000 OA
ATOM      4  H   UNL     1       2.642   9.011  19.633  0.00  0.00    +0.000 HD
ENDROOT
BRANCH   1   5
ATOM      5  C   UNL     1       1.782   9.285  17.717  0.00  0.00    +0.000 C 
BRANCH   5   8
ATOM      6  N   UNL     1       0.649  12.376  19.231  0.00  0.00    +0.000 N 
ATOM      7  C   UNL     1       1.716  11.623  18.847  0.00  0.00    +0.000 A 
ATOM      8  C   UNL     1       1.147  10.498  18.286  0.00  0.00    +0.000 A 
ATOM      9  N   UNL     1      -0.219  10.616  18.338  0.00  0.00    +0.000 NA
ATOM     10  N   UNL     1      -0.510  11.780  18.898  0.00  0.00    +0.000 NA
BRANCH   6  11
ATOM     11  C   UNL     1       0.639  13.698  19.812  0.00  0.00    +0.000 C 
BRANCH  11  12
ATOM     12  C   UNL     1       0.658  13.674  21.320  0.00  0.00    +0.000 C 
ATOM     13  O   UNL     1       1.670  13.965  21.958  0.00  0.00    +0.000 OA
BRANCH  12  17
ATOM     14  C   UNL     1      -2.941  12.706  23.484  0.00  0.00    +0.000 A 
ATOM     15  C   UNL     1      -2.011  11.718  23.162  0.00  0.00    +0.000 A 
ATOM     16  C   UNL     1      -0.850  12.043  22.451  0.00  0.00    +0.000 A 
ATOM     17  C   UNL     1      -0.597  13.370  22.071  0.00  0.00    +0.000 A 
ATOM     18  C   UNL     1      -1.532  14.361  22.402  0.00  0.00    +0.000 A 
ATOM     19  C   UNL     1      -2.697  14.031  23.096  0.00  0.00    +0.000 A 
BRANCH  14  21
ATOM     20  N   UNL     1      -5.105  12.111  24.785  0.00  0.00    +0.000 NA
ATOM     21  C   UNL     1      -4.138  12.379  24.205  0.00  0.00    +0.000 C 
ENDBRANCH  14  21
ENDBRANCH  12  17
ENDBRANCH  11  12
ENDBRANCH   6  11
ENDBRANCH   5   8
ENDBRANCH   1   5
BRANCH   2  22
ATOM     22  C   UNL     1       3.418   6.524  19.819  0.00  0.00    +0.000 C 
BRANCH  22  23
ATOM     23  N   UNL     1       3.838   5.137  19.523  0.00  0.00    +0.000 N 
ATOM     24  C   UNL     1       5.018   5.022  18.748  0.00  0.00    +0.000 A 
ATOM     25  C   UNL     1       6.243   5.473  19.268  0.00  0.00    +0.000 A 
ATOM     26  C   UNL     1       7.429   5.314  18.549  0.00  0.00    +0.000 A 
ATOM     27  C   UNL     1       7.406   4.721  17.289  0.00  0.00    +0.000 A 
ATOM     28  C   UNL     1       6.204   4.246  16.767  0.00  0.00    +0.000 A 
ATOM     29  C   UNL     1       5.019   4.365  17.502  0.00  0.00    +0.000 A 
ATOM     30  S   UNL     1       3.525   3.644  16.835  0.00  0.00    +0.000 S 
ATOM     31  C   UNL     1       2.641   3.332  18.359  0.00  0.00    +0.000 A 
ATOM     32  C   UNL     1       1.768   2.238  18.417  0.00  0.00    +0.000 A 
ATOM     33  C   UNL     1       1.077   1.952  19.593  0.00  0.00    +0.000 A 
ATOM     34  C   UNL     1       1.224   2.777  20.704  0.00  0.00    +0.000 A 
ATOM     35  C   UNL     1       2.080   3.879  20.648  0.00  0.00    +0.000 A 
ATOM     36  C   UNL     1       2.818   4.160  19.485  0.00  0.00    +0.000 A 
ENDBRANCH  22  23
ENDBRANCH   2  22
TORSDOF 8
ENDMDL
MODEL 5
REMARK VINA RESULT:      -8.0      3.383     10.322
REMARK  Name = 
REMARK  8 active torsions:
REMARK  status: ('A' for Active; 'I' for Inactive)
REMARK    1  A    between atoms: C_2  and  C_3
REMARK    2  A    between atoms: C_6  and  C_7
REMARK    3  A    between atoms: C_7  and  C_9
REMARK    4  A    between atoms: C_9  and  N_10
REMARK    5  A    between atoms: C_12  and  C_13
REMARK    6  A    between atoms: C_13  and  N_14
REMARK    7  A    between atoms: C_15  and  C_17
REMARK    8  A    between atoms: C_17  and  N_18
REMARK                            x       y       z     vdW  Elec       q    Type
REMARK                         _______ _______ _______ _____ _____    ______ ____
ROOT
ATOM      1  N   UNL     1       1.927   9.008  17.609  0.00  0.00    +0.000 N 
ATOM      2  C   UNL     1       2.125   7.939  18.460  0.00  0.00    +0.000 C 
ATOM      3  O   UNL     1       2.324   8.085  19.665  0.00  0.00    +0.000 OA
ATOM      4  H   UNL     1       2.035   8.866  16.612  0.00  0.00    +0.000 HD
ENDROOT
BRANCH   1   5
ATOM      5  C   UNL     1       1.943  10.374  18.098  0.00  0.00    +0.000 C 
BRANCH   5   8
ATOM      6  N   UNL     1      -0.191  10.921  20.974  0.00  0.00    +0.000 N 
ATOM      7  C   UNL     1       1.066  11.006  20.459  0.00  0.00    +0.000 A 
ATOM      8  C   UNL     1       0.927  10.556  19.162  0.00  0.00    +0.000 A 
ATOM      9  N   UNL     1      -0.388  10.235  18.940  0.00  0.00    +0.000 NA
ATOM     10  N   UNL     1      -1.065  10.483  20.050  0.00  0.00    +0.000 NA
BRANCH   6  11
ATOM     11  C   UNL     1      -0.663  11.328  22.277  0.00  0.00    +0.000 C 
BRANCH  11  12
ATOM     12  C   UNL     1      -1.357  12.668  22.254  0.00  0.00    +0.000 C 
ATOM     13  O   UNL     1      -0.813  13.669  21.789  0.00  0.00    +0.000 OA
BRANCH  12  17
ATOM     14  C   UNL     1      -5.448  13.040  23.559  0.00  0.00    +0.000 A 
ATOM     15  C   UNL     1      -5.010  13.661  22.390  0.00  0.00    +0.000 A 
ATOM     16  C   UNL     1      -3.677  13.540  21.982  0.00  0.00    +0.000 A 
ATOM     17  C   UNL     1      -2.769  12.777  22.731  0.00  0.00    +0.000 A 
ATOM     18  C   UNL     1      -3.215  12.150  23.903  0.00  0.00    +0.000 A 
ATOM     19  C   UNL     1      -4.541  12.286  24.317  0.00  0.00    +0.000 A 
BRANCH  14  21
ATOM     20  N   UNL     1      -7.912  13.266  24.338  0.00  0.00    +0.000 NA
ATOM     21  C   UNL     1      -6.811  13.167  23.990  0.00  0.00    +0.000 C 
ENDBRANCH  14  21
ENDBRANCH  12  17
ENDBRANCH  11  12
ENDBRANCH   6  11
ENDBRANCH   5   8
ENDBRANCH   1   5
BRANCH   2  22
ATOM     22  C   UNL     1       1.984   6.548  17.813  0.00  0.00    +0.000 C 
BRANCH  22  23
ATOM     23  N   UNL     1       2.973   5.563  18.306  0.00  0.00    +0.000 N 
ATOM     24  C   UNL     1       4.081   5.350  17.449  0.00  0.00    +0.000 A 
ATOM     25  C   UNL     1       4.983   6.398  17.196  0.00  0.00    +0.000 A 
ATOM     26  C   UNL     1       6.116   6.193  16.407  0.00  0.00    +0.000 A 
ATOM     27  C   UNL     1       6.354   4.944  15.840  0.00  0.00    +0.000 A 
ATOM     28  C   UNL     1       5.484   3.886  16.098  0.00  0.00    +0.000 A 
ATOM     29  C   UNL     1       4.369   4.075  16.924  0.00  0.00    +0.000 A 
ATOM     30  S   UNL     1       3.345   2.661  17.310  0.00  0.00    +0.000 S 
ATOM     31  C   UNL     1       2.693   3.192  18.890  0.00  0.00    +0.000 A 
ATOM     32  C   UNL     1       2.392   2.221  19.853  0.00  0.00    +0.000 A 
ATOM     33  C   UNL     1       1.900   2.597  21.102  0.00  0.00    +0.000 A 
ATOM     34  C   UNL     1       1.671   3.941  21.382  0.00  0.00    +0.000 A 
ATOM     35  C   UNL     1       1.953   4.913  20.421  0.00  0.00    +0.000 A 
ATOM     36  C   UNL     1       2.489   4.558  19.171  0.00  0.00    +0.000 A 
ENDBRANCH  22  23
ENDBRANCH   2  22
TORSDOF 8
ENDMDL
MODEL 6
REMARK VINA RESULT:      -8.0      4.843      9.595
REMARK  Name = 
REMARK  8 active torsions:
REMARK  status: ('A' for Active; 'I' for Inactive)
REMARK    1  A    between atoms: C_2  and  C_3
REMARK    2  A    between atoms: C_6  and  C_7
REMARK    3  A    between atoms: C_7  and  C_9
REMARK    4  A    between atoms: C_9  and  N_10
REMARK    5  A    between atoms: C_12  and  C_13
REMARK    6  A    between atoms: C_13  and  N_14
REMARK    7  A    between atoms: C_15  and  C_17
REMARK    8  A    between atoms: C_17  and  N_18
REMARK                            x       y       z     vdW  Elec       q    Type
REMARK                         _______ _______ _______ _____ _____    ______ ____
ROOT
ATOM      1  N   UNL     1      -0.536  10.284  21.609  0.00  0.00    +0.000 N 
ATOM      2  C   UNL     1       0.738  10.253  21.079  0.00  0.00    +0.000 C 
ATOM      3  O   UNL     1       1.744  10.371  21.777  0.00  0.00    +0.000 OA
ATOM      4  H   UNL     1      -1.319  10.451  20.989  0.00  0.00    +0.000 HD
ENDROOT
BRANCH   1   5
ATOM      5  C   UNL     1      -0.757  10.459  23.031  0.00  0.00    +0.000 C 
BRANCH   5   8
ATOM      6  N   UNL     1      -3.167  13.101  23.611  0.00  0.00    +0.000 N 
ATOM      7  C   UNL     1      -2.960  11.764  23.466  0.00  0.00    +0.000 A 
ATOM      8  C   UNL     1      -1.597  11.655  23.283  0.00  0.00    +0.000 A 
ATOM      9  N   UNL     1      -1.038  12.906  23.338  0.00  0.00    +0.000 NA
ATOM     10  N   UNL     1      -2.007  13.780  23.561  0.00  0.00    +0.000 NA
BRANCH   6  11
ATOM     11  C   UNL     1      -4.398  13.798  23.903  0.00  0.00    +0.000 C 
BRANCH  11  12
ATOM     12  C   UNL     1      -5.612  13.104  23.335  0.00  0.00    +0.000 C 
ATOM     13  O   UNL     1      -6.390  12.475  24.052  0.00  0.00    +0.000 OA
BRANCH  12  17
ATOM     14  C   UNL     1      -6.503  13.600  19.148  0.00  0.00    +0.000 A 
ATOM     15  C   UNL     1      -5.884  14.617  19.874  0.00  0.00    +0.000 A 
ATOM     16  C   UNL     1      -5.608  14.447  21.235  0.00  0.00    +0.000 A 
ATOM     17  C   UNL     1      -5.932  13.246  21.883  0.00  0.00    +0.000 A 
ATOM     18  C   UNL     1      -6.548  12.224  21.148  0.00  0.00    +0.000 A 
ATOM     19  C   UNL     1      -6.838  12.401  19.794  0.00  0.00    +0.000 A 
BRANCH  14  21
ATOM     20  N   UNL     1      -7.040  13.907  16.629  0.00  0.00    +0.000 NA
ATOM     21  C   UNL     1      -6.798  13.769  17.754  0.00  0.00    +0.000 C 
ENDBRANCH  14  21
ENDBRANCH  12  17
ENDBRANCH  11  12
ENDBRANCH   6  11
ENDBRANCH   5   8
ENDBRANCH   1   5
BRANCH   2  22
ATOM     22  C   UNL     1       0.816   9.964  19.568  0.00  0.00    +0.000 C 
BRANCH  22  23
ATOM     23  N   UNL     1       0.201  11.018  18.731  0.00  0.00    +0.000 N 
ATOM     24  C   UNL     1       0.841  12.281  18.795  0.00  0.00    +0.000 A 
ATOM     25  C   UNL     1       2.156  12.424  18.325  0.00  0.00    +0.000 A 
ATOM     26  C   UNL     1       2.784  13.671  18.319  0.00  0.00    +0.000 A 
ATOM     27  C   UNL     1       2.114  14.791  18.805  0.00  0.00    +0.000 A 
ATOM     28  C   UNL     1       0.800  14.673  19.254  0.00  0.00    +0.000 A 
ATOM     29  C   UNL     1       0.151  13.433  19.222  0.00  0.00    +0.000 A 
ATOM     30  S   UNL     1      -1.568  13.357  19.708  0.00  0.00    +0.000 S 
ATOM     31  C   UNL     1      -2.082  11.931  18.755  0.00  0.00    +0.000 A 
ATOM     32  C   UNL     1      -3.403  11.871  18.296  0.00  0.00    +0.000 A 
ATOM     33  C   UNL     1      -3.835  10.786  17.535  0.00  0.00    +0.000 A 
ATOM     34  C   UNL     1      -2.960   9.738  17.261  0.00  0.00    +0.000 A 
ATOM     35  C   UNL     1      -1.646   9.784  17.729  0.00  0.00    +0.000 A 
ATOM     36  C   UNL     1      -1.179  10.889  18.462  0.00  0.00    +0.000 A 
ENDBRANCH  22  23
ENDBRANCH   2  22
TORSDOF 8
ENDMDL
MODEL 7
REMARK VINA RESULT:      -8.0      1.783      3.545
REMARK  Name = 
REMARK  8 active torsions:
REMARK  status: ('A' for Active; 'I' for Inactive)
REMARK    1  A    between atoms: C_2  and  C_3
REMARK    2  A    between atoms: C_6  and  C_7
REMARK    3  A    between atoms: C_7  and  C_9
REMARK    4  A    between atoms: C_9  and  N_10
REMARK    5  A    between atoms: C_12  and  C_13
REMARK    6  A    between atoms: C_13  and  N_14
REMARK    7  A    between atoms: C_15  and  C_17
REMARK    8  A    between atoms: C_17  and  N_18
REMARK                            x       y       z     vdW  Elec       q    Type
REMARK                         _______ _______ _______ _____ _____    ______ ____
ROOT
ATOM      1  N   UNL     1       0.579   9.382  18.963  0.00  0.00    +0.000 N 
ATOM      2  C   UNL     1       0.445  10.589  19.620  0.00  0.00    +0.000 C 
ATOM      3  O   UNL     1       1.355  11.416  19.666  0.00  0.00    +0.000 OA
ATOM      4  H   UNL     1      -0.075   8.636  19.173  0.00  0.00    +0.000 HD
ENDROOT
BRANCH   1   5
ATOM      5  C   UNL     1       1.810   9.023  18.287  0.00  0.00    +0.000 C 
BRANCH   5   8
ATOM      6  N   UNL     1       3.390   5.913  19.270  0.00  0.00    +0.000 N 
ATOM      7  C   UNL     1       3.313   6.905  18.340  0.00  0.00    +0.000 A 
ATOM      8  C   UNL     1       2.367   7.769  18.852  0.00  0.00    +0.000 A 
ATOM      9  N   UNL     1       1.925   7.285  20.057  0.00  0.00    +0.000 NA
ATOM     10  N   UNL     1       2.575   6.161  20.311  0.00  0.00    +0.000 NA
BRANCH   6  11
ATOM     11  C   UNL     1       4.272   4.771  19.301  0.00  0.00    +0.000 C 
BRANCH  11  12
ATOM     12  C   UNL     1       5.604   5.043  18.646  0.00  0.00    +0.000 C 
ATOM     13  O   UNL     1       6.562   5.475  19.287  0.00  0.00    +0.000 OA
BRANCH  12  17
ATOM     14  C   UNL     1       6.253   4.121  14.487  0.00  0.00    +0.000 A 
ATOM     15  C   UNL     1       7.207   4.824  15.221  0.00  0.00    +0.000 A 
ATOM     16  C   UNL     1       6.980   5.125  16.569  0.00  0.00    +0.000 A 
ATOM     17  C   UNL     1       5.801   4.707  17.204  0.00  0.00    +0.000 A 
ATOM     18  C   UNL     1       4.848   3.995  16.463  0.00  0.00    +0.000 A 
ATOM     19  C   UNL     1       5.068   3.710  15.114  0.00  0.00    +0.000 A 
BRANCH  14  21
ATOM     20  N   UNL     1       6.655   3.570  11.984  0.00  0.00    +0.000 NA
ATOM     21  C   UNL     1       6.473   3.816  13.101  0.00  0.00    +0.000 C 
ENDBRANCH  14  21
ENDBRANCH  12  17
ENDBRANCH  11  12
ENDBRANCH   6  11
ENDBRANCH   5   8
ENDBRANCH   1   5
BRANCH   2  22
ATOM     22  C   UNL     1      -0.951  10.868  20.207  0.00  0.00    +0.000 C 
BRANCH  22  23
ATOM     23  N   UNL     1      -1.708  11.902  19.467  0.00  0.00    +0.000 N 
ATOM     24  C   UNL     1      -2.016  13.066  20.214  0.00  0.00    +0.000 A 
ATOM     25  C   UNL     1      -0.981  13.897  20.673  0.00  0.00    +0.000 A 
ATOM     26  C   UNL     1      -1.262  15.082  21.356  0.00  0.00    +0.000 A 
ATOM     27  C   UNL     1      -2.583  15.443  21.609  0.00  0.00    +0.000 A 
ATOM     28  C   UNL     1      -3.624  14.644  21.141  0.00  0.00    +0.000 A 
ATOM     29  C   UNL     1      -3.348  13.476  20.419  0.00  0.00    +0.000 A 
ATOM     30  S   UNL     1      -4.718  12.544  19.749  0.00  0.00    +0.000 S 
ATOM     31  C   UNL     1      -3.898  11.772  18.357  0.00  0.00    +0.000 A 
ATOM     32  C   UNL     1      -4.646  11.497  17.206  0.00  0.00    +0.000 A 
ATOM     33  C   UNL     1      -4.038  10.914  16.095  0.00  0.00    +0.000 A 
ATOM     34  C   UNL     1      -2.690  10.569  16.142  0.00  0.00    +0.000 A 
ATOM     35  C   UNL     1      -1.943  10.826  17.294  0.00  0.00    +0.000 A 
ATOM     36  C   UNL     1      -2.527  11.451  18.408  0.00  0.00    +0.000 A 
ENDBRANCH  22  23
ENDBRANCH   2  22
TORSDOF 8
ENDMDL
MODEL 8
REMARK VINA RESULT:      -8.0      3.375     10.195
REMARK  Name = 
REMARK  8 active torsions:
REMARK  status: ('A' for Active; 'I' for Inactive)
REMARK    1  A    between atoms: C_2  and  C_3
REMARK    2  A    between atoms: C_6  and  C_7
REMARK    3  A    between atoms: C_7  and  C_9
REMARK    4  A    between atoms: C_9  and  N_10
REMARK    5  A    between atoms: C_12  and  C_13
REMARK    6  A    between atoms: C_13  and  N_14
REMARK    7  A    between atoms: C_15  and  C_17
REMARK    8  A    between atoms: C_17  and  N_18
REMARK                            x       y       z     vdW  Elec       q    Type
REMARK                         _______ _______ _______ _____ _____    ______ ____
ROOT
ATOM      1  N   UNL     1       1.957   8.244  18.900  0.00  0.00    +0.000 N 
ATOM      2  C   UNL     1       2.989   7.369  18.622  0.00  0.00    +0.000 C 
ATOM      3  O   UNL     1       3.536   7.327  17.520  0.00  0.00    +0.000 OA
ATOM      4  H   UNL     1       1.370   8.066  19.706  0.00  0.00    +0.000 HD
ENDROOT
BRANCH   1   5
ATOM      5  C   UNL     1       1.461   9.168  17.898  0.00  0.00    +0.000 C 
BRANCH   5   8
ATOM      6  N   UNL     1       1.512  12.506  19.306  0.00  0.00    +0.000 N 
ATOM      7  C   UNL     1       0.999  11.248  19.384  0.00  0.00    +0.000 A 
ATOM      8  C   UNL     1       1.623  10.568  18.358  0.00  0.00    +0.000 A 
ATOM      9  N   UNL     1       2.485  11.422  17.717  0.00  0.00    +0.000 NA
ATOM     10  N   UNL     1       2.424  12.598  18.322  0.00  0.00    +0.000 NA
BRANCH   6  11
ATOM     11  C   UNL     1       1.277  13.633  20.178  0.00  0.00    +0.000 C 
BRANCH  11  12
ATOM     12  C   UNL     1      -0.147  14.129  20.121  0.00  0.00    +0.000 C 
ATOM     13  O   UNL     1      -0.544  14.850  19.206  0.00  0.00    +0.000 OA
BRANCH  12  17
ATOM     14  C   UNL     1      -3.047  12.872  23.051  0.00  0.00    +0.000 A 
ATOM     15  C   UNL     1      -3.419  13.674  21.974  0.00  0.00    +0.000 A 
ATOM     16  C   UNL     1      -2.466  14.083  21.034  0.00  0.00    +0.000 A 
ATOM     17  C   UNL     1      -1.129  13.676  21.151  0.00  0.00    +0.000 A 
ATOM     18  C   UNL     1      -0.761  12.864  22.233  0.00  0.00    +0.000 A 
ATOM     19  C   UNL     1      -1.709  12.471  23.179  0.00  0.00    +0.000 A 
BRANCH  14  21
ATOM     20  N   UNL     1      -4.801  12.120  24.808  0.00  0.00    +0.000 NA
ATOM     21  C   UNL     1      -4.016  12.455  24.025  0.00  0.00    +0.000 C 
ENDBRANCH  14  21
ENDBRANCH  12  17
ENDBRANCH  11  12
ENDBRANCH   6  11
ENDBRANCH   5   8
ENDBRANCH   1   5
BRANCH   2  22
ATOM     22  C   UNL     1       3.470   6.519  19.812  0.00  0.00    +0.000 C 
BRANCH  22  23
ATOM     23  N   UNL     1       3.864   5.143  19.435  0.00  0.00    +0.000 N 
ATOM     24  C   UNL     1       5.080   5.046  18.714  0.00  0.00    +0.000 A 
ATOM     25  C   UNL     1       6.289   5.417  19.326  0.00  0.00    +0.000 A 
ATOM     26  C   UNL     1       7.505   5.270  18.658  0.00  0.00    +0.000 A 
ATOM     27  C   UNL     1       7.531   4.770  17.358  0.00  0.00    +0.000 A 
ATOM     28  C   UNL     1       6.344   4.375  16.743  0.00  0.00    +0.000 A 
ATOM     29  C   UNL     1       5.126   4.480  17.425  0.00  0.00    +0.000 A 
ATOM     30  S   UNL     1       3.649   3.860  16.632  0.00  0.00    +0.000 S 
ATOM     31  C   UNL     1       2.677   3.468  18.083  0.00  0.00    +0.000 A 
ATOM     32  C   UNL     1       1.770   2.403  18.017  0.00  0.00    +0.000 A 
ATOM     33  C   UNL     1       1.010   2.055  19.133  0.00  0.00    +0.000 A 
ATOM     34  C   UNL     1       1.123   2.793  20.307  0.00  0.00    +0.000 A 
ATOM     35  C   UNL     1       2.013   3.866  20.375  0.00  0.00    +0.000 A 
ATOM     36  C   UNL     1       2.819   4.206  19.275  0.00  0.00    +0.000 A 
ENDBRANCH  22  23
ENDBRANCH   2  22
TORSDOF 8
ENDMDL
MODEL 9
REMARK VINA RESULT:      -7.9      3.042      9.697
REMARK  Name = 
REMARK  8 active torsions:
REMARK  status: ('A' for Active; 'I' for Inactive)
REMARK    1  A    between atoms: C_2  and  C_3
REMARK    2  A    between atoms: C_6  and  C_7
REMARK    3  A    between atoms: C_7  and  C_9
REMARK    4  A    between atoms: C_9  and  N_10
REMARK    5  A    between atoms: C_12  and  C_13
REMARK    6  A    between atoms: C_13  and  N_14
REMARK    7  A    between atoms: C_15  and  C_17
REMARK    8  A    between atoms: C_17  and  N_18
REMARK                            x       y       z     vdW  Elec       q    Type
REMARK                         _______ _______ _______ _____ _____    ______ ____
ROOT
ATOM      1  N   UNL     1       1.695   8.258  20.314  0.00  0.00    +0.000 N 
ATOM      2  C   UNL     1       2.105   7.010  19.890  0.00  0.00    +0.000 C 
ATOM      3  O   UNL     1       2.242   6.064  20.666  0.00  0.00    +0.000 OA
ATOM      4  H   UNL     1       1.852   9.056  19.709  0.00  0.00    +0.000 HD
ENDROOT
BRANCH   1   5
ATOM      5  C   UNL     1       1.401   8.522  21.709  0.00  0.00    +0.000 C 
BRANCH   5   8
ATOM      6  N   UNL     1       0.135  11.917  21.718  0.00  0.00    +0.000 N 
ATOM      7  C   UNL     1       0.846  10.971  21.045  0.00  0.00    +0.000 A 
ATOM      8  C   UNL     1       0.788   9.863  21.866  0.00  0.00    +0.000 A 
ATOM      9  N   UNL     1       0.046  10.170  22.978  0.00  0.00    +0.000 NA
ATOM     10  N   UNL     1      -0.367  11.423  22.864  0.00  0.00    +0.000 NA
BRANCH   6  11
ATOM     11  C   UNL     1      -0.204  13.257  21.302  0.00  0.00    +0.000 C 
BRANCH  11  12
ATOM     12  C   UNL     1      -0.681  13.323  19.872  0.00  0.00    +0.000 C 
ATOM     13  O   UNL     1       0.030  13.773  18.974  0.00  0.00    +0.000 OA
BRANCH  12  17
ATOM     14  C   UNL     1      -4.569  11.735  18.908  0.00  0.00    +0.000 A 
ATOM     15  C   UNL     1      -4.396  12.592  19.993  0.00  0.00    +0.000 A 
ATOM     16  C   UNL     1      -3.126  13.094  20.301  0.00  0.00    +0.000 A 
ATOM     17  C   UNL     1      -2.016  12.758  19.512  0.00  0.00    +0.000 A 
ATOM     18  C   UNL     1      -2.197  11.900  18.418  0.00  0.00    +0.000 A 
ATOM     19  C   UNL     1      -3.461  11.387  18.123  0.00  0.00    +0.000 A 
BRANCH  14  21
ATOM     20  N   UNL     1      -6.913  10.780  18.338  0.00  0.00    +0.000 NA
ATOM     21  C   UNL     1      -5.866  11.207  18.591  0.00  0.00    +0.000 C 
ENDBRANCH  14  21
ENDBRANCH  12  17
ENDBRANCH  11  12
ENDBRANCH   6  11
ENDBRANCH   5   8
ENDBRANCH   1   5
BRANCH   2  22
ATOM     22  C   UNL     1       2.286   6.858  18.368  0.00  0.00    +0.000 C 
BRANCH  22  23
ATOM     23  N   UNL     1       3.094   5.679  17.983  0.00  0.00    +0.000 N 
ATOM     24  C   UNL     1       2.597   4.437  18.449  0.00  0.00    +0.000 A 
ATOM     25  C   UNL     1       1.357   3.962  17.990  0.00  0.00    +0.000 A 
ATOM     26  C   UNL     1       0.876   2.712  18.386  0.00  0.00    +0.000 A 
ATOM     27  C   UNL     1       1.618   1.927  19.265  0.00  0.00    +0.000 A 
ATOM     28  C   UNL     1       2.862   2.370  19.712  0.00  0.00    +0.000 A 
ATOM     29  C   UNL     1       3.367   3.604  19.284  0.00  0.00    +0.000 A 
ATOM     30  S   UNL     1       5.012   4.077  19.802  0.00  0.00    +0.000 S 
ATOM     31  C   UNL     1       5.451   5.154  18.441  0.00  0.00    +0.000 A 
ATOM     32  C   UNL     1       6.796   5.238  18.058  0.00  0.00    +0.000 A 
ATOM     33  C   UNL     1       7.174   6.051  16.990  0.00  0.00    +0.000 A 
ATOM     34  C   UNL     1       6.218   6.812  16.324  0.00  0.00    +0.000 A 
ATOM     35  C   UNL     1       4.878   6.745  16.712  0.00  0.00    +0.000 A 
ATOM     36  C   UNL     1       4.470   5.900  17.758  0.00  0.00    +0.000 A 
ENDBRANCH  22  23
ENDBRANCH   2  22
TORSDOF 8
ENDMDL
