MODEL 1
REMARK VINA RESULT:      -7.9      0.000      0.000
REMARK  Name = 
REMARK  3 active torsions:
REMARK  status: ('A' for Active; 'I' for Inactive)
REMARK    1  A    between atoms: C_1  and  C_2
REMARK    2  A    between atoms: C_6  and  C_7
REMARK    3  A    between atoms: C_11  and  C_12
REMARK                            x       y       z     vdW  Elec       q    Type
REMARK                         _______ _______ _______ _____ _____    ______ ____
ROOT
ATOM      1  C   UNL     1       3.638   1.185  18.757  0.00  0.00    +0.000 C 
ATOM      2  C   UNL     1       3.468   2.554  18.007  0.00  0.00    +0.000 C 
ATOM      3  C   UNL     1       2.223   2.512  17.479  0.00  0.00    +0.000 C 
ATOM      4  C   UNL     1       1.283   3.310  18.353  0.00  0.00    +0.000 C 
ATOM      5  C   UNL     1       1.431   4.715  17.869  0.00  0.00    +0.000 C 
ATOM      6  C   UNL     1       2.738   5.241  18.483  0.00  0.00    +0.000 C 
ATOM      7  C   UNL     1       2.441   5.967  19.864  0.00  0.00    +0.000 C 
ATOM      8  C   UNL     1       3.182   6.359  17.507  0.00  0.00    +0.000 C 
ATOM      9  C   UNL     1       4.505   6.952  17.867  0.00  0.00    +0.000 C 
ATOM     10  C   UNL     1       5.488   5.804  17.870  0.00  0.00    +0.000 C 
ATOM     11  C   UNL     1       6.857   6.260  18.308  0.00  0.00    +0.000 C 
ATOM     12  C   UNL     1       7.487   7.268  17.331  0.00  0.00    +0.000 C 
ATOM     13  C   UNL     1       7.462   4.872  18.418  0.00  0.00    +0.000 C 
ATOM     14  O   UNL     1       8.647   4.602  18.292  0.00  0.00    +0.000 OA
ATOM     15  O   UNL     1       6.449   3.930  18.680  0.00  0.00    +0.000 OA
ATOM     16  C   UNL     1       5.208   4.645  18.860  0.00  0.00    +0.000 C 
ATOM     17  C   UNL     1       3.745   3.952  18.729  0.00  0.00    +0.000 C 
ATOM     18  O   UNL     1       3.183   3.499  20.000  0.00  0.00    +0.000 OA
ATOM     19  O   UNL     1       1.661   3.221  19.768  0.00  0.00    +0.000 OA
ENDROOT
TORSDOF 0
ENDMDL
MODEL 2
REMARK VINA RESULT:      -7.5      1.590      4.956
REMARK  Name = 
REMARK  3 active torsions:
REMARK  status: ('A' for Active; 'I' for Inactive)
REMARK    1  A    between atoms: C_1  and  C_2
REMARK    2  A    between atoms: C_6  and  C_7
REMARK    3  A    between atoms: C_11  and  C_12
REMARK                            x       y       z     vdW  Elec       q    Type
REMARK                         _______ _______ _______ _____ _____    ______ ____
ROOT
ATOM      1  C   UNL     1       8.402   5.071  19.359  0.00  0.00    +0.000 C 
ATOM      2  C   UNL     1       6.991   5.658  18.997  0.00  0.00    +0.000 C 
ATOM      3  C   UNL     1       7.248   6.848  18.407  0.00  0.00    +0.000 C 
ATOM      4  C   UNL     1       7.146   6.694  16.907  0.00  0.00    +0.000 C 
ATOM      5  C   UNL     1       5.693   6.873  16.615  0.00  0.00    +0.000 C 
ATOM      6  C   UNL     1       5.019   5.541  16.978  0.00  0.00    +0.000 C 
ATOM      7  C   UNL     1       4.949   4.596  15.703  0.00  0.00    +0.000 C 
ATOM      8  C   UNL     1       3.555   5.939  17.289  0.00  0.00    +0.000 C 
ATOM      9  C   UNL     1       2.728   4.788  17.766  0.00  0.00    +0.000 C 
ATOM     10  C   UNL     1       3.426   4.260  18.999  0.00  0.00    +0.000 C 
ATOM     11  C   UNL     1       2.734   3.031  19.530  0.00  0.00    +0.000 C 
ATOM     12  C   UNL     1       1.306   3.323  20.025  0.00  0.00    +0.000 C 
ATOM     13  C   UNL     1       3.801   2.672  20.549  0.00  0.00    +0.000 C 
ATOM     14  O   UNL     1       3.614   2.052  21.585  0.00  0.00    +0.000 OA
ATOM     15  O   UNL     1       5.049   3.171  20.127  0.00  0.00    +0.000 OA
ATOM     16  C   UNL     1       4.879   3.752  18.816  0.00  0.00    +0.000 C 
ATOM     17  C   UNL     1       5.917   4.817  18.165  0.00  0.00    +0.000 C 
ATOM     18  O   UNL     1       6.933   4.213  17.306  0.00  0.00    +0.000 OA
ATOM     19  O   UNL     1       7.589   5.364  16.474  0.00  0.00    +0.000 OA
ENDROOT
TORSDOF 0
ENDMDL
MODEL 3
REMARK VINA RESULT:      -7.3      1.711      2.330
REMARK  Name = 
REMARK  3 active torsions:
REMARK  status: ('A' for Active; 'I' for Inactive)
REMARK    1  A    between atoms: C_1  and  C_2
REMARK    2  A    between atoms: C_6  and  C_7
REMARK    3  A    between atoms: C_11  and  C_12
REMARK                            x       y       z     vdW  Elec       q    Type
REMARK                         _______ _______ _______ _____ _____    ______ ____
ROOT
ATOM      1  C   UNL     1       2.473   3.570  22.194  0.00  0.00    +0.000 C 
ATOM      2  C   UNL     1       2.768   3.064  20.737  0.00  0.00    +0.000 C 
ATOM      3  C   UNL     1       1.820   2.131  20.492  0.00  0.00    +0.000 C 
ATOM      4  C   UNL     1       0.725   2.743  19.647  0.00  0.00    +0.000 C 
ATOM      5  C   UNL     1       1.217   2.600  18.245  0.00  0.00    +0.000 C 
ATOM      6  C   UNL     1       2.250   3.719  18.039  0.00  0.00    +0.000 C 
ATOM      7  C   UNL     1       1.546   5.011  17.442  0.00  0.00    +0.000 C 
ATOM      8  C   UNL     1       3.163   3.177  16.911  0.00  0.00    +0.000 C 
ATOM      9  C   UNL     1       4.316   4.081  16.613  0.00  0.00    +0.000 C 
ATOM     10  C   UNL     1       5.075   4.228  17.911  0.00  0.00    +0.000 C 
ATOM     11  C   UNL     1       6.222   5.195  17.764  0.00  0.00    +0.000 C 
ATOM     12  C   UNL     1       7.293   4.698  16.777  0.00  0.00    +0.000 C 
ATOM     13  C   UNL     1       6.566   5.264  19.242  0.00  0.00    +0.000 C 
ATOM     14  O   UNL     1       7.668   5.519  19.703  0.00  0.00    +0.000 OA
ATOM     15  O   UNL     1       5.421   4.980  20.010  0.00  0.00    +0.000 OA
ATOM     16  C   UNL     1       4.302   4.833  19.111  0.00  0.00    +0.000 C 
ATOM     17  C   UNL     1       2.923   4.073  19.509  0.00  0.00    +0.000 C 
ATOM     18  O   UNL     1       1.872   4.961  20.000  0.00  0.00    +0.000 OA
ATOM     19  O   UNL     1       0.529   4.161  19.971  0.00  0.00    +0.000 OA
ENDROOT
TORSDOF 0
ENDMDL
MODEL 4
REMARK VINA RESULT:      -7.3      1.156      1.431
REMARK  Name = 
REMARK  3 active torsions:
REMARK  status: ('A' for Active; 'I' for Inactive)
REMARK    1  A    between atoms: C_1  and  C_2
REMARK    2  A    between atoms: C_6  and  C_7
REMARK    3  A    between atoms: C_11  and  C_12
REMARK                            x       y       z     vdW  Elec       q    Type
REMARK                         _______ _______ _______ _____ _____    ______ ____
ROOT
ATOM      1  C   UNL     1       4.425   1.695  20.863  0.00  0.00    +0.000 C 
ATOM      2  C   UNL     1       4.422   2.265  19.400  0.00  0.00    +0.000 C 
ATOM      3  C   UNL     1       3.575   1.464  18.714  0.00  0.00    +0.000 C 
ATOM      4  C   UNL     1       2.236   2.154  18.578  0.00  0.00    +0.000 C 
ATOM      5  C   UNL     1       2.388   3.017  17.368  0.00  0.00    +0.000 C 
ATOM      6  C   UNL     1       3.181   4.252  17.822  0.00  0.00    +0.000 C 
ATOM      7  C   UNL     1       2.188   5.408  18.270  0.00  0.00    +0.000 C 
ATOM      8  C   UNL     1       3.857   4.756  16.523  0.00  0.00    +0.000 C 
ATOM      9  C   UNL     1       4.771   5.915  16.756  0.00  0.00    +0.000 C 
ATOM     10  C   UNL     1       5.798   5.438  17.759  0.00  0.00    +0.000 C 
ATOM     11  C   UNL     1       6.735   6.553  18.148  0.00  0.00    +0.000 C 
ATOM     12  C   UNL     1       7.591   7.047  16.968  0.00  0.00    +0.000 C 
ATOM     13  C   UNL     1       7.416   5.803  19.280  0.00  0.00    +0.000 C 
ATOM     14  O   UNL     1       8.552   6.001  19.680  0.00  0.00    +0.000 OA
ATOM     15  O   UNL     1       6.540   4.832  19.801  0.00  0.00    +0.000 OA
ATOM     16  C   UNL     1       5.265   4.975  19.138  0.00  0.00    +0.000 C 
ATOM     17  C   UNL     1       4.138   3.807  19.097  0.00  0.00    +0.000 C 
ATOM     18  O   UNL     1       3.129   3.913  20.149  0.00  0.00    +0.000 OA
ATOM     19  O   UNL     1       1.938   2.980  19.753  0.00  0.00    +0.000 OA
ENDROOT
TORSDOF 0
ENDMDL
MODEL 5
REMARK VINA RESULT:      -7.2      2.190      3.614
REMARK  Name = 
REMARK  3 active torsions:
REMARK  status: ('A' for Active; 'I' for Inactive)
REMARK    1  A    between atoms: C_1  and  C_2
REMARK    2  A    between atoms: C_6  and  C_7
REMARK    3  A    between atoms: C_11  and  C_12
REMARK                            x       y       z     vdW  Elec       q    Type
REMARK                         _______ _______ _______ _____ _____    ______ ____
ROOT
ATOM      1  C   UNL     1       1.737   6.560  20.616  0.00  0.00    +0.000 C 
ATOM      2  C   UNL     1       2.644   5.302  20.372  0.00  0.00    +0.000 C 
ATOM      3  C   UNL     1       2.460   4.521  21.460  0.00  0.00    +0.000 C 
ATOM      4  C   UNL     1       1.489   3.412  21.121  0.00  0.00    +0.000 C 
ATOM      5  C   UNL     1       2.342   2.348  20.512  0.00  0.00    +0.000 C 
ATOM      6  C   UNL     1       2.616   2.796  19.068  0.00  0.00    +0.000 C 
ATOM      7  C   UNL     1       1.520   2.191  18.090  0.00  0.00    +0.000 C 
ATOM      8  C   UNL     1       3.943   2.086  18.705  0.00  0.00    +0.000 C 
ATOM      9  C   UNL     1       4.453   2.465  17.352  0.00  0.00    +0.000 C 
ATOM     10  C   UNL     1       4.624   3.967  17.378  0.00  0.00    +0.000 C 
ATOM     11  C   UNL     1       5.054   4.489  16.031  0.00  0.00    +0.000 C 
ATOM     12  C   UNL     1       6.445   3.979  15.614  0.00  0.00    +0.000 C 
ATOM     13  C   UNL     1       4.886   5.961  16.367  0.00  0.00    +0.000 C 
ATOM     14  O   UNL     1       5.499   6.881  15.849  0.00  0.00    +0.000 OA
ATOM     15  O   UNL     1       3.918   6.110  17.379  0.00  0.00    +0.000 OA
ATOM     16  C   UNL     1       3.353   4.811  17.655  0.00  0.00    +0.000 C 
ATOM     17  C   UNL     1       2.558   4.450  19.023  0.00  0.00    +0.000 C 
ATOM     18  O   UNL     1       1.107   4.596  18.927  0.00  0.00    +0.000 OA
ATOM     19  O   UNL     1       0.478   3.862  20.158  0.00  0.00    +0.000 OA
ENDROOT
TORSDOF 0
ENDMDL
MODEL 6
REMARK VINA RESULT:      -7.2      1.435      1.497
REMARK  Name = 
REMARK  3 active torsions:
REMARK  status: ('A' for Active; 'I' for Inactive)
REMARK    1  A    between atoms: C_1  and  C_2
REMARK    2  A    between atoms: C_6  and  C_7
REMARK    3  A    between atoms: C_11  and  C_12
REMARK                            x       y       z     vdW  Elec       q    Type
REMARK                         _______ _______ _______ _____ _____    ______ ____
ROOT
ATOM      1  C   UNL     1       3.054   2.578  21.515  0.00  0.00    +0.000 C 
ATOM      2  C   UNL     1       3.207   2.884  19.983  0.00  0.00    +0.000 C 
ATOM      3  C   UNL     1       2.166   2.253  19.394  0.00  0.00    +0.000 C 
ATOM      4  C   UNL     1       1.076   3.258  19.096  0.00  0.00    +0.000 C 
ATOM      5  C   UNL     1       1.461   3.839  17.776  0.00  0.00    +0.000 C 
ATOM      6  C   UNL     1       2.572   4.859  18.066  0.00  0.00    +0.000 C 
ATOM      7  C   UNL     1       1.945   6.303  18.288  0.00  0.00    +0.000 C 
ATOM      8  C   UNL     1       3.357   4.941  16.734  0.00  0.00    +0.000 C 
ATOM      9  C   UNL     1       4.562   5.821  16.824  0.00  0.00    +0.000 C 
ATOM     10  C   UNL     1       5.416   5.244  17.930  0.00  0.00    +0.000 C 
ATOM     11  C   UNL     1       6.631   6.101  18.182  0.00  0.00    +0.000 C 
ATOM     12  C   UNL     1       7.587   6.141  16.977  0.00  0.00    +0.000 C 
ATOM     13  C   UNL     1       7.076   5.382  19.444  0.00  0.00    +0.000 C 
ATOM     14  O   UNL     1       8.224   5.317  19.856  0.00  0.00    +0.000 OA
ATOM     15  O   UNL     1       5.964   4.789  20.071  0.00  0.00    +0.000 OA
ATOM     16  C   UNL     1       4.779   5.174  19.341  0.00  0.00    +0.000 C 
ATOM     17  C   UNL     1       3.369   4.376  19.434  0.00  0.00    +0.000 C 
ATOM     18  O   UNL     1       2.434   4.925  20.414  0.00  0.00    +0.000 OA
ATOM     19  O   UNL     1       1.026   4.311  20.116  0.00  0.00    +0.000 OA
ENDROOT
TORSDOF 0
ENDMDL
MODEL 7
REMARK VINA RESULT:      -7.2      2.167      5.025
REMARK  Name = 
REMARK  3 active torsions:
REMARK  status: ('A' for Active; 'I' for Inactive)
REMARK    1  A    between atoms: C_1  and  C_2
REMARK    2  A    between atoms: C_6  and  C_7
REMARK    3  A    between atoms: C_11  and  C_12
REMARK                            x       y       z     vdW  Elec       q    Type
REMARK                         _______ _______ _______ _____ _____    ______ ____
ROOT
ATOM      1  C   UNL     1       5.795   3.488  14.757  0.00  0.00    +0.000 C 
ATOM      2  C   UNL     1       5.821   3.917  16.267  0.00  0.00    +0.000 C 
ATOM      3  C   UNL     1       7.074   4.382  16.477  0.00  0.00    +0.000 C 
ATOM      4  C   UNL     1       7.057   5.894  16.444  0.00  0.00    +0.000 C 
ATOM      5  C   UNL     1       6.685   6.290  17.834  0.00  0.00    +0.000 C 
ATOM      6  C   UNL     1       5.165   6.096  17.941  0.00  0.00    +0.000 C 
ATOM      7  C   UNL     1       4.413   7.447  17.575  0.00  0.00    +0.000 C 
ATOM      8  C   UNL     1       4.925   5.877  19.455  0.00  0.00    +0.000 C 
ATOM      9  C   UNL     1       3.498   5.567  19.778  0.00  0.00    +0.000 C 
ATOM     10  C   UNL     1       3.153   4.328  18.983  0.00  0.00    +0.000 C 
ATOM     11  C   UNL     1       1.701   3.960  19.154  0.00  0.00    +0.000 C 
ATOM     12  C   UNL     1       1.358   3.563  20.601  0.00  0.00    +0.000 C 
ATOM     13  C   UNL     1       1.678   2.888  18.078  0.00  0.00    +0.000 C 
ATOM     14  O   UNL     1       0.926   1.927  18.049  0.00  0.00    +0.000 OA
ATOM     15  O   UNL     1       2.667   3.162  17.113  0.00  0.00    +0.000 OA
ATOM     16  C   UNL     1       3.274   4.430  17.441  0.00  0.00    +0.000 C 
ATOM     17  C   UNL     1       4.724   4.902  16.883  0.00  0.00    +0.000 C 
ATOM     18  O   UNL     1       4.662   5.720  15.674  0.00  0.00    +0.000 OA
ATOM     19  O   UNL     1       6.060   6.397  15.492  0.00  0.00    +0.000 OA
ENDROOT
TORSDOF 0
ENDMDL
MODEL 8
REMARK VINA RESULT:      -6.9      1.487      1.636
REMARK  Name = 
REMARK  3 active torsions:
REMARK  status: ('A' for Active; 'I' for Inactive)
REMARK    1  A    between atoms: C_1  and  C_2
REMARK    2  A    between atoms: C_6  and  C_7
REMARK    3  A    between atoms: C_11  and  C_12
REMARK                            x       y       z     vdW  Elec       q    Type
REMARK                         _______ _______ _______ _____ _____    ______ ____
ROOT
ATOM      1  C   UNL     1       3.974   0.750  18.888  0.00  0.00    +0.000 C 
ATOM      2  C   UNL     1       3.194   2.005  18.356  0.00  0.00    +0.000 C 
ATOM      3  C   UNL     1       1.893   1.748  18.625  0.00  0.00    +0.000 C 
ATOM      4  C   UNL     1       1.484   2.499  19.872  0.00  0.00    +0.000 C 
ATOM      5  C   UNL     1       1.106   3.856  19.377  0.00  0.00    +0.000 C 
ATOM      6  C   UNL     1       2.426   4.607  19.141  0.00  0.00    +0.000 C 
ATOM      7  C   UNL     1       2.835   5.420  20.443  0.00  0.00    +0.000 C 
ATOM      8  C   UNL     1       2.061   5.671  18.077  0.00  0.00    +0.000 C 
ATOM      9  C   UNL     1       3.243   6.465  17.621  0.00  0.00    +0.000 C 
ATOM     10  C   UNL     1       4.232   5.460  17.075  0.00  0.00    +0.000 C 
ATOM     11  C   UNL     1       5.516   6.133  16.660  0.00  0.00    +0.000 C 
ATOM     12  C   UNL     1       5.320   7.113  15.490  0.00  0.00    +0.000 C 
ATOM     13  C   UNL     1       6.297   4.853  16.418  0.00  0.00    +0.000 C 
ATOM     14  O   UNL     1       7.235   4.729  15.646  0.00  0.00    +0.000 OA
ATOM     15  O   UNL     1       5.772   3.817  17.214  0.00  0.00    +0.000 OA
ATOM     16  C   UNL     1       4.744   4.378  18.059  0.00  0.00    +0.000 C 
ATOM     17  C   UNL     1       3.594   3.491  18.784  0.00  0.00    +0.000 C 
ATOM     18  O   UNL     1       3.918   3.096  20.154  0.00  0.00    +0.000 OA
ATOM     19  O   UNL     1       2.595   2.600  20.824  0.00  0.00    +0.000 OA
ENDROOT
TORSDOF 0
ENDMDL
MODEL 9
REMARK VINA RESULT:      -6.9      1.533      5.038
REMARK  Name = 
REMARK  3 active torsions:
REMARK  status: ('A' for Active; 'I' for Inactive)
REMARK    1  A    between atoms: C_1  and  C_2
REMARK    2  A    between atoms: C_6  and  C_7
REMARK    3  A    between atoms: C_11  and  C_12
REMARK                            x       y       z     vdW  Elec       q    Type
REMARK                         _______ _______ _______ _____ _____    ______ ____
ROOT
ATOM      1  C   UNL     1       8.398   4.310  18.093  0.00  0.00    +0.000 C 
ATOM      2  C   UNL     1       7.158   5.225  18.394  0.00  0.00    +0.000 C 
ATOM      3  C   UNL     1       7.674   6.459  18.598  0.00  0.00    +0.000 C 
ATOM      4  C   UNL     1       7.500   7.287  17.345  0.00  0.00    +0.000 C 
ATOM      5  C   UNL     1       6.123   7.852  17.465  0.00  0.00    +0.000 C 
ATOM      6  C   UNL     1       5.162   6.721  17.068  0.00  0.00    +0.000 C 
ATOM      7  C   UNL     1       4.837   6.798  15.515  0.00  0.00    +0.000 C 
ATOM      8  C   UNL     1       3.843   7.084  17.794  0.00  0.00    +0.000 C 
ATOM      9  C   UNL     1       2.780   6.047  17.620  0.00  0.00    +0.000 C 
ATOM     10  C   UNL     1       3.365   4.760  18.156  0.00  0.00    +0.000 C 
ATOM     11  C   UNL     1       2.415   3.607  17.955  0.00  0.00    +0.000 C 
ATOM     12  C   UNL     1       1.111   3.768  18.756  0.00  0.00    +0.000 C 
ATOM     13  C   UNL     1       3.393   2.519  18.363  0.00  0.00    +0.000 C 
ATOM     14  O   UNL     1       3.092   1.435  18.837  0.00  0.00    +0.000 OA
ATOM     15  O   UNL     1       4.712   2.950  18.121  0.00  0.00    +0.000 OA
ATOM     16  C   UNL     1       4.651   4.236  17.467  0.00  0.00    +0.000 C 
ATOM     17  C   UNL     1       5.894   5.279  17.419  0.00  0.00    +0.000 C 
ATOM     18  O   UNL     1       6.715   5.174  16.214  0.00  0.00    +0.000 OA
ATOM     19  O   UNL     1       7.603   6.460  16.138  0.00  0.00    +0.000 OA
ENDROOT
TORSDOF 0
ENDMDL
