MODEL 1
REMARK VINA RESULT:      -7.8      0.000      0.000
REMARK  Name = 
REMARK  8 active torsions:
REMARK  status: ('A' for Active; 'I' for Inactive)
REMARK    1  A    between atoms: C_1  and  C_2
REMARK    2  A    between atoms: C_2  and  C_3
REMARK    3  A    between atoms: N_8  and  C_9
REMARK    4  A    between atoms: C_9  and  C_10
REMARK    5  A    between atoms: C_10  and  C_11
REMARK    6  A    between atoms: C_11  and  N_12
REMARK    7  A    between atoms: C_13  and  C_15
REMARK    8  A    between atoms: C_18  and  N_19
REMARK                            x       y       z     vdW  Elec       q    Type
REMARK                         _______ _______ _______ _____ _____    ______ ____
ROOT
ATOM      1  N   UNL     1       7.252   7.917  17.843  0.00  0.00    +0.000 N 
ATOM      2  C   UNL     1       6.994   6.785  17.099  0.00  0.00    +0.000 C 
ATOM      3  O   UNL     1       7.676   6.416  16.151  0.00  0.00    +0.000 OA
ATOM      4  H   UNL     1       6.768   8.056  18.720  0.00  0.00    +0.000 HD
ENDROOT
BRANCH   2   5
ATOM      5  C   UNL     1       5.825   5.989  17.547  0.00  0.00    +0.000 A 
ATOM      6  C   UNL     1       4.542   6.523  17.463  0.00  0.00    +0.000 A 
ATOM      7  C   UNL     1       3.447   5.788  17.919  0.00  0.00    +0.000 A 
ATOM      8  C   UNL     1       3.606   4.512  18.472  0.00  0.00    +0.000 A 
ATOM      9  C   UNL     1       4.904   3.974  18.523  0.00  0.00    +0.000 A 
ATOM     10  C   UNL     1       6.006   4.702  18.049  0.00  0.00    +0.000 A 
BRANCH   8  11
ATOM     11  N   UNL     1       2.488   3.805  18.988  0.00  0.00    +0.000 N 
ATOM     12  C   UNL     1       1.937   2.647  18.325  0.00  0.00    +0.000 C 
ATOM     13  C   UNL     1       0.662   2.347  19.084  0.00  0.00    +0.000 C 
ATOM     14  C   UNL     1       0.948   2.843  20.487  0.00  0.00    +0.000 C 
ATOM     15  C   UNL     1       1.947   3.947  20.276  0.00  0.00    +0.000 C 
ATOM     16  O   UNL     1       2.214   4.762  21.148  0.00  0.00    +0.000 OA
ENDBRANCH   8  11
ENDBRANCH   2   5
BRANCH   1  17
ATOM     17  C   UNL     1       8.373   8.776  17.534  0.00  0.00    +0.000 C 
BRANCH  17  18
ATOM     18  C   UNL     1       8.239  10.130  18.223  0.00  0.00    +0.000 C 
BRANCH  18  19
ATOM     19  C   UNL     1       9.426  10.388  19.165  0.00  0.00    +0.000 C 
BRANCH  19  25
ATOM     20  C   UNL     1      10.681  12.193  20.284  0.00  0.00    +0.000 C 
ATOM     21  C   UNL     1      11.343  13.578  20.094  0.00  0.00    +0.000 C 
ATOM     22  C   UNL     1      12.333  13.601  18.942  0.00  0.00    +0.000 C 
ATOM     23  C   UNL     1      11.660  13.089  17.683  0.00  0.00    +0.000 C 
ATOM     24  C   UNL     1      11.038  11.717  17.921  0.00  0.00    +0.000 C 
ATOM     25  N   UNL     1      10.043  11.728  19.016  0.00  0.00    +0.000 NA
BRANCH  20  27
ATOM     26  C   UNL     1       8.918  13.552  21.615  0.00  0.00    +0.000 C 
ATOM     27  C   UNL     1       9.728  12.266  21.507  0.00  0.00    +0.000 C 
ENDBRANCH  20  27
ENDBRANCH  19  25
ENDBRANCH  18  19
ENDBRANCH  17  18
ENDBRANCH   1  17
TORSDOF 7
ENDMDL
MODEL 2
REMARK VINA RESULT:      -7.7      1.712      2.194
REMARK  Name = 
REMARK  8 active torsions:
REMARK  status: ('A' for Active; 'I' for Inactive)
REMARK    1  A    between atoms: C_1  and  C_2
REMARK    2  A    between atoms: C_2  and  C_3
REMARK    3  A    between atoms: N_8  and  C_9
REMARK    4  A    between atoms: C_9  and  C_10
REMARK    5  A    between atoms: C_10  and  C_11
REMARK    6  A    between atoms: C_11  and  N_12
REMARK    7  A    between atoms: C_13  and  C_15
REMARK    8  A    between atoms: C_18  and  N_19
REMARK                            x       y       z     vdW  Elec       q    Type
REMARK                         _______ _______ _______ _____ _____    ______ ____
ROOT
ATOM      1  N   UNL     1       7.263   8.168  17.939  0.00  0.00    +0.000 N 
ATOM      2  C   UNL     1       6.996   7.009  17.242  0.00  0.00    +0.000 C 
ATOM      3  O   UNL     1       7.669   6.603  16.302  0.00  0.00    +0.000 OA
ATOM      4  H   UNL     1       6.787   8.341  18.815  0.00  0.00    +0.000 HD
ENDROOT
BRANCH   2   5
ATOM      5  C   UNL     1       5.829   6.234  17.729  0.00  0.00    +0.000 A 
ATOM      6  C   UNL     1       6.001   5.242  18.690  0.00  0.00    +0.000 A 
ATOM      7  C   UNL     1       4.908   4.489  19.122  0.00  0.00    +0.000 A 
ATOM      8  C   UNL     1       3.626   4.703  18.602  0.00  0.00    +0.000 A 
ATOM      9  C   UNL     1       3.463   5.728  17.654  0.00  0.00    +0.000 A 
ATOM     10  C   UNL     1       4.555   6.501  17.231  0.00  0.00    +0.000 A 
BRANCH   8  11
ATOM     11  N   UNL     1       2.538   3.886  19.006  0.00  0.00    +0.000 N 
ATOM     12  C   UNL     1       1.514   4.356  19.909  0.00  0.00    +0.000 C 
ATOM     13  C   UNL     1       0.693   3.125  20.226  0.00  0.00    +0.000 C 
ATOM     14  C   UNL     1       0.827   2.268  18.984  0.00  0.00    +0.000 C 
ATOM     15  C   UNL     1       2.164   2.664  18.422  0.00  0.00    +0.000 C 
ATOM     16  O   UNL     1       2.738   2.000  17.571  0.00  0.00    +0.000 OA
ENDBRANCH   8  11
ENDBRANCH   2   5
BRANCH   1  17
ATOM     17  C   UNL     1       8.384   9.012  17.589  0.00  0.00    +0.000 C 
BRANCH  17  18
ATOM     18  C   UNL     1       8.893   9.788  18.800  0.00  0.00    +0.000 C 
BRANCH  18  19
ATOM     19  C   UNL     1       9.634  11.062  18.365  0.00  0.00    +0.000 C 
BRANCH  19  25
ATOM     20  C   UNL     1       9.807  13.388  19.166  0.00  0.00    +0.000 C 
ATOM     21  C   UNL     1       9.025  14.698  19.423  0.00  0.00    +0.000 C 
ATOM     22  C   UNL     1       8.263  15.174  18.198  0.00  0.00    +0.000 C 
ATOM     23  C   UNL     1       7.384  14.053  17.679  0.00  0.00    +0.000 C 
ATOM     24  C   UNL     1       8.206  12.792  17.430  0.00  0.00    +0.000 C 
ATOM     25  N   UNL     1       8.902  12.320  18.647  0.00  0.00    +0.000 NA
BRANCH  20  27
ATOM     26  C   UNL     1       9.707  12.675  21.658  0.00  0.00    +0.000 C 
ATOM     27  C   UNL     1      10.582  13.016  20.459  0.00  0.00    +0.000 C 
ENDBRANCH  20  27
ENDBRANCH  19  25
ENDBRANCH  18  19
ENDBRANCH  17  18
ENDBRANCH   1  17
TORSDOF 7
ENDMDL
MODEL 3
REMARK VINA RESULT:      -7.7      1.243      2.257
REMARK  Name = 
REMARK  8 active torsions:
REMARK  status: ('A' for Active; 'I' for Inactive)
REMARK    1  A    between atoms: C_1  and  C_2
REMARK    2  A    between atoms: C_2  and  C_3
REMARK    3  A    between atoms: N_8  and  C_9
REMARK    4  A    between atoms: C_9  and  C_10
REMARK    5  A    between atoms: C_10  and  C_11
REMARK    6  A    between atoms: C_11  and  N_12
REMARK    7  A    between atoms: C_13  and  C_15
REMARK    8  A    between atoms: C_18  and  N_19
REMARK                            x       y       z     vdW  Elec       q    Type
REMARK                         _______ _______ _______ _____ _____    ______ ____
ROOT
ATOM      1  N   UNL     1       7.225   8.216  17.886  0.00  0.00    +0.000 N 
ATOM      2  C   UNL     1       7.054   7.029  17.206  0.00  0.00    +0.000 C 
ATOM      3  O   UNL     1       7.774   6.655  16.288  0.00  0.00    +0.000 OA
ATOM      4  H   UNL     1       6.719   8.371  18.749  0.00  0.00    +0.000 HD
ENDROOT
BRANCH   2   5
ATOM      5  C   UNL     1       5.934   6.183  17.685  0.00  0.00    +0.000 A 
ATOM      6  C   UNL     1       4.652   6.366  17.175  0.00  0.00    +0.000 A 
ATOM      7  C   UNL     1       3.592   5.595  17.652  0.00  0.00    +0.000 A 
ATOM      8  C   UNL     1       3.784   4.632  18.650  0.00  0.00    +0.000 A 
ATOM      9  C   UNL     1       5.090   4.438  19.134  0.00  0.00    +0.000 A 
ATOM     10  C   UNL     1       6.162   5.198  18.643  0.00  0.00    +0.000 A 
BRANCH   8  11
ATOM     11  N   UNL     1       2.684   3.900  19.169  0.00  0.00    +0.000 N 
ATOM     12  C   UNL     1       1.908   4.367  20.293  0.00  0.00    +0.000 C 
ATOM     13  C   UNL     1       0.997   3.207  20.633  0.00  0.00    +0.000 C 
ATOM     14  C   UNL     1       0.793   2.504  19.307  0.00  0.00    +0.000 C 
ATOM     15  C   UNL     1       2.051   2.813  18.544  0.00  0.00    +0.000 C 
ATOM     16  O   UNL     1       2.371   2.199  17.536  0.00  0.00    +0.000 OA
ENDBRANCH   8  11
ENDBRANCH   2   5
BRANCH   1  17
ATOM     17  C   UNL     1       8.291   9.130  17.542  0.00  0.00    +0.000 C 
BRANCH  17  18
ATOM     18  C   UNL     1       8.815   9.860  18.775  0.00  0.00    +0.000 C 
BRANCH  18  19
ATOM     19  C   UNL     1       9.900  10.879  18.392  0.00  0.00    +0.000 C 
BRANCH  19  25
ATOM     20  C   UNL     1       9.723  13.277  18.939  0.00  0.00    +0.000 C 
ATOM     21  C   UNL     1       9.960  14.344  20.034  0.00  0.00    +0.000 C 
ATOM     22  C   UNL     1       9.286  13.992  21.350  0.00  0.00    +0.000 C 
ATOM     23  C   UNL     1       9.706  12.600  21.779  0.00  0.00    +0.000 C 
ATOM     24  C   UNL     1       9.440  11.587  20.671  0.00  0.00    +0.000 C 
ATOM     25  N   UNL     1      10.143  11.925  19.414  0.00  0.00    +0.000 NA
BRANCH  20  27
ATOM     26  C   UNL     1      10.666  15.253  17.547  0.00  0.00    +0.000 C 
ATOM     27  C   UNL     1      10.411  13.753  17.631  0.00  0.00    +0.000 C 
ENDBRANCH  20  27
ENDBRANCH  19  25
ENDBRANCH  18  19
ENDBRANCH  17  18
ENDBRANCH   1  17
TORSDOF 7
ENDMDL
MODEL 4
REMARK VINA RESULT:      -7.7      4.750      8.020
REMARK  Name = 
REMARK  8 active torsions:
REMARK  status: ('A' for Active; 'I' for Inactive)
REMARK    1  A    between atoms: C_1  and  C_2
REMARK    2  A    between atoms: C_2  and  C_3
REMARK    3  A    between atoms: N_8  and  C_9
REMARK    4  A    between atoms: C_9  and  C_10
REMARK    5  A    between atoms: C_10  and  C_11
REMARK    6  A    between atoms: C_11  and  N_12
REMARK    7  A    between atoms: C_13  and  C_15
REMARK    8  A    between atoms: C_18  and  N_19
REMARK                            x       y       z     vdW  Elec       q    Type
REMARK                         _______ _______ _______ _____ _____    ______ ____
ROOT
ATOM      1  N   UNL     1       2.129   4.728  18.814  0.00  0.00    +0.000 N 
ATOM      2  C   UNL     1       2.261   5.542  19.920  0.00  0.00    +0.000 C 
ATOM      3  O   UNL     1       2.634   5.151  21.019  0.00  0.00    +0.000 OA
ATOM      4  H   UNL     1       2.003   5.148  17.902  0.00  0.00    +0.000 HD
ENDROOT
BRANCH   2   5
ATOM      5  C   UNL     1       1.949   6.974  19.690  0.00  0.00    +0.000 A 
ATOM      6  C   UNL     1       1.377   7.737  20.704  0.00  0.00    +0.000 A 
ATOM      7  C   UNL     1       1.050   9.073  20.475  0.00  0.00    +0.000 A 
ATOM      8  C   UNL     1       1.279   9.676  19.233  0.00  0.00    +0.000 A 
ATOM      9  C   UNL     1       1.885   8.902  18.228  0.00  0.00    +0.000 A 
ATOM     10  C   UNL     1       2.233   7.562  18.459  0.00  0.00    +0.000 A 
BRANCH   8  11
ATOM     11  N   UNL     1       0.884  11.019  18.998  0.00  0.00    +0.000 N 
ATOM     12  C   UNL     1       1.829  12.050  18.638  0.00  0.00    +0.000 C 
ATOM     13  C   UNL     1       1.029  13.333  18.692  0.00  0.00    +0.000 C 
ATOM     14  C   UNL     1      -0.382  12.898  18.355  0.00  0.00    +0.000 C 
ATOM     15  C   UNL     1      -0.435  11.471  18.827  0.00  0.00    +0.000 C 
ATOM     16  O   UNL     1      -1.490  10.868  18.968  0.00  0.00    +0.000 OA
ENDBRANCH   8  11
ENDBRANCH   2   5
BRANCH   1  17
ATOM     17  C   UNL     1       2.421   3.315  18.886  0.00  0.00    +0.000 C 
BRANCH  17  18
ATOM     18  C   UNL     1       3.867   3.027  18.495  0.00  0.00    +0.000 C 
BRANCH  18  19
ATOM     19  C   UNL     1       4.304   3.907  17.313  0.00  0.00    +0.000 C 
BRANCH  19  25
ATOM     20  C   UNL     1       5.848   5.665  16.533  0.00  0.00    +0.000 C 
ATOM     21  C   UNL     1       7.240   6.307  16.740  0.00  0.00    +0.000 C 
ATOM     22  C   UNL     1       7.481   6.731  18.179  0.00  0.00    +0.000 C 
ATOM     23  C   UNL     1       7.228   5.556  19.103  0.00  0.00    +0.000 C 
ATOM     24  C   UNL     1       5.840   4.970  18.868  0.00  0.00    +0.000 C 
ATOM     25  N   UNL     1       5.643   4.521  17.472  0.00  0.00    +0.000 NA
BRANCH  20  27
ATOM     26  C   UNL     1       6.949   4.795  14.351  0.00  0.00    +0.000 C 
ATOM     27  C   UNL     1       5.687   5.312  15.029  0.00  0.00    +0.000 C 
ENDBRANCH  20  27
ENDBRANCH  19  25
ENDBRANCH  18  19
ENDBRANCH  17  18
ENDBRANCH   1  17
TORSDOF 7
ENDMDL
MODEL 5
REMARK VINA RESULT:      -7.6      0.658      1.898
REMARK  Name = 
REMARK  8 active torsions:
REMARK  status: ('A' for Active; 'I' for Inactive)
REMARK    1  A    between atoms: C_1  and  C_2
REMARK    2  A    between atoms: C_2  and  C_3
REMARK    3  A    between atoms: N_8  and  C_9
REMARK    4  A    between atoms: C_9  and  C_10
REMARK    5  A    between atoms: C_10  and  C_11
REMARK    6  A    between atoms: C_11  and  N_12
REMARK    7  A    between atoms: C_13  and  C_15
REMARK    8  A    between atoms: C_18  and  N_19
REMARK                            x       y       z     vdW  Elec       q    Type
REMARK                         _______ _______ _______ _____ _____    ______ ____
ROOT
ATOM      1  N   UNL     1       7.181   7.965  17.782  0.00  0.00    +0.000 N 
ATOM      2  C   UNL     1       6.914   6.828  17.049  0.00  0.00    +0.000 C 
ATOM      3  O   UNL     1       7.597   6.442  16.108  0.00  0.00    +0.000 OA
ATOM      4  H   UNL     1       6.694   8.118  18.656  0.00  0.00    +0.000 HD
ENDROOT
BRANCH   2   5
ATOM      5  C   UNL     1       5.734   6.050  17.500  0.00  0.00    +0.000 A 
ATOM      6  C   UNL     1       4.474   6.641  17.523  0.00  0.00    +0.000 A 
ATOM      7  C   UNL     1       3.371   5.920  17.982  0.00  0.00    +0.000 A 
ATOM      8  C   UNL     1       3.501   4.601  18.432  0.00  0.00    +0.000 A 
ATOM      9  C   UNL     1       4.774   4.008  18.376  0.00  0.00    +0.000 A 
ATOM     10  C   UNL     1       5.883   4.722  17.897  0.00  0.00    +0.000 A 
BRANCH   8  11
ATOM     11  N   UNL     1       2.379   3.903  18.954  0.00  0.00    +0.000 N 
ATOM     12  C   UNL     1       1.995   2.596  18.477  0.00  0.00    +0.000 C 
ATOM     13  C   UNL     1       0.660   2.328  19.139  0.00  0.00    +0.000 C 
ATOM     14  C   UNL     1       0.736   3.102  20.438  0.00  0.00    +0.000 C 
ATOM     15  C   UNL     1       1.675   4.234  20.123  0.00  0.00    +0.000 C 
ATOM     16  O   UNL     1       1.776   5.219  20.841  0.00  0.00    +0.000 OA
ENDBRANCH   8  11
ENDBRANCH   2   5
BRANCH   1  17
ATOM     17  C   UNL     1       8.313   8.808  17.470  0.00  0.00    +0.000 C 
BRANCH  17  18
ATOM     18  C   UNL     1       8.748   9.623  18.684  0.00  0.00    +0.000 C 
BRANCH  18  19
ATOM     19  C   UNL     1       9.531  10.874  18.255  0.00  0.00    +0.000 C 
BRANCH  19  25
ATOM     20  C   UNL     1      10.609  12.985  18.938  0.00  0.00    +0.000 C 
ATOM     21  C   UNL     1      11.176  13.785  20.135  0.00  0.00    +0.000 C 
ATOM     22  C   UNL     1      10.177  13.925  21.271  0.00  0.00    +0.000 C 
ATOM     23  C   UNL     1       9.662  12.555  21.666  0.00  0.00    +0.000 C 
ATOM     24  C   UNL     1       9.103  11.816  20.454  0.00  0.00    +0.000 C 
ATOM     25  N   UNL     1      10.106  11.650  19.380  0.00  0.00    +0.000 NA
BRANCH  20  27
ATOM     26  C   UNL     1      11.983  14.279  17.158  0.00  0.00    +0.000 C 
ATOM     27  C   UNL     1      11.687  12.940  17.821  0.00  0.00    +0.000 C 
ENDBRANCH  20  27
ENDBRANCH  19  25
ENDBRANCH  18  19
ENDBRANCH  17  18
ENDBRANCH   1  17
TORSDOF 7
ENDMDL
MODEL 6
REMARK VINA RESULT:      -7.6      0.681      2.163
REMARK  Name = 
REMARK  8 active torsions:
REMARK  status: ('A' for Active; 'I' for Inactive)
REMARK    1  A    between atoms: C_1  and  C_2
REMARK    2  A    between atoms: C_2  and  C_3
REMARK    3  A    between atoms: N_8  and  C_9
REMARK    4  A    between atoms: C_9  and  C_10
REMARK    5  A    between atoms: C_10  and  C_11
REMARK    6  A    between atoms: C_11  and  N_12
REMARK    7  A    between atoms: C_13  and  C_15
REMARK    8  A    between atoms: C_18  and  N_19
REMARK                            x       y       z     vdW  Elec       q    Type
REMARK                         _______ _______ _______ _____ _____    ______ ____
ROOT
ATOM      1  N   UNL     1       7.242   8.374  17.842  0.00  0.00    +0.000 N 
ATOM      2  C   UNL     1       7.049   7.150  17.236  0.00  0.00    +0.000 C 
ATOM      3  O   UNL     1       7.783   6.690  16.370  0.00  0.00    +0.000 OA
ATOM      4  H   UNL     1       6.715   8.604  18.675  0.00  0.00    +0.000 HD
ENDROOT
BRANCH   2   5
ATOM      5  C   UNL     1       5.883   6.378  17.733  0.00  0.00    +0.000 A 
ATOM      6  C   UNL     1       6.077   5.276  18.561  0.00  0.00    +0.000 A 
ATOM      7  C   UNL     1       4.983   4.528  18.997  0.00  0.00    +0.000 A 
ATOM      8  C   UNL     1       3.677   4.857  18.614  0.00  0.00    +0.000 A 
ATOM      9  C   UNL     1       3.495   5.989  17.802  0.00  0.00    +0.000 A 
ATOM     10  C   UNL     1       4.591   6.756  17.376  0.00  0.00    +0.000 A 
BRANCH   8  11
ATOM     11  N   UNL     1       2.582   4.048  19.016  0.00  0.00    +0.000 N 
ATOM     12  C   UNL     1       2.150   2.900  18.255  0.00  0.00    +0.000 C 
ATOM     13  C   UNL     1       0.856   2.473  18.913  0.00  0.00    +0.000 C 
ATOM     14  C   UNL     1       1.024   2.899  20.357  0.00  0.00    +0.000 C 
ATOM     15  C   UNL     1       1.957   4.076  20.274  0.00  0.00    +0.000 C 
ATOM     16  O   UNL     1       2.116   4.850  21.207  0.00  0.00    +0.000 OA
ENDBRANCH   8  11
ENDBRANCH   2   5
BRANCH   1  17
ATOM     17  C   UNL     1       8.351   9.225  17.474  0.00  0.00    +0.000 C 
BRANCH  17  18
ATOM     18  C   UNL     1       8.505  10.387  18.450  0.00  0.00    +0.000 C 
BRANCH  18  19
ATOM     19  C   UNL     1       9.606  10.096  19.483  0.00  0.00    +0.000 C 
BRANCH  19  25
ATOM     20  C   UNL     1      10.379  12.437  19.438  0.00  0.00    +0.000 C 
ATOM     21  C   UNL     1      10.765  13.657  20.308  0.00  0.00    +0.000 C 
ATOM     22  C   UNL     1       9.683  14.032  21.305  0.00  0.00    +0.000 C 
ATOM     23  C   UNL     1       9.307  12.814  22.128  0.00  0.00    +0.000 C 
ATOM     24  C   UNL     1       8.922  11.648  21.224  0.00  0.00    +0.000 C 
ATOM     25  N   UNL     1      10.008  11.270  20.293  0.00  0.00    +0.000 NA
BRANCH  20  27
ATOM     26  C   UNL     1      11.377  12.868  17.083  0.00  0.00    +0.000 C 
ATOM     27  C   UNL     1      11.527  12.169  18.428  0.00  0.00    +0.000 C 
ENDBRANCH  20  27
ENDBRANCH  19  25
ENDBRANCH  18  19
ENDBRANCH  17  18
ENDBRANCH   1  17
TORSDOF 7
ENDMDL
MODEL 7
REMARK VINA RESULT:      -7.6      4.674      8.003
REMARK  Name = 
REMARK  8 active torsions:
REMARK  status: ('A' for Active; 'I' for Inactive)
REMARK    1  A    between atoms: C_1  and  C_2
REMARK    2  A    between atoms: C_2  and  C_3
REMARK    3  A    between atoms: N_8  and  C_9
REMARK    4  A    between atoms: C_9  and  C_10
REMARK    5  A    between atoms: C_10  and  C_11
REMARK    6  A    between atoms: C_11  and  N_12
REMARK    7  A    between atoms: C_13  and  C_15
REMARK    8  A    between atoms: C_18  and  N_19
REMARK                            x       y       z     vdW  Elec       q    Type
REMARK                         _______ _______ _______ _____ _____    ______ ____
ROOT
ATOM      1  N   UNL     1       2.252   4.792  18.870  0.00  0.00    +0.000 N 
ATOM      2  C   UNL     1       2.295   5.641  19.956  0.00  0.00    +0.000 C 
ATOM      3  O   UNL     1       2.614   5.293  21.087  0.00  0.00    +0.000 OA
ATOM      4  H   UNL     1       2.169   5.180  17.939  0.00  0.00    +0.000 HD
ENDROOT
BRANCH   2   5
ATOM      5  C   UNL     1       1.959   7.056  19.664  0.00  0.00    +0.000 A 
ATOM      6  C   UNL     1       1.400   7.860  20.654  0.00  0.00    +0.000 A 
ATOM      7  C   UNL     1       1.050   9.180  20.368  0.00  0.00    +0.000 A 
ATOM      8  C   UNL     1       1.242   9.724  19.092  0.00  0.00    +0.000 A 
ATOM      9  C   UNL     1       1.834   8.909  18.112  0.00  0.00    +0.000 A 
ATOM     10  C   UNL     1       2.206   7.587  18.400  0.00  0.00    +0.000 A 
BRANCH   8  11
ATOM     11  N   UNL     1       0.822  11.048  18.802  0.00  0.00    +0.000 N 
ATOM     12  C   UNL     1      -0.497  11.530  19.135  0.00  0.00    +0.000 C 
ATOM     13  C   UNL     1      -0.584  12.888  18.472  0.00  0.00    +0.000 C 
ATOM     14  C   UNL     1       0.849  13.378  18.455  0.00  0.00    +0.000 C 
ATOM     15  C   UNL     1       1.657  12.110  18.414  0.00  0.00    +0.000 C 
ATOM     16  O   UNL     1       2.844  12.101  18.123  0.00  0.00    +0.000 OA
ENDBRANCH   8  11
ENDBRANCH   2   5
BRANCH   1  17
ATOM     17  C   UNL     1       2.578   3.390  19.002  0.00  0.00    +0.000 C 
BRANCH  17  18
ATOM     18  C   UNL     1       4.033   3.122  18.634  0.00  0.00    +0.000 C 
BRANCH  18  19
ATOM     19  C   UNL     1       4.446   3.933  17.396  0.00  0.00    +0.000 C 
BRANCH  19  25
ATOM     20  C   UNL     1       5.893   5.762  16.590  0.00  0.00    +0.000 C 
ATOM     21  C   UNL     1       7.269   6.449  16.752  0.00  0.00    +0.000 C 
ATOM     22  C   UNL     1       7.557   6.852  18.188  0.00  0.00    +0.000 C 
ATOM     23  C   UNL     1       7.385   5.650  19.097  0.00  0.00    +0.000 C 
ATOM     24  C   UNL     1       6.009   5.020  18.908  0.00  0.00    +0.000 C 
ATOM     25  N   UNL     1       5.769   4.593  17.512  0.00  0.00    +0.000 NA
BRANCH  20  27
ATOM     26  C   UNL     1       6.640   4.401  14.512  0.00  0.00    +0.000 C 
ATOM     27  C   UNL     1       5.680   5.434  15.087  0.00  0.00    +0.000 C 
ENDBRANCH  20  27
ENDBRANCH  19  25
ENDBRANCH  18  19
ENDBRANCH  17  18
ENDBRANCH   1  17
TORSDOF 7
ENDMDL
MODEL 8
REMARK VINA RESULT:      -7.5      2.300     10.153
REMARK  Name = 
REMARK  8 active torsions:
REMARK  status: ('A' for Active; 'I' for Inactive)
REMARK    1  A    between atoms: C_1  and  C_2
REMARK    2  A    between atoms: C_2  and  C_3
REMARK    3  A    between atoms: N_8  and  C_9
REMARK    4  A    between atoms: C_9  and  C_10
REMARK    5  A    between atoms: C_10  and  C_11
REMARK    6  A    between atoms: C_11  and  N_12
REMARK    7  A    between atoms: C_13  and  C_15
REMARK    8  A    between atoms: C_18  and  N_19
REMARK                            x       y       z     vdW  Elec       q    Type
REMARK                         _______ _______ _______ _____ _____    ______ ____
ROOT
ATOM      1  N   UNL     1       8.385   7.252  18.953  0.00  0.00    +0.000 N 
ATOM      2  C   UNL     1       8.117   8.236  18.024  0.00  0.00    +0.000 C 
ATOM      3  O   UNL     1       7.526   8.040  16.968  0.00  0.00    +0.000 OA
ATOM      4  H   UNL     1       8.702   7.516  19.877  0.00  0.00    +0.000 HD
ENDROOT
BRANCH   2   5
ATOM      5  C   UNL     1       8.568   9.598  18.399  0.00  0.00    +0.000 A 
ATOM      6  C   UNL     1       8.347  10.669  17.538  0.00  0.00    +0.000 A 
ATOM      7  C   UNL     1       8.804  11.944  17.876  0.00  0.00    +0.000 A 
ATOM      8  C   UNL     1       9.493  12.177  19.072  0.00  0.00    +0.000 A 
ATOM      9  C   UNL     1       9.681  11.092  19.945  0.00  0.00    +0.000 A 
ATOM     10  C   UNL     1       9.207   9.812  19.619  0.00  0.00    +0.000 A 
BRANCH   8  11
ATOM     11  N   UNL     1      10.004  13.467  19.371  0.00  0.00    +0.000 N 
ATOM     12  C   UNL     1      11.385  13.685  19.731  0.00  0.00    +0.000 C 
ATOM     13  C   UNL     1      11.441  15.134  20.162  0.00  0.00    +0.000 C 
ATOM     14  C   UNL     1      10.345  15.797  19.353  0.00  0.00    +0.000 C 
ATOM     15  C   UNL     1       9.357  14.688  19.119  0.00  0.00    +0.000 C 
ATOM     16  O   UNL     1       8.217  14.900  18.732  0.00  0.00    +0.000 OA
ENDBRANCH   8  11
ENDBRANCH   2   5
BRANCH   1  17
ATOM     17  C   UNL     1       7.984   5.882  18.730  0.00  0.00    +0.000 C 
BRANCH  17  18
ATOM     18  C   UNL     1       6.620   5.596  19.350  0.00  0.00    +0.000 C 
BRANCH  18  19
ATOM     19  C   UNL     1       5.799   4.648  18.460  0.00  0.00    +0.000 C 
BRANCH  19  25
ATOM     20  C   UNL     1       3.518   5.211  17.710  0.00  0.00    +0.000 C 
ATOM     21  C   UNL     1       2.014   5.123  18.063  0.00  0.00    +0.000 C 
ATOM     22  C   UNL     1       1.566   3.704  18.368  0.00  0.00    +0.000 C 
ATOM     23  C   UNL     1       2.460   3.108  19.438  0.00  0.00    +0.000 C 
ATOM     24  C   UNL     1       3.927   3.208  19.035  0.00  0.00    +0.000 C 
ATOM     25  N   UNL     1       4.354   4.603  18.788  0.00  0.00    +0.000 NA
BRANCH  20  27
ATOM     26  C   UNL     1       2.942   7.722  18.014  0.00  0.00    +0.000 C 
ATOM     27  C   UNL     1       3.859   6.687  17.373  0.00  0.00    +0.000 C 
ENDBRANCH  20  27
ENDBRANCH  19  25
ENDBRANCH  18  19
ENDBRANCH  17  18
ENDBRANCH   1  17
TORSDOF 7
ENDMDL
MODEL 9
REMARK VINA RESULT:      -7.4      1.193      1.967
REMARK  Name = 
REMARK  8 active torsions:
REMARK  status: ('A' for Active; 'I' for Inactive)
REMARK    1  A    between atoms: C_1  and  C_2
REMARK    2  A    between atoms: C_2  and  C_3
REMARK    3  A    between atoms: N_8  and  C_9
REMARK    4  A    between atoms: C_9  and  C_10
REMARK    5  A    between atoms: C_10  and  C_11
REMARK    6  A    between atoms: C_11  and  N_12
REMARK    7  A    between atoms: C_13  and  C_15
REMARK    8  A    between atoms: C_18  and  N_19
REMARK                            x       y       z     vdW  Elec       q    Type
REMARK                         _______ _______ _______ _____ _____    ______ ____
ROOT
ATOM      1  N   UNL     1       7.484   8.036  18.192  0.00  0.00    +0.000 N 
ATOM      2  C   UNL     1       7.059   7.021  17.362  0.00  0.00    +0.000 C 
ATOM      3  O   UNL     1       7.622   6.704  16.321  0.00  0.00    +0.000 OA
ATOM      4  H   UNL     1       7.089   8.116  19.121  0.00  0.00    +0.000 HD
ENDROOT
BRANCH   2   5
ATOM      5  C   UNL     1       5.861   6.282  17.830  0.00  0.00    +0.000 A 
ATOM      6  C   UNL     1       5.993   5.251  18.756  0.00  0.00    +0.000 A 
ATOM      7  C   UNL     1       4.870   4.532  19.168  0.00  0.00    +0.000 A 
ATOM      8  C   UNL     1       3.596   4.821  18.665  0.00  0.00    +0.000 A 
ATOM      9  C   UNL     1       3.474   5.885  17.754  0.00  0.00    +0.000 A 
ATOM     10  C   UNL     1       4.598   6.622  17.350  0.00  0.00    +0.000 A 
BRANCH   8  11
ATOM     11  N   UNL     1       2.475   4.040  19.048  0.00  0.00    +0.000 N 
ATOM     12  C   UNL     1       2.016   2.914  18.268  0.00  0.00    +0.000 C 
ATOM     13  C   UNL     1       0.705   2.517  18.911  0.00  0.00    +0.000 C 
ATOM     14  C   UNL     1       0.873   2.919  20.362  0.00  0.00    +0.000 C 
ATOM     15  C   UNL     1       1.840   4.070  20.301  0.00  0.00    +0.000 C 
ATOM     16  O   UNL     1       2.014   4.828  21.244  0.00  0.00    +0.000 OA
ENDBRANCH   8  11
ENDBRANCH   2   5
BRANCH   1  17
ATOM     17  C   UNL     1       8.652   8.825  17.873  0.00  0.00    +0.000 C 
BRANCH  17  18
ATOM     18  C   UNL     1       8.750  10.056  18.768  0.00  0.00    +0.000 C 
BRANCH  18  19
ATOM     19  C   UNL     1       8.878  11.338  17.930  0.00  0.00    +0.000 C 
BRANCH  19  25
ATOM     20  C   UNL     1      10.641  13.013  18.343  0.00  0.00    +0.000 C 
ATOM     21  C   UNL     1      11.015  14.283  19.144  0.00  0.00    +0.000 C 
ATOM     22  C   UNL     1       9.992  15.395  18.990  0.00  0.00    +0.000 C 
ATOM     23  C   UNL     1       8.612  14.866  19.330  0.00  0.00    +0.000 C 
ATOM     24  C   UNL     1       8.288  13.625  18.504  0.00  0.00    +0.000 C 
ATOM     25  N   UNL     1       9.272  12.538  18.706  0.00  0.00    +0.000 NA
BRANCH  20  27
ATOM     26  C   UNL     1      12.323  11.860  19.946  0.00  0.00    +0.000 C 
ATOM     27  C   UNL     1      11.768  11.962  18.531  0.00  0.00    +0.000 C 
ENDBRANCH  20  27
ENDBRANCH  19  25
ENDBRANCH  18  19
ENDBRANCH  17  18
ENDBRANCH   1  17
TORSDOF 7
ENDMDL
