MODEL 1
REMARK VINA RESULT:      -6.7      0.000      0.000
REMARK  Name = 
REMARK  6 active torsions:
REMARK  status: ('A' for Active; 'I' for Inactive)
REMARK    1  A    between atoms: C_1  and  C_2
REMARK    2  A    between atoms: C_2  and  C_3
REMARK    3  A    between atoms: C_6  and  C_7
REMARK    4  A    between atoms: C_8  and  C_9
REMARK    5  A    between atoms: N_17  and  C_18
REMARK    6  A    between atoms: C_18  and  C_19
REMARK                            x       y       z     vdW  Elec       q    Type
REMARK                         _______ _______ _______ _____ _____    ______ ____
ROOT
ATOM      1  C   UNL     1       4.874   4.679  17.059  0.00  0.00    +0.000 A 
ATOM      2  C   UNL     1       3.504   4.777  17.492  0.00  0.00    +0.000 A 
ATOM      3  N   UNL     1       2.553   3.882  17.009  0.00  0.00    +0.000 NA
ATOM      4  C   UNL     1       1.229   3.978  17.429  0.00  0.00    +0.000 A 
ATOM      5  N   UNL     1       5.248   3.685  16.155  0.00  0.00    +0.000 N 
ENDROOT
BRANCH   2   6
ATOM      6  C   UNL     1       3.096   5.862  18.477  0.00  0.00    +0.000 A 
ATOM      7  C   UNL     1       2.962   5.565  19.824  0.00  0.00    +0.000 A 
ATOM      8  C   UNL     1       2.258   6.548  20.559  0.00  0.00    +0.000 A 
ATOM      9  C   UNL     1       2.051   7.785  20.149  0.00  0.00    +0.000 A 
ATOM     10  C   UNL     1       2.267   8.030  18.821  0.00  0.00    +0.000 A 
ATOM     11  C   UNL     1       2.830   7.076  18.009  0.00  0.00    +0.000 A 
ENDBRANCH   2   6
BRANCH   1  15
ATOM     12  C   UNL     1       7.190   7.394  17.793  0.00  0.00    +0.000 A 
ATOM     13  C   UNL     1       7.514   6.596  18.820  0.00  0.00    +0.000 A 
ATOM     14  C   UNL     1       6.680   5.458  18.684  0.00  0.00    +0.000 A 
ATOM     15  C   UNL     1       5.911   5.656  17.585  0.00  0.00    +0.000 A 
ATOM     16  O   UNL     1       6.207   6.873  17.018  0.00  0.00    +0.000 OA
BRANCH  12  18
ATOM     17  C   UNL     1       8.669   9.206  18.624  0.00  0.00    +0.000 C 
ATOM     18  C   UNL     1       7.725   8.788  17.508  0.00  0.00    +0.000 C 
ENDBRANCH  12  18
ENDBRANCH   1  15
BRANCH   5  19
ATOM     19  C   UNL     1       6.646   3.584  15.713  0.00  0.00    +0.000 C 
BRANCH  19  20
ATOM     20  C   UNL     1       6.748   4.004  14.257  0.00  0.00    +0.000 A 
ATOM     21  N   UNL     1       7.293   5.105  13.807  0.00  0.00    +0.000 NA
ATOM     22  C   UNL     1       7.221   5.011  12.414  0.00  0.00    +0.000 A 
ATOM     23  C   UNL     1       6.627   3.838  12.059  0.00  0.00    +0.000 A 
ATOM     24  N   UNL     1       6.333   3.179  13.234  0.00  0.00    +0.000 N 
ATOM     25  H   UNL     1       5.910   2.294  13.325  0.00  0.00    +0.000 HD
ENDBRANCH  19  20
ENDBRANCH   5  19
TORSDOF 5
ENDMDL
MODEL 2
REMARK VINA RESULT:      -6.5      1.790      5.908
REMARK  Name = 
REMARK  6 active torsions:
REMARK  status: ('A' for Active; 'I' for Inactive)
REMARK    1  A    between atoms: C_1  and  C_2
REMARK    2  A    between atoms: C_2  and  C_3
REMARK    3  A    between atoms: C_6  and  C_7
REMARK    4  A    between atoms: C_8  and  C_9
REMARK    5  A    between atoms: N_17  and  C_18
REMARK    6  A    between atoms: C_18  and  C_19
REMARK                            x       y       z     vdW  Elec       q    Type
REMARK                         _______ _______ _______ _____ _____    ______ ____
ROOT
ATOM      1  C   UNL     1       3.693   4.669  17.471  0.00  0.00    +0.000 A 
ATOM      2  C   UNL     1       5.043   4.724  16.973  0.00  0.00    +0.000 A 
ATOM      3  N   UNL     1       5.498   3.757  16.080  0.00  0.00    +0.000 NA
ATOM      4  C   UNL     1       6.804   3.812  15.599  0.00  0.00    +0.000 A 
ATOM      5  N   UNL     1       2.840   3.647  17.058  0.00  0.00    +0.000 N 
ENDROOT
BRANCH   2   6
ATOM      6  C   UNL     1       5.973   5.840  17.424  0.00  0.00    +0.000 A 
ATOM      7  C   UNL     1       5.930   7.077  16.803  0.00  0.00    +0.000 A 
ATOM      8  C   UNL     1       7.054   7.894  17.073  0.00  0.00    +0.000 A 
ATOM      9  C   UNL     1       7.893   7.705  18.074  0.00  0.00    +0.000 A 
ATOM     10  C   UNL     1       7.840   6.486  18.692  0.00  0.00    +0.000 A 
ATOM     11  C   UNL     1       6.849   5.583  18.388  0.00  0.00    +0.000 A 
ENDBRANCH   2   6
BRANCH   1  15
ATOM     12  C   UNL     1       2.306   7.524  19.261  0.00  0.00    +0.000 A 
ATOM     13  C   UNL     1       2.749   6.840  20.325  0.00  0.00    +0.000 A 
ATOM     14  C   UNL     1       3.334   5.664  19.794  0.00  0.00    +0.000 A 
ATOM     15  C   UNL     1       3.197   5.723  18.445  0.00  0.00    +0.000 A 
ATOM     16  O   UNL     1       2.543   6.879  18.091  0.00  0.00    +0.000 OA
BRANCH  12  18
ATOM     17  C   UNL     1       1.628   9.487  17.902  0.00  0.00    +0.000 C 
ATOM     18  C   UNL     1       1.521   8.825  19.266  0.00  0.00    +0.000 C 
ENDBRANCH  12  18
ENDBRANCH   1  15
BRANCH   5  19
ATOM     19  C   UNL     1       1.462   3.590  17.565  0.00  0.00    +0.000 C 
BRANCH  19  20
ATOM     20  C   UNL     1       1.470   3.078  18.996  0.00  0.00    +0.000 A 
ATOM     21  N   UNL     1       2.287   2.185  19.492  0.00  0.00    +0.000 NA
ATOM     22  C   UNL     1       1.964   2.103  20.850  0.00  0.00    +0.000 A 
ATOM     23  C   UNL     1       0.947   2.963  21.138  0.00  0.00    +0.000 A 
ATOM     24  N   UNL     1       0.634   3.603  19.957  0.00  0.00    +0.000 N 
ATOM     25  H   UNL     1      -0.052   4.298  19.826  0.00  0.00    +0.000 HD
ENDBRANCH  19  20
ENDBRANCH   5  19
TORSDOF 5
ENDMDL
MODEL 3
REMARK VINA RESULT:      -6.4      3.150      5.872
REMARK  Name = 
REMARK  6 active torsions:
REMARK  status: ('A' for Active; 'I' for Inactive)
REMARK    1  A    between atoms: C_1  and  C_2
REMARK    2  A    between atoms: C_2  and  C_3
REMARK    3  A    between atoms: C_6  and  C_7
REMARK    4  A    between atoms: C_8  and  C_9
REMARK    5  A    between atoms: N_17  and  C_18
REMARK    6  A    between atoms: C_18  and  C_19
REMARK                            x       y       z     vdW  Elec       q    Type
REMARK                         _______ _______ _______ _____ _____    ______ ____
ROOT
ATOM      1  C   UNL     1       2.843   6.026  18.388  0.00  0.00    +0.000 A 
ATOM      2  C   UNL     1       2.348   4.816  18.992  0.00  0.00    +0.000 A 
ATOM      3  N   UNL     1       1.096   4.802  19.602  0.00  0.00    +0.000 NA
ATOM      4  C   UNL     1       0.619   3.631  20.186  0.00  0.00    +0.000 A 
ATOM      5  N   UNL     1       2.066   7.184  18.412  0.00  0.00    +0.000 N 
ENDROOT
BRANCH   2   6
ATOM      6  C   UNL     1       3.196   3.553  18.966  0.00  0.00    +0.000 A 
ATOM      7  C   UNL     1       3.075   2.655  17.919  0.00  0.00    +0.000 A 
ATOM      8  C   UNL     1       3.647   1.388  18.183  0.00  0.00    +0.000 A 
ATOM      9  C   UNL     1       4.522   1.146  19.141  0.00  0.00    +0.000 A 
ATOM     10  C   UNL     1       4.644   2.104  20.110  0.00  0.00    +0.000 A 
ATOM     11  C   UNL     1       4.012   3.317  19.987  0.00  0.00    +0.000 A 
ENDBRANCH   2   6
BRANCH   1  15
ATOM     12  C   UNL     1       6.321   6.364  17.357  0.00  0.00    +0.000 A 
ATOM     13  C   UNL     1       5.856   5.785  16.241  0.00  0.00    +0.000 A 
ATOM     14  C   UNL     1       4.475   5.576  16.478  0.00  0.00    +0.000 A 
ATOM     15  C   UNL     1       4.209   6.042  17.724  0.00  0.00    +0.000 A 
ATOM     16  O   UNL     1       5.359   6.530  18.298  0.00  0.00    +0.000 OA
BRANCH  12  18
ATOM     17  C   UNL     1       7.912   8.240  17.687  0.00  0.00    +0.000 C 
ATOM     18  C   UNL     1       7.763   6.728  17.671  0.00  0.00    +0.000 C 
ENDBRANCH  12  18
ENDBRANCH   1  15
BRANCH   5  19
ATOM     19  C   UNL     1       2.570   8.419  17.794  0.00  0.00    +0.000 C 
BRANCH  19  20
ATOM     20  C   UNL     1       1.825   9.612  18.368  0.00  0.00    +0.000 A 
ATOM     21  N   UNL     1       0.997   9.591  19.380  0.00  0.00    +0.000 NA
ATOM     22  C   UNL     1       0.630  10.925  19.585  0.00  0.00    +0.000 A 
ATOM     23  C   UNL     1       1.259  11.723  18.678  0.00  0.00    +0.000 A 
ATOM     24  N   UNL     1       2.038  10.891  17.902  0.00  0.00    +0.000 N 
ATOM     25  H   UNL     1       2.630  11.158  17.161  0.00  0.00    +0.000 HD
ENDBRANCH  19  20
ENDBRANCH   5  19
TORSDOF 5
ENDMDL
MODEL 4
REMARK VINA RESULT:      -6.3      3.086      6.044
REMARK  Name = 
REMARK  6 active torsions:
REMARK  status: ('A' for Active; 'I' for Inactive)
REMARK    1  A    between atoms: C_1  and  C_2
REMARK    2  A    between atoms: C_2  and  C_3
REMARK    3  A    between atoms: C_6  and  C_7
REMARK    4  A    between atoms: C_8  and  C_9
REMARK    5  A    between atoms: N_17  and  C_18
REMARK    6  A    between atoms: C_18  and  C_19
REMARK                            x       y       z     vdW  Elec       q    Type
REMARK                         _______ _______ _______ _____ _____    ______ ____
ROOT
ATOM      1  C   UNL     1       2.951   5.987  18.371  0.00  0.00    +0.000 A 
ATOM      2  C   UNL     1       2.449   4.807  19.027  0.00  0.00    +0.000 A 
ATOM      3  N   UNL     1       1.234   4.850  19.706  0.00  0.00    +0.000 NA
ATOM      4  C   UNL     1       0.749   3.709  20.340  0.00  0.00    +0.000 A 
ATOM      5  N   UNL     1       2.220   7.173  18.416  0.00  0.00    +0.000 N 
ENDROOT
BRANCH   2   6
ATOM      6  C   UNL     1       3.247   3.513  18.978  0.00  0.00    +0.000 A 
ATOM      7  C   UNL     1       3.089   2.636  17.917  0.00  0.00    +0.000 A 
ATOM      8  C   UNL     1       3.612   1.344  18.159  0.00  0.00    +0.000 A 
ATOM      9  C   UNL     1       4.480   1.054  19.110  0.00  0.00    +0.000 A 
ATOM     10  C   UNL     1       4.642   1.991  20.093  0.00  0.00    +0.000 A 
ATOM     11  C   UNL     1       4.057   3.230  19.991  0.00  0.00    +0.000 A 
ENDBRANCH   2   6
BRANCH   1  15
ATOM     12  C   UNL     1       5.774   5.609  16.098  0.00  0.00    +0.000 A 
ATOM     13  C   UNL     1       6.446   6.119  17.139  0.00  0.00    +0.000 A 
ATOM     14  C   UNL     1       5.469   6.334  18.143  0.00  0.00    +0.000 A 
ATOM     15  C   UNL     1       4.277   5.940  17.631  0.00  0.00    +0.000 A 
ATOM     16  O   UNL     1       4.445   5.493  16.342  0.00  0.00    +0.000 OA
BRANCH  12  18
ATOM     17  C   UNL     1       6.020   3.819  14.396  0.00  0.00    +0.000 C 
ATOM     18  C   UNL     1       6.327   5.272  14.723  0.00  0.00    +0.000 C 
ENDBRANCH  12  18
ENDBRANCH   1  15
BRANCH   5  19
ATOM     19  C   UNL     1       2.732   8.377  17.747  0.00  0.00    +0.000 C 
BRANCH  19  20
ATOM     20  C   UNL     1       1.988   9.597  18.262  0.00  0.00    +0.000 A 
ATOM     21  N   UNL     1       1.103   9.612  19.225  0.00  0.00    +0.000 NA
ATOM     22  C   UNL     1       0.762  10.958  19.391  0.00  0.00    +0.000 A 
ATOM     23  C   UNL     1       1.462  11.727  18.511  0.00  0.00    +0.000 A 
ATOM     24  N   UNL     1       2.262  10.864  17.792  0.00  0.00    +0.000 N 
ATOM     25  H   UNL     1       2.902  11.104  17.083  0.00  0.00    +0.000 HD
ENDBRANCH  19  20
ENDBRANCH   5  19
TORSDOF 5
ENDMDL
MODEL 5
REMARK VINA RESULT:      -6.0      2.554      4.274
REMARK  Name = 
REMARK  6 active torsions:
REMARK  status: ('A' for Active; 'I' for Inactive)
REMARK    1  A    between atoms: C_1  and  C_2
REMARK    2  A    between atoms: C_2  and  C_3
REMARK    3  A    between atoms: C_6  and  C_7
REMARK    4  A    between atoms: C_8  and  C_9
REMARK    5  A    between atoms: N_17  and  C_18
REMARK    6  A    between atoms: C_18  and  C_19
REMARK                            x       y       z     vdW  Elec       q    Type
REMARK                         _______ _______ _______ _____ _____    ______ ____
ROOT
ATOM      1  C   UNL     1       4.913   4.276  19.152  0.00  0.00    +0.000 A 
ATOM      2  C   UNL     1       4.475   3.057  19.782  0.00  0.00    +0.000 A 
ATOM      3  N   UNL     1       5.408   2.105  20.183  0.00  0.00    +0.000 NA
ATOM      4  C   UNL     1       4.983   0.926  20.792  0.00  0.00    +0.000 A 
ATOM      5  N   UNL     1       6.273   4.503  18.946  0.00  0.00    +0.000 N 
ENDROOT
BRANCH   2   6
ATOM      6  C   UNL     1       2.991   2.810  20.006  0.00  0.00    +0.000 A 
ATOM      7  C   UNL     1       2.224   2.225  19.013  0.00  0.00    +0.000 A 
ATOM      8  C   UNL     1       0.830   2.367  19.207  0.00  0.00    +0.000 A 
ATOM      9  C   UNL     1       0.262   2.684  20.356  0.00  0.00    +0.000 A 
ATOM     10  C   UNL     1       1.086   3.194  21.322  0.00  0.00    +0.000 A 
ATOM     11  C   UNL     1       2.449   3.209  21.151  0.00  0.00    +0.000 A 
ENDBRANCH   2   6
BRANCH   1  15
ATOM     12  C   UNL     1       2.589   7.045  18.695  0.00  0.00    +0.000 A 
ATOM     13  C   UNL     1       2.372   6.430  17.524  0.00  0.00    +0.000 A 
ATOM     14  C   UNL     1       3.223   5.297  17.535  0.00  0.00    +0.000 A 
ATOM     15  C   UNL     1       3.896   5.315  18.713  0.00  0.00    +0.000 A 
ATOM     16  O   UNL     1       3.521   6.412  19.451  0.00  0.00    +0.000 OA
BRANCH  12  18
ATOM     17  C   UNL     1       1.569   9.186  17.960  0.00  0.00    +0.000 C 
ATOM     18  C   UNL     1       1.994   8.362  19.165  0.00  0.00    +0.000 C 
ENDBRANCH  12  18
ENDBRANCH   1  15
BRANCH   5  19
ATOM     19  C   UNL     1       6.721   5.747  18.305  0.00  0.00    +0.000 C 
BRANCH  19  20
ATOM     20  C   UNL     1       6.804   5.540  16.802  0.00  0.00    +0.000 A 
ATOM     21  N   UNL     1       7.544   4.656  16.183  0.00  0.00    +0.000 NA
ATOM     22  C   UNL     1       7.225   4.791  14.829  0.00  0.00    +0.000 A 
ATOM     23  C   UNL     1       6.287   5.766  14.667  0.00  0.00    +0.000 A 
ATOM     24  N   UNL     1       6.001   6.242  15.929  0.00  0.00    +0.000 N 
ATOM     25  H   UNL     1       5.351   6.945  16.161  0.00  0.00    +0.000 HD
ENDBRANCH  19  20
ENDBRANCH   5  19
TORSDOF 5
ENDMDL
MODEL 6
REMARK VINA RESULT:      -6.0      2.351      4.532
REMARK  Name = 
REMARK  6 active torsions:
REMARK  status: ('A' for Active; 'I' for Inactive)
REMARK    1  A    between atoms: C_1  and  C_2
REMARK    2  A    between atoms: C_2  and  C_3
REMARK    3  A    between atoms: C_6  and  C_7
REMARK    4  A    between atoms: C_8  and  C_9
REMARK    5  A    between atoms: N_17  and  C_18
REMARK    6  A    between atoms: C_18  and  C_19
REMARK                            x       y       z     vdW  Elec       q    Type
REMARK                         _______ _______ _______ _____ _____    ______ ____
ROOT
ATOM      1  C   UNL     1       4.049   4.700  17.664  0.00  0.00    +0.000 A 
ATOM      2  C   UNL     1       3.741   3.368  18.117  0.00  0.00    +0.000 A 
ATOM      3  N   UNL     1       4.390   2.272  17.554  0.00  0.00    +0.000 NA
ATOM      4  C   UNL     1       4.092   0.984  17.994  0.00  0.00    +0.000 A 
ATOM      5  N   UNL     1       4.997   4.891  16.661  0.00  0.00    +0.000 N 
ENDROOT
BRANCH   2   6
ATOM      6  C   UNL     1       2.706   3.159  19.212  0.00  0.00    +0.000 A 
ATOM      7  C   UNL     1       1.356   3.274  18.926  0.00  0.00    +0.000 A 
ATOM      8  C   UNL     1       0.536   3.399  20.072  0.00  0.00    +0.000 A 
ATOM      9  C   UNL     1       0.909   3.082  21.298  0.00  0.00    +0.000 A 
ATOM     10  C   UNL     1       2.251   2.915  21.501  0.00  0.00    +0.000 A 
ATOM     11  C   UNL     1       3.130   2.911  20.446  0.00  0.00    +0.000 A 
ENDBRANCH   2   6
BRANCH   1  15
ATOM     12  C   UNL     1       2.255   7.759  18.503  0.00  0.00    +0.000 A 
ATOM     13  C   UNL     1       2.498   7.341  19.754  0.00  0.00    +0.000 A 
ATOM     14  C   UNL     1       3.209   6.124  19.608  0.00  0.00    +0.000 A 
ATOM     15  C   UNL     1       3.340   5.895  18.277  0.00  0.00    +0.000 A 
ATOM     16  O   UNL     1       2.737   6.904  17.566  0.00  0.00    +0.000 OA
BRANCH  12  18
ATOM     17  C   UNL     1       0.885   9.663  19.314  0.00  0.00    +0.000 C 
ATOM     18  C   UNL     1       1.448   8.975  18.081  0.00  0.00    +0.000 C 
ENDBRANCH  12  18
ENDBRANCH   1  15
BRANCH   5  19
ATOM     19  C   UNL     1       5.312   6.250  16.198  0.00  0.00    +0.000 C 
BRANCH  19  20
ATOM     20  C   UNL     1       6.481   6.800  16.997  0.00  0.00    +0.000 A 
ATOM     21  N   UNL     1       6.963   8.014  16.925  0.00  0.00    +0.000 NA
ATOM     22  C   UNL     1       7.969   8.070  17.895  0.00  0.00    +0.000 A 
ATOM     23  C   UNL     1       8.064   6.870  18.534  0.00  0.00    +0.000 A 
ATOM     24  N   UNL     1       7.104   6.054  17.974  0.00  0.00    +0.000 N 
ATOM     25  H   UNL     1       6.903   5.123  18.223  0.00  0.00    +0.000 HD
ENDBRANCH  19  20
ENDBRANCH   5  19
TORSDOF 5
ENDMDL
MODEL 7
REMARK VINA RESULT:      -5.9      1.834      5.793
REMARK  Name = 
REMARK  6 active torsions:
REMARK  status: ('A' for Active; 'I' for Inactive)
REMARK    1  A    between atoms: C_1  and  C_2
REMARK    2  A    between atoms: C_2  and  C_3
REMARK    3  A    between atoms: C_6  and  C_7
REMARK    4  A    between atoms: C_8  and  C_9
REMARK    5  A    between atoms: N_17  and  C_18
REMARK    6  A    between atoms: C_18  and  C_19
REMARK                            x       y       z     vdW  Elec       q    Type
REMARK                         _______ _______ _______ _____ _____    ______ ____
ROOT
ATOM      1  C   UNL     1       3.588   4.505  17.362  0.00  0.00    +0.000 A 
ATOM      2  C   UNL     1       4.888   4.503  16.743  0.00  0.00    +0.000 A 
ATOM      3  N   UNL     1       5.238   3.486  15.859  0.00  0.00    +0.000 NA
ATOM      4  C   UNL     1       6.496   3.485  15.261  0.00  0.00    +0.000 A 
ATOM      5  N   UNL     1       2.679   3.489  17.075  0.00  0.00    +0.000 N 
ENDROOT
BRANCH   2   6
ATOM      6  C   UNL     1       5.880   5.613  17.057  0.00  0.00    +0.000 A 
ATOM      7  C   UNL     1       6.970   5.363  17.874  0.00  0.00    +0.000 A 
ATOM      8  C   UNL     1       7.604   6.532  18.357  0.00  0.00    +0.000 A 
ATOM      9  C   UNL     1       7.452   7.736  17.836  0.00  0.00    +0.000 A 
ATOM     10  C   UNL     1       6.396   7.901  16.983  0.00  0.00    +0.000 A 
ATOM     11  C   UNL     1       5.649   6.826  16.568  0.00  0.00    +0.000 A 
ENDBRANCH   2   6
BRANCH   1  15
ATOM     12  C   UNL     1       2.394   7.452  19.143  0.00  0.00    +0.000 A 
ATOM     13  C   UNL     1       2.994   6.846  20.176  0.00  0.00    +0.000 A 
ATOM     14  C   UNL     1       3.528   5.645  19.645  0.00  0.00    +0.000 A 
ATOM     15  C   UNL     1       3.207   5.614  18.327  0.00  0.00    +0.000 A 
ATOM     16  O   UNL     1       2.483   6.735  17.995  0.00  0.00    +0.000 OA
BRANCH  12  18
ATOM     17  C   UNL     1       1.874   9.548  17.920  0.00  0.00    +0.000 C 
ATOM     18  C   UNL     1       1.587   8.740  19.175  0.00  0.00    +0.000 C 
ENDBRANCH  12  18
ENDBRANCH   1  15
BRANCH   5  19
ATOM     19  C   UNL     1       1.352   3.490  17.706  0.00  0.00    +0.000 C 
BRANCH  19  20
ATOM     20  C   UNL     1       1.477   3.031  19.149  0.00  0.00    +0.000 A 
ATOM     21  N   UNL     1       2.374   2.205  19.621  0.00  0.00    +0.000 NA
ATOM     22  C   UNL     1       2.139   2.153  20.999  0.00  0.00    +0.000 A 
ATOM     23  C   UNL     1       1.092   2.963  21.322  0.00  0.00    +0.000 A 
ATOM     24  N   UNL     1       0.670   3.541  20.143  0.00  0.00    +0.000 N 
ATOM     25  H   UNL     1      -0.062   4.190  20.034  0.00  0.00    +0.000 HD
ENDBRANCH  19  20
ENDBRANCH   5  19
TORSDOF 5
ENDMDL
MODEL 8
REMARK VINA RESULT:      -5.8      3.097      5.974
REMARK  Name = 
REMARK  6 active torsions:
REMARK  status: ('A' for Active; 'I' for Inactive)
REMARK    1  A    between atoms: C_1  and  C_2
REMARK    2  A    between atoms: C_2  and  C_3
REMARK    3  A    between atoms: C_6  and  C_7
REMARK    4  A    between atoms: C_8  and  C_9
REMARK    5  A    between atoms: N_17  and  C_18
REMARK    6  A    between atoms: C_18  and  C_19
REMARK                            x       y       z     vdW  Elec       q    Type
REMARK                         _______ _______ _______ _____ _____    ______ ____
ROOT
ATOM      1  C   UNL     1       2.871   5.577  18.624  0.00  0.00    +0.000 A 
ATOM      2  C   UNL     1       2.297   4.414  19.249  0.00  0.00    +0.000 A 
ATOM      3  N   UNL     1       1.028   4.482  19.819  0.00  0.00    +0.000 NA
ATOM      4  C   UNL     1       0.474   3.356  20.422  0.00  0.00    +0.000 A 
ATOM      5  N   UNL     1       2.155   6.773  18.590  0.00  0.00    +0.000 N 
ENDROOT
BRANCH   2   6
ATOM      6  C   UNL     1       3.078   3.109  19.286  0.00  0.00    +0.000 A 
ATOM      7  C   UNL     1       3.843   2.787  20.395  0.00  0.00    +0.000 A 
ATOM      8  C   UNL     1       4.771   1.743  20.166  0.00  0.00    +0.000 A 
ATOM      9  C   UNL     1       4.710   0.894  19.157  0.00  0.00    +0.000 A 
ATOM     10  C   UNL     1       3.883   1.237  18.123  0.00  0.00    +0.000 A 
ATOM     11  C   UNL     1       3.042   2.318  18.220  0.00  0.00    +0.000 A 
ENDBRANCH   2   6
BRANCH   1  15
ATOM     12  C   UNL     1       5.863   5.273  16.567  0.00  0.00    +0.000 A 
ATOM     13  C   UNL     1       6.471   5.500  17.740  0.00  0.00    +0.000 A 
ATOM     14  C   UNL     1       5.421   5.649  18.680  0.00  0.00    +0.000 A 
ATOM     15  C   UNL     1       4.255   5.503  18.003  0.00  0.00    +0.000 A 
ATOM     16  O   UNL     1       4.511   5.279  16.671  0.00  0.00    +0.000 OA
BRANCH  12  18
ATOM     17  C   UNL     1       5.980   3.883  14.514  0.00  0.00    +0.000 C 
ATOM     18  C   UNL     1       6.520   5.125  15.204  0.00  0.00    +0.000 C 
ENDBRANCH  12  18
ENDBRANCH   1  15
BRANCH   5  19
ATOM     19  C   UNL     1       2.741   7.961  17.952  0.00  0.00    +0.000 C 
BRANCH  19  20
ATOM     20  C   UNL     1       1.999   9.203  18.418  0.00  0.00    +0.000 A 
ATOM     21  N   UNL     1       1.238   9.295  19.477  0.00  0.00    +0.000 NA
ATOM     22  C   UNL     1       0.847  10.636  19.536  0.00  0.00    +0.000 A 
ATOM     23  C   UNL     1       1.394  11.324  18.495  0.00  0.00    +0.000 A 
ATOM     24  N   UNL     1       2.146  10.415  17.781  0.00  0.00    +0.000 N 
ATOM     25  H   UNL     1       2.683  10.597  16.975  0.00  0.00    +0.000 HD
ENDBRANCH  19  20
ENDBRANCH   5  19
TORSDOF 5
ENDMDL
MODEL 9
REMARK VINA RESULT:      -5.8      3.894      6.915
REMARK  Name = 
REMARK  6 active torsions:
REMARK  status: ('A' for Active; 'I' for Inactive)
REMARK    1  A    between atoms: C_1  and  C_2
REMARK    2  A    between atoms: C_2  and  C_3
REMARK    3  A    between atoms: C_6  and  C_7
REMARK    4  A    between atoms: C_8  and  C_9
REMARK    5  A    between atoms: N_17  and  C_18
REMARK    6  A    between atoms: C_18  and  C_19
REMARK                            x       y       z     vdW  Elec       q    Type
REMARK                         _______ _______ _______ _____ _____    ______ ____
ROOT
ATOM      1  C   UNL     1       2.424   5.797  19.866  0.00  0.00    +0.000 A 
ATOM      2  C   UNL     1       2.210   4.416  20.212  0.00  0.00    +0.000 A 
ATOM      3  N   UNL     1       1.294   4.079  21.205  0.00  0.00    +0.000 NA
ATOM      4  C   UNL     1       1.089   2.742  21.539  0.00  0.00    +0.000 A 
ATOM      5  N   UNL     1       1.711   6.798  20.525  0.00  0.00    +0.000 N 
ENDROOT
BRANCH   2   6
ATOM      6  C   UNL     1       2.988   3.324  19.493  0.00  0.00    +0.000 A 
ATOM      7  C   UNL     1       2.578   2.883  18.246  0.00  0.00    +0.000 A 
ATOM      8  C   UNL     1       3.164   1.657  17.851  0.00  0.00    +0.000 A 
ATOM      9  C   UNL     1       4.249   1.137  18.393  0.00  0.00    +0.000 A 
ATOM     10  C   UNL     1       4.642   1.663  19.593  0.00  0.00    +0.000 A 
ATOM     11  C   UNL     1       4.033   2.781  20.108  0.00  0.00    +0.000 A 
ENDBRANCH   2   6
BRANCH   1  15
ATOM     12  C   UNL     1       5.283   6.527  17.729  0.00  0.00    +0.000 A 
ATOM     13  C   UNL     1       4.318   6.847  16.856  0.00  0.00    +0.000 A 
ATOM     14  C   UNL     1       3.101   6.614  17.545  0.00  0.00    +0.000 A 
ATOM     15  C   UNL     1       3.424   6.165  18.784  0.00  0.00    +0.000 A 
ATOM     16  O   UNL     1       4.790   6.091  18.915  0.00  0.00    +0.000 OA
BRANCH  12  18
ATOM     17  C   UNL     1       7.484   5.822  18.635  0.00  0.00    +0.000 C 
ATOM     18  C   UNL     1       6.782   6.513  17.477  0.00  0.00    +0.000 C 
ENDBRANCH  12  18
ENDBRANCH   1  15
BRANCH   5  19
ATOM     19  C   UNL     1       1.928   8.208  20.172  0.00  0.00    +0.000 C 
BRANCH  19  20
ATOM     20  C   UNL     1       1.020   9.086  21.017  0.00  0.00    +0.000 A 
ATOM     21  N   UNL     1       0.231  10.032  20.574  0.00  0.00    +0.000 NA
ATOM     22  C   UNL     1      -0.454  10.497  21.701  0.00  0.00    +0.000 A 
ATOM     23  C   UNL     1      -0.054   9.808  22.806  0.00  0.00    +0.000 A 
ATOM     24  N   UNL     1       0.882   8.892  22.373  0.00  0.00    +0.000 N 
ATOM     25  H   UNL     1       1.357   8.228  22.926  0.00  0.00    +0.000 HD
ENDBRANCH  19  20
ENDBRANCH   5  19
TORSDOF 5
ENDMDL
