MODEL 1
REMARK VINA RESULT:      -6.9      0.000      0.000
REMARK  Name = 
REMARK  3 active torsions:
REMARK  status: ('A' for Active; 'I' for Inactive)
REMARK    1  A    between atoms: N_1  and  C_2
REMARK    2  A    between atoms: C_7  and  C_8
REMARK    3  A    between atoms: C_8  and  C_10
REMARK                            x       y       z     vdW  Elec       q    Type
REMARK                         _______ _______ _______ _____ _____    ______ ____
ROOT
ATOM      1  C   UNL     1       6.239   6.431  16.790  0.00  0.00    +0.000 A 
ATOM      2  C   UNL     1       7.185   7.327  17.311  0.00  0.00    +0.000 A 
ATOM      3  C   UNL     1       7.941   7.007  18.442  0.00  0.00    +0.000 A 
ATOM      4  C   UNL     1       7.773   5.777  19.065  0.00  0.00    +0.000 A 
ATOM      5  C   UNL     1       6.872   4.854  18.539  0.00  0.00    +0.000 A 
ATOM      6  C   UNL     1       6.147   5.149  17.370  0.00  0.00    +0.000 A 
ENDROOT
BRANCH   1   7
ATOM      7  N   UNL     1       5.602   6.762  15.579  0.00  0.00    +0.000 N 
ATOM      8  H   UNL     1       6.129   7.411  15.006  0.00  0.00    +0.000 HD
ATOM      9  H   UNL     1       4.646   7.101  15.750  0.00  0.00    +0.000 HD
ENDBRANCH   1   7
BRANCH   6  10
ATOM     10  C   UNL     1       5.258   4.099  16.785  0.00  0.00    +0.000 C 
ATOM     11  O   UNL     1       5.606   3.491  15.775  0.00  0.00    +0.000 OA
BRANCH  10  12
ATOM     12  C   UNL     1       3.936   3.804  17.407  0.00  0.00    +0.000 A 
ATOM     13  C   UNL     1       2.994   4.816  17.636  0.00  0.00    +0.000 A 
ATOM     14  C   UNL     1       1.721   4.496  18.110  0.00  0.00    +0.000 A 
ATOM     15  C   UNL     1       1.397   3.170  18.392  0.00  0.00    +0.000 A 
ATOM     16  C   UNL     1       2.350   2.166  18.221  0.00  0.00    +0.000 A 
ATOM     17  C   UNL     1       3.621   2.481  17.733  0.00  0.00    +0.000 A 
ENDBRANCH  10  12
ENDBRANCH   6  10
TORSDOF 3
ENDMDL
MODEL 2
REMARK VINA RESULT:      -6.9      2.506      5.387
REMARK  Name = 
REMARK  3 active torsions:
REMARK  status: ('A' for Active; 'I' for Inactive)
REMARK    1  A    between atoms: N_1  and  C_2
REMARK    2  A    between atoms: C_7  and  C_8
REMARK    3  A    between atoms: C_8  and  C_10
REMARK                            x       y       z     vdW  Elec       q    Type
REMARK                         _______ _______ _______ _____ _____    ______ ____
ROOT
ATOM      1  C   UNL     1       1.932   5.084  19.938  0.00  0.00    +0.000 A 
ATOM      2  C   UNL     1       1.146   4.084  20.530  0.00  0.00    +0.000 A 
ATOM      3  C   UNL     1       0.778   2.937  19.822  0.00  0.00    +0.000 A 
ATOM      4  C   UNL     1       1.200   2.765  18.509  0.00  0.00    +0.000 A 
ATOM      5  C   UNL     1       2.018   3.724  17.916  0.00  0.00    +0.000 A 
ATOM      6  C   UNL     1       2.436   4.854  18.642  0.00  0.00    +0.000 A 
ENDROOT
BRANCH   1   7
ATOM      7  N   UNL     1       2.372   6.152  20.743  0.00  0.00    +0.000 N 
ATOM      8  H   UNL     1       3.276   6.522  20.471  0.00  0.00    +0.000 HD
ATOM      9  H   UNL     1       2.356   5.891  21.738  0.00  0.00    +0.000 HD
ENDBRANCH   1   7
BRANCH   6  10
ATOM     10  C   UNL     1       3.386   5.815  18.002  0.00  0.00    +0.000 C 
ATOM     11  O   UNL     1       3.065   6.992  17.855  0.00  0.00    +0.000 OA
BRANCH  10  12
ATOM     12  C   UNL     1       4.715   5.346  17.515  0.00  0.00    +0.000 A 
ATOM     13  C   UNL     1       4.969   5.161  16.149  0.00  0.00    +0.000 A 
ATOM     14  C   UNL     1       6.254   4.835  15.712  0.00  0.00    +0.000 A 
ATOM     15  C   UNL     1       7.278   4.655  16.639  0.00  0.00    +0.000 A 
ATOM     16  C   UNL     1       7.017   4.779  18.004  0.00  0.00    +0.000 A 
ATOM     17  C   UNL     1       5.735   5.120  18.444  0.00  0.00    +0.000 A 
ENDBRANCH  10  12
ENDBRANCH   6  10
TORSDOF 3
ENDMDL
MODEL 3
REMARK VINA RESULT:      -6.9      2.424      5.429
REMARK  Name = 
REMARK  3 active torsions:
REMARK  status: ('A' for Active; 'I' for Inactive)
REMARK    1  A    between atoms: N_1  and  C_2
REMARK    2  A    between atoms: C_7  and  C_8
REMARK    3  A    between atoms: C_8  and  C_10
REMARK                            x       y       z     vdW  Elec       q    Type
REMARK                         _______ _______ _______ _____ _____    ______ ____
ROOT
ATOM      1  C   UNL     1       3.846   2.867  20.089  0.00  0.00    +0.000 A 
ATOM      2  C   UNL     1       2.959   2.572  21.135  0.00  0.00    +0.000 A 
ATOM      3  C   UNL     1       1.936   3.456  21.488  0.00  0.00    +0.000 A 
ATOM      4  C   UNL     1       1.776   4.649  20.793  0.00  0.00    +0.000 A 
ATOM      5  C   UNL     1       2.618   4.940  19.722  0.00  0.00    +0.000 A 
ATOM      6  C   UNL     1       3.615   4.030  19.327  0.00  0.00    +0.000 A 
ENDROOT
BRANCH   1   7
ATOM      7  N   UNL     1       4.773   1.880  19.702  0.00  0.00    +0.000 N 
ATOM      8  H   UNL     1       5.125   2.000  18.758  0.00  0.00    +0.000 HD
ATOM      9  H   UNL     1       4.384   0.938  19.842  0.00  0.00    +0.000 HD
ENDBRANCH   1   7
BRANCH   6  10
ATOM     10  C   UNL     1       4.438   4.337  18.118  0.00  0.00    +0.000 C 
ATOM     11  O   UNL     1       4.171   3.811  17.040  0.00  0.00    +0.000 OA
BRANCH  10  12
ATOM     12  C   UNL     1       5.603   5.263  18.219  0.00  0.00    +0.000 A 
ATOM     13  C   UNL     1       6.576   5.106  19.214  0.00  0.00    +0.000 A 
ATOM     14  C   UNL     1       7.716   5.912  19.216  0.00  0.00    +0.000 A 
ATOM     15  C   UNL     1       7.869   6.901  18.246  0.00  0.00    +0.000 A 
ATOM     16  C   UNL     1       6.875   7.100  17.287  0.00  0.00    +0.000 A 
ATOM     17  C   UNL     1       5.739   6.286  17.275  0.00  0.00    +0.000 A 
ENDBRANCH  10  12
ENDBRANCH   6  10
TORSDOF 3
ENDMDL
MODEL 4
REMARK VINA RESULT:      -6.9      2.563      5.425
REMARK  Name = 
REMARK  3 active torsions:
REMARK  status: ('A' for Active; 'I' for Inactive)
REMARK    1  A    between atoms: N_1  and  C_2
REMARK    2  A    between atoms: C_7  and  C_8
REMARK    3  A    between atoms: C_8  and  C_10
REMARK                            x       y       z     vdW  Elec       q    Type
REMARK                         _______ _______ _______ _____ _____    ______ ____
ROOT
ATOM      1  C   UNL     1       1.888   5.214  19.943  0.00  0.00    +0.000 A 
ATOM      2  C   UNL     1       1.133   4.167  20.494  0.00  0.00    +0.000 A 
ATOM      3  C   UNL     1       0.823   3.027  19.747  0.00  0.00    +0.000 A 
ATOM      4  C   UNL     1       1.273   2.910  18.438  0.00  0.00    +0.000 A 
ATOM      5  C   UNL     1       2.061   3.917  17.886  0.00  0.00    +0.000 A 
ATOM      6  C   UNL     1       2.422   5.042  18.650  0.00  0.00    +0.000 A 
ENDROOT
BRANCH   1   7
ATOM      7  N   UNL     1       2.271   6.275  20.786  0.00  0.00    +0.000 N 
ATOM      8  H   UNL     1       3.049   6.819  20.427  0.00  0.00    +0.000 HD
ATOM      9  H   UNL     1       2.456   5.937  21.739  0.00  0.00    +0.000 HD
ENDBRANCH   1   7
BRANCH   6  10
ATOM     10  C   UNL     1       3.343   6.057  18.054  0.00  0.00    +0.000 C 
ATOM     11  O   UNL     1       2.972   7.220  17.919  0.00  0.00    +0.000 OA
BRANCH  10  12
ATOM     12  C   UNL     1       4.705   5.658  17.596  0.00  0.00    +0.000 A 
ATOM     13  C   UNL     1       5.697   5.270  18.506  0.00  0.00    +0.000 A 
ATOM     14  C   UNL     1       6.924   4.790  18.046  0.00  0.00    +0.000 A 
ATOM     15  C   UNL     1       7.177   4.731  16.677  0.00  0.00    +0.000 A 
ATOM     16  C   UNL     1       6.215   5.172  15.767  0.00  0.00    +0.000 A 
ATOM     17  C   UNL     1       4.980   5.640  16.225  0.00  0.00    +0.000 A 
ENDBRANCH  10  12
ENDBRANCH   6  10
TORSDOF 3
ENDMDL
MODEL 5
REMARK VINA RESULT:      -6.9      2.616      5.257
REMARK  Name = 
REMARK  3 active torsions:
REMARK  status: ('A' for Active; 'I' for Inactive)
REMARK    1  A    between atoms: N_1  and  C_2
REMARK    2  A    between atoms: C_7  and  C_8
REMARK    3  A    between atoms: C_8  and  C_10
REMARK                            x       y       z     vdW  Elec       q    Type
REMARK                         _______ _______ _______ _____ _____    ______ ____
ROOT
ATOM      1  C   UNL     1       3.517   2.744  19.978  0.00  0.00    +0.000 A 
ATOM      2  C   UNL     1       3.086   2.506  21.292  0.00  0.00    +0.000 A 
ATOM      3  C   UNL     1       1.794   2.844  21.703  0.00  0.00    +0.000 A 
ATOM      4  C   UNL     1       0.905   3.416  20.802  0.00  0.00    +0.000 A 
ATOM      5  C   UNL     1       1.297   3.620  19.481  0.00  0.00    +0.000 A 
ATOM      6  C   UNL     1       2.578   3.233  19.047  0.00  0.00    +0.000 A 
ENDROOT
BRANCH   1   7
ATOM      7  N   UNL     1       4.785   2.267  19.594  0.00  0.00    +0.000 N 
ATOM      8  H   UNL     1       4.792   1.284  19.345  0.00  0.00    +0.000 HD
ATOM      9  H   UNL     1       5.488   2.478  20.315  0.00  0.00    +0.000 HD
ENDBRANCH   1   7
BRANCH   6  10
ATOM     10  C   UNL     1       2.930   3.385  17.603  0.00  0.00    +0.000 C 
ATOM     11  O   UNL     1       2.486   2.594  16.774  0.00  0.00    +0.000 OA
BRANCH  10  12
ATOM     12  C   UNL     1       3.841   4.480  17.163  0.00  0.00    +0.000 A 
ATOM     13  C   UNL     1       4.846   4.257  16.213  0.00  0.00    +0.000 A 
ATOM     14  C   UNL     1       5.608   5.323  15.732  0.00  0.00    +0.000 A 
ATOM     15  C   UNL     1       5.395   6.608  16.227  0.00  0.00    +0.000 A 
ATOM     16  C   UNL     1       4.435   6.827  17.216  0.00  0.00    +0.000 A 
ATOM     17  C   UNL     1       3.661   5.763  17.689  0.00  0.00    +0.000 A 
ENDBRANCH  10  12
ENDBRANCH   6  10
TORSDOF 3
ENDMDL
MODEL 6
REMARK VINA RESULT:      -6.8      2.848      5.012
REMARK  Name = 
REMARK  3 active torsions:
REMARK  status: ('A' for Active; 'I' for Inactive)
REMARK    1  A    between atoms: N_1  and  C_2
REMARK    2  A    between atoms: C_7  and  C_8
REMARK    3  A    between atoms: C_8  and  C_10
REMARK                            x       y       z     vdW  Elec       q    Type
REMARK                         _______ _______ _______ _____ _____    ______ ____
ROOT
ATOM      1  C   UNL     1       3.744   3.012  20.150  0.00  0.00    +0.000 A 
ATOM      2  C   UNL     1       2.492   2.601  20.634  0.00  0.00    +0.000 A 
ATOM      3  C   UNL     1       1.446   3.512  20.804  0.00  0.00    +0.000 A 
ATOM      4  C   UNL     1       1.631   4.851  20.483  0.00  0.00    +0.000 A 
ATOM      5  C   UNL     1       2.851   5.272  19.959  0.00  0.00    +0.000 A 
ATOM      6  C   UNL     1       3.890   4.351  19.734  0.00  0.00    +0.000 A 
ENDROOT
BRANCH   1   7
ATOM      7  N   UNL     1       4.713   2.026  19.884  0.00  0.00    +0.000 N 
ATOM      8  H   UNL     1       5.394   2.303  19.185  0.00  0.00    +0.000 HD
ATOM      9  H   UNL     1       4.267   1.131  19.641  0.00  0.00    +0.000 HD
ENDBRANCH   1   7
BRANCH   6  10
ATOM     10  C   UNL     1       5.151   4.825  19.088  0.00  0.00    +0.000 C 
ATOM     11  O   UNL     1       6.147   5.050  19.772  0.00  0.00    +0.000 OA
BRANCH  10  12
ATOM     12  C   UNL     1       5.201   5.051  17.615  0.00  0.00    +0.000 A 
ATOM     13  C   UNL     1       5.029   6.330  17.066  0.00  0.00    +0.000 A 
ATOM     14  C   UNL     1       5.196   6.534  15.696  0.00  0.00    +0.000 A 
ATOM     15  C   UNL     1       5.498   5.457  14.864  0.00  0.00    +0.000 A 
ATOM     16  C   UNL     1       5.611   4.172  15.397  0.00  0.00    +0.000 A 
ATOM     17  C   UNL     1       5.458   3.967  16.771  0.00  0.00    +0.000 A 
ENDBRANCH  10  12
ENDBRANCH   6  10
TORSDOF 3
ENDMDL
MODEL 7
REMARK VINA RESULT:      -6.8      2.512      5.560
REMARK  Name = 
REMARK  3 active torsions:
REMARK  status: ('A' for Active; 'I' for Inactive)
REMARK    1  A    between atoms: N_1  and  C_2
REMARK    2  A    between atoms: C_7  and  C_8
REMARK    3  A    between atoms: C_8  and  C_10
REMARK                            x       y       z     vdW  Elec       q    Type
REMARK                         _______ _______ _______ _____ _____    ______ ____
ROOT
ATOM      1  C   UNL     1       1.755   5.131  20.015  0.00  0.00    +0.000 A 
ATOM      2  C   UNL     1       1.085   3.979  20.455  0.00  0.00    +0.000 A 
ATOM      3  C   UNL     1       0.914   2.875  19.615  0.00  0.00    +0.000 A 
ATOM      4  C   UNL     1       1.421   2.900  18.322  0.00  0.00    +0.000 A 
ATOM      5  C   UNL     1       2.128   4.016  17.879  0.00  0.00    +0.000 A 
ATOM      6  C   UNL     1       2.350   5.108  18.738  0.00  0.00    +0.000 A 
ENDROOT
BRANCH   1   7
ATOM      7  N   UNL     1       2.003   6.156  20.949  0.00  0.00    +0.000 N 
ATOM      8  H   UNL     1       2.701   6.824  20.643  0.00  0.00    +0.000 HD
ATOM      9  H   UNL     1       2.234   5.763  21.870  0.00  0.00    +0.000 HD
ENDBRANCH   1   7
BRANCH   6  10
ATOM     10  C   UNL     1       3.189   6.248  18.257  0.00  0.00    +0.000 C 
ATOM     11  O   UNL     1       2.660   7.307  17.930  0.00  0.00    +0.000 OA
BRANCH  10  12
ATOM     12  C   UNL     1       4.669   6.097  18.148  0.00  0.00    +0.000 A 
ATOM     13  C   UNL     1       5.386   6.681  17.095  0.00  0.00    +0.000 A 
ATOM     14  C   UNL     1       6.781   6.624  17.080  0.00  0.00    +0.000 A 
ATOM     15  C   UNL     1       7.460   5.952  18.094  0.00  0.00    +0.000 A 
ATOM     16  C   UNL     1       6.748   5.318  19.112  0.00  0.00    +0.000 A 
ATOM     17  C   UNL     1       5.352   5.385  19.138  0.00  0.00    +0.000 A 
ENDBRANCH  10  12
ENDBRANCH   6  10
TORSDOF 3
ENDMDL
MODEL 8
REMARK VINA RESULT:      -6.8      2.712      5.185
REMARK  Name = 
REMARK  3 active torsions:
REMARK  status: ('A' for Active; 'I' for Inactive)
REMARK    1  A    between atoms: N_1  and  C_2
REMARK    2  A    between atoms: C_7  and  C_8
REMARK    3  A    between atoms: C_8  and  C_10
REMARK                            x       y       z     vdW  Elec       q    Type
REMARK                         _______ _______ _______ _____ _____    ______ ____
ROOT
ATOM      1  C   UNL     1       2.821   2.304  19.056  0.00  0.00    +0.000 A 
ATOM      2  C   UNL     1       1.484   2.044  19.395  0.00  0.00    +0.000 A 
ATOM      3  C   UNL     1       0.694   3.012  20.021  0.00  0.00    +0.000 A 
ATOM      4  C   UNL     1       1.226   4.263  20.310  0.00  0.00    +0.000 A 
ATOM      5  C   UNL     1       2.537   4.558  19.941  0.00  0.00    +0.000 A 
ATOM      6  C   UNL     1       3.319   3.606  19.263  0.00  0.00    +0.000 A 
ENDROOT
BRANCH   1   7
ATOM      7  N   UNL     1       3.523   1.333  18.316  0.00  0.00    +0.000 N 
ATOM      8  H   UNL     1       3.691   1.599  17.352  0.00  0.00    +0.000 HD
ATOM      9  H   UNL     1       3.056   0.418  18.379  0.00  0.00    +0.000 HD
ENDBRANCH   1   7
BRANCH   6  10
ATOM     10  C   UNL     1       4.690   3.990  18.805  0.00  0.00    +0.000 C 
ATOM     11  O   UNL     1       5.663   3.770  19.522  0.00  0.00    +0.000 OA
BRANCH  10  12
ATOM     12  C   UNL     1       4.880   4.664  17.488  0.00  0.00    +0.000 A 
ATOM     13  C   UNL     1       4.738   6.051  17.351  0.00  0.00    +0.000 A 
ATOM     14  C   UNL     1       5.036   6.671  16.136  0.00  0.00    +0.000 A 
ATOM     15  C   UNL     1       5.439   5.904  15.045  0.00  0.00    +0.000 A 
ATOM     16  C   UNL     1       5.525   4.515  15.160  0.00  0.00    +0.000 A 
ATOM     17  C   UNL     1       5.241   3.893  16.379  0.00  0.00    +0.000 A 
ENDBRANCH  10  12
ENDBRANCH   6  10
TORSDOF 3
ENDMDL
MODEL 9
REMARK VINA RESULT:      -6.8      2.591      5.125
REMARK  Name = 
REMARK  3 active torsions:
REMARK  status: ('A' for Active; 'I' for Inactive)
REMARK    1  A    between atoms: N_1  and  C_2
REMARK    2  A    between atoms: C_7  and  C_8
REMARK    3  A    between atoms: C_8  and  C_10
REMARK                            x       y       z     vdW  Elec       q    Type
REMARK                         _______ _______ _______ _____ _____    ______ ____
ROOT
ATOM      1  C   UNL     1       2.454   4.510  19.802  0.00  0.00    +0.000 A 
ATOM      2  C   UNL     1       1.170   4.113  20.205  0.00  0.00    +0.000 A 
ATOM      3  C   UNL     1       0.574   2.958  19.693  0.00  0.00    +0.000 A 
ATOM      4  C   UNL     1       1.258   2.171  18.774  0.00  0.00    +0.000 A 
ATOM      5  C   UNL     1       2.552   2.522  18.394  0.00  0.00    +0.000 A 
ATOM      6  C   UNL     1       3.177   3.654  18.948  0.00  0.00    +0.000 A 
ENDROOT
BRANCH   1   7
ATOM      7  N   UNL     1       3.046   5.612  20.449  0.00  0.00    +0.000 N 
ATOM      8  H   UNL     1       2.993   6.473  19.915  0.00  0.00    +0.000 HD
ATOM      9  H   UNL     1       4.013   5.398  20.724  0.00  0.00    +0.000 HD
ENDBRANCH   1   7
BRANCH   6  10
ATOM     10  C   UNL     1       4.597   3.947  18.584  0.00  0.00    +0.000 C 
ATOM     11  O   UNL     1       5.493   3.772  19.407  0.00  0.00    +0.000 OA
BRANCH  10  12
ATOM     12  C   UNL     1       4.931   4.477  17.230  0.00  0.00    +0.000 A 
ATOM     13  C   UNL     1       4.763   5.832  16.915  0.00  0.00    +0.000 A 
ATOM     14  C   UNL     1       5.192   6.325  15.682  0.00  0.00    +0.000 A 
ATOM     15  C   UNL     1       5.756   5.460  14.746  0.00  0.00    +0.000 A 
ATOM     16  C   UNL     1       5.872   4.099  15.032  0.00  0.00    +0.000 A 
ATOM     17  C   UNL     1       5.456   3.605  16.272  0.00  0.00    +0.000 A 
ENDBRANCH  10  12
ENDBRANCH   6  10
TORSDOF 3
ENDMDL
