MODEL 1
REMARK VINA RESULT:      -7.5      0.000      0.000
REMARK  Name = 
REMARK  8 active torsions:
REMARK  status: ('A' for Active; 'I' for Inactive)
REMARK    1  A    between atoms: C_1  and  O_2
REMARK    2  A    between atoms: O_2  and  C_3
REMARK    3  A    between atoms: C_3  and  C_5
REMARK    4  A    between atoms: C_11  and  N_12
REMARK    5  A    between atoms: N_12  and  C_13
REMARK    6  A    between atoms: N_12  and  C_14
REMARK    7  A    between atoms: C_19  and  O_20
REMARK    8  A    between atoms: C_23  and  N_24
REMARK                            x       y       z     vdW  Elec       q    Type
REMARK                         _______ _______ _______ _____ _____    ______ ____
ROOT
ATOM      1  C   UNL     1       4.893   5.920  17.512  0.00  0.00    +0.000 A 
ATOM      2  C   UNL     1       3.777   6.677  18.156  0.00  0.00    +0.000 A 
ATOM      3  N   UNL     1       3.377   7.810  17.667  0.00  0.00    +0.000 NA
ATOM      4  C   UNL     1       2.391   8.515  18.361  0.00  0.00    +0.000 A 
ATOM      5  C   UNL     1       2.030   9.779  17.913  0.00  0.00    +0.000 A 
ATOM      6  C   UNL     1       1.062  10.525  18.597  0.00  0.00    +0.000 A 
ATOM      7  C   UNL     1       0.423  10.037  19.749  0.00  0.00    +0.000 A 
ATOM      8  C   UNL     1       0.812   8.757  20.185  0.00  0.00    +0.000 A 
ATOM      9  C   UNL     1       1.784   8.014  19.508  0.00  0.00    +0.000 A 
ATOM     10  O   UNL     1       2.133   6.789  20.028  0.00  0.00    +0.000 OA
ATOM     11  C   UNL     1       3.146   6.087  19.373  0.00  0.00    +0.000 A 
ATOM     12  C   UNL     1       3.507   4.885  19.831  0.00  0.00    +0.000 A 
ATOM     13  C   UNL     1       4.557   4.097  19.138  0.00  0.00    +0.000 A 
ATOM     14  O   UNL     1       4.821   2.944  19.472  0.00  0.00    +0.000 OA
ATOM     15  C   UNL     1       5.291   4.720  17.980  0.00  0.00    +0.000 A 
ENDROOT
BRANCH   7  16
ATOM     16  N   UNL     1      -0.518  10.783  20.440  0.00  0.00    +0.000 N 
ATOM     17  C   UNL     1      -1.460  11.655  19.746  0.00  0.00    +0.000 C 
ATOM     18  C   UNL     1      -0.496  10.915  21.893  0.00  0.00    +0.000 C 
ENDBRANCH   7  16
BRANCH  15  19
ATOM     19  N   UNL     1       6.338   3.941  17.489  0.00  0.00    +0.000 N 
ATOM     20  H   UNL     1       6.212   2.950  17.713  0.00  0.00    +0.000 HD
ATOM     21  H   UNL     1       6.558   4.116  16.505  0.00  0.00    +0.000 HD
ENDBRANCH  15  19
BRANCH   1  22
ATOM     22  C   UNL     1       5.617   6.468  16.330  0.00  0.00    +0.000 C 
ATOM     23  O   UNL     1       5.070   6.744  15.264  0.00  0.00    +0.000 OA
BRANCH  22  25
ATOM     24  C   UNL     1       7.300   7.703  17.422  0.00  0.00    +0.000 C 
ATOM     25  O   UNL     1       6.936   6.610  16.579  0.00  0.00    +0.000 OA
ENDBRANCH  22  25
ENDBRANCH   1  22
BRANCH  12  26
ATOM     26  O   UNL     1       2.899   4.320  20.945  0.00  0.00    +0.000 OA
ATOM     27  H   UNL     1       3.135   4.860  21.722  0.00  0.00    +0.000 HD
ENDBRANCH  12  26
TORSDOF 5
ENDMDL
MODEL 2
REMARK VINA RESULT:      -7.2      0.820      1.348
REMARK  Name = 
REMARK  8 active torsions:
REMARK  status: ('A' for Active; 'I' for Inactive)
REMARK    1  A    between atoms: C_1  and  O_2
REMARK    2  A    between atoms: O_2  and  C_3
REMARK    3  A    between atoms: C_3  and  C_5
REMARK    4  A    between atoms: C_11  and  N_12
REMARK    5  A    between atoms: N_12  and  C_13
REMARK    6  A    between atoms: N_12  and  C_14
REMARK    7  A    between atoms: C_19  and  O_20
REMARK    8  A    between atoms: C_23  and  N_24
REMARK                            x       y       z     vdW  Elec       q    Type
REMARK                         _______ _______ _______ _____ _____    ______ ____
ROOT
ATOM      1  C   UNL     1       4.463   5.795  17.763  0.00  0.00    +0.000 A 
ATOM      2  C   UNL     1       3.432   6.693  18.365  0.00  0.00    +0.000 A 
ATOM      3  N   UNL     1       3.121   7.818  17.799  0.00  0.00    +0.000 NA
ATOM      4  C   UNL     1       2.215   8.657  18.453  0.00  0.00    +0.000 A 
ATOM      5  C   UNL     1       1.957   9.911  17.916  0.00  0.00    +0.000 A 
ATOM      6  C   UNL     1       1.072  10.788  18.557  0.00  0.00    +0.000 A 
ATOM      7  C   UNL     1       0.418  10.445  19.752  0.00  0.00    +0.000 A 
ATOM      8  C   UNL     1       0.704   9.172  20.278  0.00  0.00    +0.000 A 
ATOM      9  C   UNL     1       1.593   8.297  19.643  0.00  0.00    +0.000 A 
ATOM     10  O   UNL     1       1.845   7.088  20.248  0.00  0.00    +0.000 OA
ATOM     11  C   UNL     1       2.778   6.252  19.632  0.00  0.00    +0.000 A 
ATOM     12  C   UNL     1       3.043   5.060  20.174  0.00  0.00    +0.000 A 
ATOM     13  C   UNL     1       4.004   4.133  19.526  0.00  0.00    +0.000 A 
ATOM     14  O   UNL     1       4.174   2.989  19.942  0.00  0.00    +0.000 OA
ATOM     15  C   UNL     1       4.765   4.602  18.313  0.00  0.00    +0.000 A 
ENDROOT
BRANCH   7  16
ATOM     16  N   UNL     1      -0.438  11.320  20.400  0.00  0.00    +0.000 N 
ATOM     17  C   UNL     1      -0.474  11.414  21.856  0.00  0.00    +0.000 C 
ATOM     18  C   UNL     1      -1.496  12.040  19.700  0.00  0.00    +0.000 C 
ENDBRANCH   7  16
BRANCH  15  19
ATOM     19  N   UNL     1       5.729   3.699  17.866  0.00  0.00    +0.000 N 
ATOM     20  H   UNL     1       6.405   3.471  18.600  0.00  0.00    +0.000 HD
ATOM     21  H   UNL     1       5.340   2.878  17.394  0.00  0.00    +0.000 HD
ENDBRANCH  15  19
BRANCH   1  22
ATOM     22  C   UNL     1       5.206   6.188  16.531  0.00  0.00    +0.000 C 
ATOM     23  O   UNL     1       5.985   7.137  16.479  0.00  0.00    +0.000 OA
BRANCH  22  25
ATOM     24  C   UNL     1       5.994   5.015  14.646  0.00  0.00    +0.000 C 
ATOM     25  O   UNL     1       4.904   5.379  15.493  0.00  0.00    +0.000 OA
ENDBRANCH  22  25
ENDBRANCH   1  22
BRANCH  12  26
ATOM     26  O   UNL     1       2.413   4.634  21.336  0.00  0.00    +0.000 OA
ATOM     27  H   UNL     1       1.858   3.864  21.112  0.00  0.00    +0.000 HD
ENDBRANCH  12  26
TORSDOF 5
ENDMDL
MODEL 3
REMARK VINA RESULT:      -6.9      1.778      3.871
REMARK  Name = 
REMARK  8 active torsions:
REMARK  status: ('A' for Active; 'I' for Inactive)
REMARK    1  A    between atoms: C_1  and  O_2
REMARK    2  A    between atoms: O_2  and  C_3
REMARK    3  A    between atoms: C_3  and  C_5
REMARK    4  A    between atoms: C_11  and  N_12
REMARK    5  A    between atoms: N_12  and  C_13
REMARK    6  A    between atoms: N_12  and  C_14
REMARK    7  A    between atoms: C_19  and  O_20
REMARK    8  A    between atoms: C_23  and  N_24
REMARK                            x       y       z     vdW  Elec       q    Type
REMARK                         _______ _______ _______ _____ _____    ______ ____
ROOT
ATOM      1  C   UNL     1       3.275   4.360  18.883  0.00  0.00    +0.000 A 
ATOM      2  C   UNL     1       3.009   5.824  18.751  0.00  0.00    +0.000 A 
ATOM      3  N   UNL     1       2.245   6.437  19.601  0.00  0.00    +0.000 NA
ATOM      4  C   UNL     1       1.961   7.787  19.378  0.00  0.00    +0.000 A 
ATOM      5  C   UNL     1       1.058   8.429  20.215  0.00  0.00    +0.000 A 
ATOM      6  C   UNL     1       0.731   9.775  20.008  0.00  0.00    +0.000 A 
ATOM      7  C   UNL     1       1.292  10.525  18.961  0.00  0.00    +0.000 A 
ATOM      8  C   UNL     1       2.199   9.848  18.123  0.00  0.00    +0.000 A 
ATOM      9  C   UNL     1       2.521   8.501  18.325  0.00  0.00    +0.000 A 
ATOM     10  O   UNL     1       3.384   7.908  17.434  0.00  0.00    +0.000 OA
ATOM     11  C   UNL     1       3.649   6.550  17.614  0.00  0.00    +0.000 A 
ATOM     12  C   UNL     1       4.496   5.934  16.785  0.00  0.00    +0.000 A 
ATOM     13  C   UNL     1       4.825   4.499  16.970  0.00  0.00    +0.000 A 
ATOM     14  O   UNL     1       5.688   3.945  16.291  0.00  0.00    +0.000 OA
ATOM     15  C   UNL     1       4.103   3.716  18.035  0.00  0.00    +0.000 A 
ENDROOT
BRANCH   7  16
ATOM     16  N   UNL     1       0.953  11.849  18.740  0.00  0.00    +0.000 N 
ATOM     17  C   UNL     1      -0.439  12.266  18.596  0.00  0.00    +0.000 C 
ATOM     18  C   UNL     1       1.948  12.869  18.425  0.00  0.00    +0.000 C 
ENDBRANCH   7  16
BRANCH  15  19
ATOM     19  N   UNL     1       4.398   2.353  18.034  0.00  0.00    +0.000 N 
ATOM     20  H   UNL     1       3.578   1.787  18.267  0.00  0.00    +0.000 HD
ATOM     21  H   UNL     1       4.893   2.038  17.196  0.00  0.00    +0.000 HD
ENDBRANCH  15  19
BRANCH   1  22
ATOM     22  C   UNL     1       2.627   3.550  19.953  0.00  0.00    +0.000 C 
ATOM     23  O   UNL     1       3.245   3.018  20.873  0.00  0.00    +0.000 OA
BRANCH  22  25
ATOM     24  C   UNL     1       0.838   2.488  18.848  0.00  0.00    +0.000 C 
ATOM     25  O   UNL     1       1.291   3.474  19.776  0.00  0.00    +0.000 OA
ENDBRANCH  22  25
ENDBRANCH   1  22
BRANCH  12  26
ATOM     26  O   UNL     1       5.117   6.615  15.745  0.00  0.00    +0.000 OA
ATOM     27  H   UNL     1       5.539   7.412  16.117  0.00  0.00    +0.000 HD
ENDBRANCH  12  26
TORSDOF 5
ENDMDL
MODEL 4
REMARK VINA RESULT:      -6.9      1.841      3.966
REMARK  Name = 
REMARK  8 active torsions:
REMARK  status: ('A' for Active; 'I' for Inactive)
REMARK    1  A    between atoms: C_1  and  O_2
REMARK    2  A    between atoms: O_2  and  C_3
REMARK    3  A    between atoms: C_3  and  C_5
REMARK    4  A    between atoms: C_11  and  N_12
REMARK    5  A    between atoms: N_12  and  C_13
REMARK    6  A    between atoms: N_12  and  C_14
REMARK    7  A    between atoms: C_19  and  O_20
REMARK    8  A    between atoms: C_23  and  N_24
REMARK                            x       y       z     vdW  Elec       q    Type
REMARK                         _______ _______ _______ _____ _____    ______ ____
ROOT
ATOM      1  C   UNL     1       3.068   4.041  19.608  0.00  0.00    +0.000 A 
ATOM      2  C   UNL     1       2.725   5.493  19.516  0.00  0.00    +0.000 A 
ATOM      3  N   UNL     1       1.974   6.053  20.413  0.00  0.00    +0.000 NA
ATOM      4  C   UNL     1       1.614   7.391  20.228  0.00  0.00    +0.000 A 
ATOM      5  C   UNL     1       0.722   7.974  21.118  0.00  0.00    +0.000 A 
ATOM      6  C   UNL     1       0.320   9.305  20.951  0.00  0.00    +0.000 A 
ATOM      7  C   UNL     1       0.792  10.098  19.892  0.00  0.00    +0.000 A 
ATOM      8  C   UNL     1       1.688   9.481  19.000  0.00  0.00    +0.000 A 
ATOM      9  C   UNL     1       2.085   8.148  19.162  0.00  0.00    +0.000 A 
ATOM     10  O   UNL     1       2.932   7.613  18.220  0.00  0.00    +0.000 OA
ATOM     11  C   UNL     1       3.271   6.267  18.363  0.00  0.00    +0.000 A 
ATOM     12  C   UNL     1       4.106   5.707  17.483  0.00  0.00    +0.000 A 
ATOM     13  C   UNL     1       4.514   4.287  17.626  0.00  0.00    +0.000 A 
ATOM     14  O   UNL     1       5.369   3.787  16.898  0.00  0.00    +0.000 OA
ATOM     15  C   UNL     1       3.884   3.453  18.711  0.00  0.00    +0.000 A 
ENDROOT
BRANCH   7  16
ATOM     16  N   UNL     1       0.377  11.407  19.711  0.00  0.00    +0.000 N 
ATOM     17  C   UNL     1       0.908  12.495  20.527  0.00  0.00    +0.000 C 
ATOM     18  C   UNL     1      -0.753  11.758  18.858  0.00  0.00    +0.000 C 
ENDBRANCH   7  16
BRANCH  15  19
ATOM     19  N   UNL     1       4.246   2.107  18.671  0.00  0.00    +0.000 N 
ATOM     20  H   UNL     1       3.562   1.545  18.157  0.00  0.00    +0.000 HD
ATOM     21  H   UNL     1       5.214   1.947  18.380  0.00  0.00    +0.000 HD
ENDBRANCH  15  19
BRANCH   1  22
ATOM     22  C   UNL     1       2.514   3.184  20.694  0.00  0.00    +0.000 C 
ATOM     23  O   UNL     1       3.204   2.652  21.562  0.00  0.00    +0.000 OA
BRANCH  22  25
ATOM     24  C   UNL     1       0.683   2.496  19.380  0.00  0.00    +0.000 C 
ATOM     25  O   UNL     1       1.172   3.064  20.594  0.00  0.00    +0.000 OA
ENDBRANCH  22  25
ENDBRANCH   1  22
BRANCH  12  26
ATOM     26  O   UNL     1       4.641   6.434  16.427  0.00  0.00    +0.000 OA
ATOM     27  H   UNL     1       4.232   7.319  16.433  0.00  0.00    +0.000 HD
ENDBRANCH  12  26
TORSDOF 5
ENDMDL
MODEL 5
REMARK VINA RESULT:      -6.9      1.040      1.310
REMARK  Name = 
REMARK  8 active torsions:
REMARK  status: ('A' for Active; 'I' for Inactive)
REMARK    1  A    between atoms: C_1  and  O_2
REMARK    2  A    between atoms: O_2  and  C_3
REMARK    3  A    between atoms: C_3  and  C_5
REMARK    4  A    between atoms: C_11  and  N_12
REMARK    5  A    between atoms: N_12  and  C_13
REMARK    6  A    between atoms: N_12  and  C_14
REMARK    7  A    between atoms: C_19  and  O_20
REMARK    8  A    between atoms: C_23  and  N_24
REMARK                            x       y       z     vdW  Elec       q    Type
REMARK                         _______ _______ _______ _____ _____    ______ ____
ROOT
ATOM      1  C   UNL     1       4.088   5.557  18.127  0.00  0.00    +0.000 A 
ATOM      2  C   UNL     1       3.097   6.401  18.861  0.00  0.00    +0.000 A 
ATOM      3  N   UNL     1       2.797   7.589  18.437  0.00  0.00    +0.000 NA
ATOM      4  C   UNL     1       1.932   8.366  19.212  0.00  0.00    +0.000 A 
ATOM      5  C   UNL     1       1.687   9.679  18.830  0.00  0.00    +0.000 A 
ATOM      6  C   UNL     1       0.844  10.495  19.595  0.00  0.00    +0.000 A 
ATOM      7  C   UNL     1       0.219  10.031  20.764  0.00  0.00    +0.000 A 
ATOM      8  C   UNL     1       0.489   8.700  21.132  0.00  0.00    +0.000 A 
ATOM      9  C   UNL     1       1.337   7.886  20.373  0.00  0.00    +0.000 A 
ATOM     10  O   UNL     1       1.578   6.610  20.828  0.00  0.00    +0.000 OA
ATOM     11  C   UNL     1       2.472   5.832  20.091  0.00  0.00    +0.000 A 
ATOM     12  C   UNL     1       2.724   4.580  20.484  0.00  0.00    +0.000 A 
ATOM     13  C   UNL     1       3.643   3.714  19.704  0.00  0.00    +0.000 A 
ATOM     14  O   UNL     1       3.798   2.526  19.981  0.00  0.00    +0.000 OA
ATOM     15  C   UNL     1       4.378   4.303  18.528  0.00  0.00    +0.000 A 
ENDROOT
BRANCH   7  16
ATOM     16  N   UNL     1      -0.597  10.843  21.535  0.00  0.00    +0.000 N 
ATOM     17  C   UNL     1      -0.876  10.535  22.935  0.00  0.00    +0.000 C 
ATOM     18  C   UNL     1      -1.393  11.922  20.960  0.00  0.00    +0.000 C 
ENDBRANCH   7  16
BRANCH  15  19
ATOM     19  N   UNL     1       5.306   3.437  17.950  0.00  0.00    +0.000 N 
ATOM     20  H   UNL     1       5.034   2.457  18.065  0.00  0.00    +0.000 HD
ATOM     21  H   UNL     1       5.560   3.685  16.990  0.00  0.00    +0.000 HD
ENDBRANCH  15  19
BRANCH   1  22
ATOM     22  C   UNL     1       4.802   6.073  16.925  0.00  0.00    +0.000 C 
ATOM     23  O   UNL     1       4.738   5.548  15.816  0.00  0.00    +0.000 OA
BRANCH  22  25
ATOM     24  C   UNL     1       6.914   6.963  17.473  0.00  0.00    +0.000 C 
ATOM     25  O   UNL     1       5.527   7.176  17.215  0.00  0.00    +0.000 OA
ENDBRANCH  22  25
ENDBRANCH   1  22
BRANCH  12  26
ATOM     26  O   UNL     1       2.119   4.037  21.611  0.00  0.00    +0.000 OA
ATOM     27  H   UNL     1       2.196   4.686  22.335  0.00  0.00    +0.000 HD
ENDBRANCH  12  26
TORSDOF 5
ENDMDL
MODEL 6
REMARK VINA RESULT:      -6.9      3.365      7.664
REMARK  Name = 
REMARK  8 active torsions:
REMARK  status: ('A' for Active; 'I' for Inactive)
REMARK    1  A    between atoms: C_1  and  O_2
REMARK    2  A    between atoms: O_2  and  C_3
REMARK    3  A    between atoms: C_3  and  C_5
REMARK    4  A    between atoms: C_11  and  N_12
REMARK    5  A    between atoms: N_12  and  C_13
REMARK    6  A    between atoms: N_12  and  C_14
REMARK    7  A    between atoms: C_19  and  O_20
REMARK    8  A    between atoms: C_23  and  N_24
REMARK                            x       y       z     vdW  Elec       q    Type
REMARK                         _______ _______ _______ _____ _____    ______ ____
ROOT
ATOM      1  C   UNL     1      -0.951  11.641  19.956  0.00  0.00    +0.000 A 
ATOM      2  C   UNL     1      -0.039  10.460  20.038  0.00  0.00    +0.000 A 
ATOM      3  N   UNL     1       0.592  10.037  18.987  0.00  0.00    +0.000 NA
ATOM      4  C   UNL     1       1.361   8.876  19.104  0.00  0.00    +0.000 A 
ATOM      5  C   UNL     1       1.954   8.348  17.965  0.00  0.00    +0.000 A 
ATOM      6  C   UNL     1       2.712   7.173  18.039  0.00  0.00    +0.000 A 
ATOM      7  C   UNL     1       2.904   6.486  19.248  0.00  0.00    +0.000 A 
ATOM      8  C   UNL     1       2.287   7.038  20.386  0.00  0.00    +0.000 A 
ATOM      9  C   UNL     1       1.523   8.208  20.312  0.00  0.00    +0.000 A 
ATOM     10  O   UNL     1       0.921   8.655  21.466  0.00  0.00    +0.000 OA
ATOM     11  C   UNL     1       0.115   9.790  21.362  0.00  0.00    +0.000 A 
ATOM     12  C   UNL     1      -0.476  10.272  22.459  0.00  0.00    +0.000 A 
ATOM     13  C   UNL     1      -1.312  11.497  22.391  0.00  0.00    +0.000 A 
ATOM     14  O   UNL     1      -1.767  12.021  23.405  0.00  0.00    +0.000 OA
ATOM     15  C   UNL     1      -1.579  12.122  21.047  0.00  0.00    +0.000 A 
ENDROOT
BRANCH   7  16
ATOM     16  N   UNL     1       3.633   5.311  19.320  0.00  0.00    +0.000 N 
ATOM     17  C   UNL     1       3.032   4.067  19.793  0.00  0.00    +0.000 C 
ATOM     18  C   UNL     1       5.081   5.277  19.138  0.00  0.00    +0.000 C 
ENDBRANCH   7  16
BRANCH  15  19
ATOM     19  N   UNL     1      -2.477  13.189  21.089  0.00  0.00    +0.000 N 
ATOM     20  H   UNL     1      -3.420  12.903  20.810  0.00  0.00    +0.000 HD
ATOM     21  H   UNL     1      -2.449  13.720  21.963  0.00  0.00    +0.000 HD
ENDBRANCH  15  19
BRANCH   1  22
ATOM     22  C   UNL     1      -1.207  12.331  18.659  0.00  0.00    +0.000 C 
ATOM     23  O   UNL     1      -0.424  13.125  18.143  0.00  0.00    +0.000 OA
BRANCH  22  25
ATOM     24  C   UNL     1      -2.359  11.179  16.956  0.00  0.00    +0.000 C 
ATOM     25  O   UNL     1      -2.402  11.977  18.139  0.00  0.00    +0.000 OA
ENDBRANCH  22  25
ENDBRANCH   1  22
BRANCH  12  26
ATOM     26  O   UNL     1      -0.308   9.668  23.699  0.00  0.00    +0.000 OA
ATOM     27  H   UNL     1       0.610   9.343  23.754  0.00  0.00    +0.000 HD
ENDBRANCH  12  26
TORSDOF 5
ENDMDL
MODEL 7
REMARK VINA RESULT:      -6.7      3.296      7.339
REMARK  Name = 
REMARK  8 active torsions:
REMARK  status: ('A' for Active; 'I' for Inactive)
REMARK    1  A    between atoms: C_1  and  O_2
REMARK    2  A    between atoms: O_2  and  C_3
REMARK    3  A    between atoms: C_3  and  C_5
REMARK    4  A    between atoms: C_11  and  N_12
REMARK    5  A    between atoms: N_12  and  C_13
REMARK    6  A    between atoms: N_12  and  C_14
REMARK    7  A    between atoms: C_19  and  O_20
REMARK    8  A    between atoms: C_23  and  N_24
REMARK                            x       y       z     vdW  Elec       q    Type
REMARK                         _______ _______ _______ _____ _____    ______ ____
ROOT
ATOM      1  C   UNL     1      -0.178  11.568  20.024  0.00  0.00    +0.000 A 
ATOM      2  C   UNL     1       0.542  10.260  20.059  0.00  0.00    +0.000 A 
ATOM      3  N   UNL     1       1.194   9.835  19.021  0.00  0.00    +0.000 NA
ATOM      4  C   UNL     1       1.773   8.565  19.081  0.00  0.00    +0.000 A 
ATOM      5  C   UNL     1       2.379   8.050  17.943  0.00  0.00    +0.000 A 
ATOM      6  C   UNL     1       2.949   6.771  17.959  0.00  0.00    +0.000 A 
ATOM      7  C   UNL     1       2.935   5.964  19.108  0.00  0.00    +0.000 A 
ATOM      8  C   UNL     1       2.309   6.506  20.245  0.00  0.00    +0.000 A 
ATOM      9  C   UNL     1       1.732   7.781  20.229  0.00  0.00    +0.000 A 
ATOM     10  O   UNL     1       1.105   8.216  21.373  0.00  0.00    +0.000 OA
ATOM     11  C   UNL     1       0.484   9.465  21.321  0.00  0.00    +0.000 A 
ATOM     12  C   UNL     1      -0.122   9.938  22.414  0.00  0.00    +0.000 A 
ATOM     13  C   UNL     1      -0.763  11.277  22.403  0.00  0.00    +0.000 A 
ATOM     14  O   UNL     1      -1.223  11.778  23.426  0.00  0.00    +0.000 OA
ATOM     15  C   UNL     1      -0.821  12.046  21.109  0.00  0.00    +0.000 A 
ENDROOT
BRANCH   7  16
ATOM     16  N   UNL     1       3.478   4.690  19.119  0.00  0.00    +0.000 N 
ATOM     17  C   UNL     1       2.638   3.504  19.266  0.00  0.00    +0.000 C 
ATOM     18  C   UNL     1       4.915   4.453  19.201  0.00  0.00    +0.000 C 
ENDBRANCH   7  16
BRANCH  15  19
ATOM     19  N   UNL     1      -1.555  13.230  21.187  0.00  0.00    +0.000 N 
ATOM     20  H   UNL     1      -1.512  13.761  20.313  0.00  0.00    +0.000 HD
ATOM     21  H   UNL     1      -2.504  13.105  21.548  0.00  0.00    +0.000 HD
ENDBRANCH  15  19
BRANCH   1  22
ATOM     22  C   UNL     1      -0.219  12.395  18.785  0.00  0.00    +0.000 C 
ATOM     23  O   UNL     1      -1.195  12.460  18.041  0.00  0.00    +0.000 OA
BRANCH  22  25
ATOM     24  C   UNL     1       0.919  14.458  18.802  0.00  0.00    +0.000 C 
ATOM     25  O   UNL     1       0.947  13.047  18.586  0.00  0.00    +0.000 OA
ENDBRANCH  22  25
ENDBRANCH   1  22
BRANCH  12  26
ATOM     26  O   UNL     1      -0.151   9.213  23.599  0.00  0.00    +0.000 OA
ATOM     27  H   UNL     1       0.188   8.318  23.412  0.00  0.00    +0.000 HD
ENDBRANCH  12  26
TORSDOF 5
ENDMDL
MODEL 8
REMARK VINA RESULT:      -6.7      2.811      7.578
REMARK  Name = 
REMARK  8 active torsions:
REMARK  status: ('A' for Active; 'I' for Inactive)
REMARK    1  A    between atoms: C_1  and  O_2
REMARK    2  A    between atoms: O_2  and  C_3
REMARK    3  A    between atoms: C_3  and  C_5
REMARK    4  A    between atoms: C_11  and  N_12
REMARK    5  A    between atoms: N_12  and  C_13
REMARK    6  A    between atoms: N_12  and  C_14
REMARK    7  A    between atoms: C_19  and  O_20
REMARK    8  A    between atoms: C_23  and  N_24
REMARK                            x       y       z     vdW  Elec       q    Type
REMARK                         _______ _______ _______ _____ _____    ______ ____
ROOT
ATOM      1  C   UNL     1       0.803   9.946  21.141  0.00  0.00    +0.000 A 
ATOM      2  C   UNL     1       1.310   8.763  20.382  0.00  0.00    +0.000 A 
ATOM      3  N   UNL     1       1.303   7.581  20.917  0.00  0.00    +0.000 NA
ATOM      4  C   UNL     1       1.871   6.528  20.195  0.00  0.00    +0.000 A 
ATOM      5  C   UNL     1       1.970   5.281  20.796  0.00  0.00    +0.000 A 
ATOM      6  C   UNL     1       2.555   4.207  20.112  0.00  0.00    +0.000 A 
ATOM      7  C   UNL     1       3.060   4.342  18.809  0.00  0.00    +0.000 A 
ATOM      8  C   UNL     1       2.953   5.618  18.225  0.00  0.00    +0.000 A 
ATOM      9  C   UNL     1       2.376   6.693  18.910  0.00  0.00    +0.000 A 
ATOM     10  O   UNL     1       2.349   7.915  18.280  0.00  0.00    +0.000 OA
ATOM     11  C   UNL     1       1.824   8.989  18.999  0.00  0.00    +0.000 A 
ATOM     12  C   UNL     1       1.760  10.193  18.422  0.00  0.00    +0.000 A 
ATOM     13  C   UNL     1       1.176  11.348  19.147  0.00  0.00    +0.000 A 
ATOM     14  O   UNL     1       1.002  12.433  18.594  0.00  0.00    +0.000 OA
ATOM     15  C   UNL     1       0.761  11.173  20.584  0.00  0.00    +0.000 A 
ENDROOT
BRANCH   7  16
ATOM     16  N   UNL     1       3.660   3.288  18.139  0.00  0.00    +0.000 N 
ATOM     17  C   UNL     1       4.516   3.511  16.977  0.00  0.00    +0.000 C 
ATOM     18  C   UNL     1       3.316   1.896  18.405  0.00  0.00    +0.000 C 
ENDBRANCH   7  16
BRANCH  15  19
ATOM     19  N   UNL     1       0.345  12.353  21.201  0.00  0.00    +0.000 N 
ATOM     20  H   UNL     1       0.469  13.165  20.590  0.00  0.00    +0.000 HD
ATOM     21  H   UNL     1      -0.586  12.294  21.623  0.00  0.00    +0.000 HD
ENDBRANCH  15  19
BRANCH   1  22
ATOM     22  C   UNL     1       0.329   9.816  22.548  0.00  0.00    +0.000 C 
ATOM     23  O   UNL     1       1.080   9.661  23.509  0.00  0.00    +0.000 OA
BRANCH  22  25
ATOM     24  C   UNL     1      -1.551  10.999  23.336  0.00  0.00    +0.000 C 
ATOM     25  O   UNL     1      -1.018   9.882  22.625  0.00  0.00    +0.000 OA
ENDBRANCH  22  25
ENDBRANCH   1  22
BRANCH  12  26
ATOM     26  O   UNL     1       2.209  10.399  17.124  0.00  0.00    +0.000 OA
ATOM     27  H   UNL     1       1.486  10.816  16.619  0.00  0.00    +0.000 HD
ENDBRANCH  12  26
TORSDOF 5
ENDMDL
MODEL 9
REMARK VINA RESULT:      -6.6      1.650      3.694
REMARK  Name = 
REMARK  8 active torsions:
REMARK  status: ('A' for Active; 'I' for Inactive)
REMARK    1  A    between atoms: C_1  and  O_2
REMARK    2  A    between atoms: O_2  and  C_3
REMARK    3  A    between atoms: C_3  and  C_5
REMARK    4  A    between atoms: C_11  and  N_12
REMARK    5  A    between atoms: N_12  and  C_13
REMARK    6  A    between atoms: N_12  and  C_14
REMARK    7  A    between atoms: C_19  and  O_20
REMARK    8  A    between atoms: C_23  and  N_24
REMARK                            x       y       z     vdW  Elec       q    Type
REMARK                         _______ _______ _______ _____ _____    ______ ____
ROOT
ATOM      1  C   UNL     1       4.375   4.210  17.884  0.00  0.00    +0.000 A 
ATOM      2  C   UNL     1       3.734   5.521  18.207  0.00  0.00    +0.000 A 
ATOM      3  N   UNL     1       3.059   5.675  19.304  0.00  0.00    +0.000 NA
ATOM      4  C   UNL     1       2.408   6.894  19.511  0.00  0.00    +0.000 A 
ATOM      5  C   UNL     1       1.592   7.036  20.625  0.00  0.00    +0.000 A 
ATOM      6  C   UNL     1       0.905   8.236  20.853  0.00  0.00    +0.000 A 
ATOM      7  C   UNL     1       1.009   9.331  19.979  0.00  0.00    +0.000 A 
ATOM      8  C   UNL     1       1.837   9.157  18.855  0.00  0.00    +0.000 A 
ATOM      9  C   UNL     1       2.517   7.957  18.622  0.00  0.00    +0.000 A 
ATOM     10  O   UNL     1       3.272   7.860  17.476  0.00  0.00    +0.000 OA
ATOM     11  C   UNL     1       3.897   6.636  17.230  0.00  0.00    +0.000 A 
ATOM     12  C   UNL     1       4.656   6.500  16.139  0.00  0.00    +0.000 A 
ATOM     13  C   UNL     1       5.362   5.223  15.864  0.00  0.00    +0.000 A 
ATOM     14  O   UNL     1       6.155   5.115  14.932  0.00  0.00    +0.000 OA
ATOM     15  C   UNL     1       5.118   4.046  16.772  0.00  0.00    +0.000 A 
ENDROOT
BRANCH   7  16
ATOM     16  N   UNL     1       0.312  10.509  20.190  0.00  0.00    +0.000 N 
ATOM     17  C   UNL     1      -0.989  10.747  19.572  0.00  0.00    +0.000 C 
ATOM     18  C   UNL     1       0.910  11.662  20.854  0.00  0.00    +0.000 C 
ENDBRANCH   7  16
BRANCH  15  19
ATOM     19  N   UNL     1       5.732   2.868  16.347  0.00  0.00    +0.000 N 
ATOM     20  H   UNL     1       5.747   2.160  17.086  0.00  0.00    +0.000 HD
ATOM     21  H   UNL     1       5.384   2.520  15.449  0.00  0.00    +0.000 HD
ENDBRANCH  15  19
BRANCH   1  22
ATOM     22  C   UNL     1       4.210   3.028  18.778  0.00  0.00    +0.000 C 
ATOM     23  O   UNL     1       4.835   2.873  19.824  0.00  0.00    +0.000 OA
BRANCH  22  25
ATOM     24  C   UNL     1       2.014   2.183  18.904  0.00  0.00    +0.000 C 
ATOM     25  O   UNL     1       3.300   2.160  18.286  0.00  0.00    +0.000 OA
ENDBRANCH  22  25
ENDBRANCH   1  22
BRANCH  12  26
ATOM     26  O   UNL     1       4.835   7.547  15.243  0.00  0.00    +0.000 OA
ATOM     27  H   UNL     1       3.967   7.965  15.093  0.00  0.00    +0.000 HD
ENDBRANCH  12  26
TORSDOF 5
ENDMDL
