MODEL 1
REMARK VINA RESULT:      -6.1      0.000      0.000
REMARK  Name = 
REMARK  3 active torsions:
REMARK  status: ('A' for Active; 'I' for Inactive)
REMARK    1  A    between atoms: N_3  and  C_4
REMARK    2  A    between atoms: C_4  and  C_5
REMARK    3  A    between atoms: N_18  and  C_19
REMARK                            x       y       z     vdW  Elec       q    Type
REMARK                         _______ _______ _______ _____ _____    ______ ____
ROOT
ATOM      1  O   UNL     1       4.398   4.293  20.482  0.00  0.00    +0.000 OA
ATOM      2  C   UNL     1       3.676   4.318  19.489  0.00  0.00    +0.000 C 
ATOM      3  N   UNL     1       4.069   3.841  18.238  0.00  0.00    +0.000 N 
ATOM      4  C   UNL     1       3.095   3.208  17.363  0.00  0.00    +0.000 C 
ATOM      5  C   UNL     1       1.863   4.080  17.188  0.00  0.00    +0.000 C 
ATOM      6  C   UNL     1       1.338   4.518  18.548  0.00  0.00    +0.000 C 
ATOM      7  C   UNL     1       2.420   5.193  19.414  0.00  0.00    +0.000 C 
ATOM      8  C   UNL     1       1.815   5.574  20.770  0.00  0.00    +0.000 C 
ATOM      9  C   UNL     1       1.990   7.087  20.906  0.00  0.00    +0.000 C 
ATOM     10  N   UNL     1       2.292   7.639  19.572  0.00  0.00    +0.000 NA
ATOM     11  C   UNL     1       2.969   6.537  18.887  0.00  0.00    +0.000 C 
ENDROOT
BRANCH  10  12
ATOM     12  C   UNL     1       1.156   8.267  18.872  0.00  0.00    +0.000 C 
ATOM     13  C   UNL     1       0.321   9.148  19.840  0.00  0.00    +0.000 C 
ATOM     14  C   UNL     1       1.021  10.411  20.342  0.00  0.00    +0.000 C 
ATOM     15  S   UNL     1       1.428  11.540  18.983  0.00  0.00    +0.000 S 
ATOM     16  C   UNL     1       2.386  10.373  17.983  0.00  0.00    +0.000 C 
ATOM     17  C   UNL     1       1.554   9.138  17.649  0.00  0.00    +0.000 C 
ENDBRANCH  10  12
BRANCH   3  18
ATOM     18  C   UNL     1       5.479   3.801  17.885  0.00  0.00    +0.000 C 
BRANCH  18  19
ATOM     19  C   UNL     1       6.170   5.129  17.793  0.00  0.00    +0.000 A 
ATOM     20  C   UNL     1       7.254   5.422  18.630  0.00  0.00    +0.000 A 
ATOM     21  C   UNL     1       7.856   6.679  18.593  0.00  0.00    +0.000 A 
ATOM     22  C   UNL     1       7.378   7.658  17.720  0.00  0.00    +0.000 A 
ATOM     23  C   UNL     1       6.303   7.374  16.881  0.00  0.00    +0.000 A 
ATOM     24  C   UNL     1       5.710   6.117  16.925  0.00  0.00    +0.000 A 
ATOM     25  F   UNL     1       4.659   5.870  16.126  0.00  0.00    +0.000 F 
ENDBRANCH  18  19
ENDBRANCH   3  18
TORSDOF 3
ENDMDL
MODEL 2
REMARK VINA RESULT:      -6.0      8.384     10.868
REMARK  Name = 
REMARK  3 active torsions:
REMARK  status: ('A' for Active; 'I' for Inactive)
REMARK    1  A    between atoms: N_3  and  C_4
REMARK    2  A    between atoms: C_4  and  C_5
REMARK    3  A    between atoms: N_18  and  C_19
REMARK                            x       y       z     vdW  Elec       q    Type
REMARK                         _______ _______ _______ _____ _____    ______ ____
ROOT
ATOM      1  O   UNL     1      10.519  15.649  17.194  0.00  0.00    +0.000 OA
ATOM      2  C   UNL     1      10.692  15.903  18.383  0.00  0.00    +0.000 C 
ATOM      3  N   UNL     1      11.653  15.272  19.173  0.00  0.00    +0.000 N 
ATOM      4  C   UNL     1      12.330  16.013  20.226  0.00  0.00    +0.000 C 
ATOM      5  C   UNL     1      11.334  16.714  21.134  0.00  0.00    +0.000 C 
ATOM      6  C   UNL     1      10.341  17.512  20.300  0.00  0.00    +0.000 C 
ATOM      7  C   UNL     1       9.652  16.659  19.217  0.00  0.00    +0.000 C 
ATOM      8  C   UNL     1       8.697  17.545  18.410  0.00  0.00    +0.000 C 
ATOM      9  C   UNL     1       7.308  16.920  18.558  0.00  0.00    +0.000 C 
ATOM     10  N   UNL     1       7.343  15.982  19.696  0.00  0.00    +0.000 NA
ATOM     11  C   UNL     1       8.733  15.528  19.727  0.00  0.00    +0.000 C 
ENDROOT
BRANCH  10  12
ATOM     12  C   UNL     1       6.774  16.493  20.957  0.00  0.00    +0.000 C 
ATOM     13  C   UNL     1       5.244  16.722  20.829  0.00  0.00    +0.000 C 
ATOM     14  C   UNL     1       4.404  15.454  20.684  0.00  0.00    +0.000 C 
ATOM     15  S   UNL     1       4.552  14.378  22.136  0.00  0.00    +0.000 S 
ATOM     16  C   UNL     1       6.356  14.214  22.126  0.00  0.00    +0.000 C 
ATOM     17  C   UNL     1       7.025  15.584  22.192  0.00  0.00    +0.000 C 
ENDBRANCH  10  12
BRANCH   3  18
ATOM     18  C   UNL     1      12.118  13.937  18.828  0.00  0.00    +0.000 C 
BRANCH  18  19
ATOM     19  C   UNL     1      11.142  12.823  19.065  0.00  0.00    +0.000 A 
ATOM     20  C   UNL     1      10.829  12.421  20.369  0.00  0.00    +0.000 A 
ATOM     21  C   UNL     1       9.973  11.344  20.591  0.00  0.00    +0.000 A 
ATOM     22  C   UNL     1       9.421  10.654  19.509  0.00  0.00    +0.000 A 
ATOM     23  C   UNL     1       9.723  11.050  18.208  0.00  0.00    +0.000 A 
ATOM     24  C   UNL     1      10.578  12.126  17.998  0.00  0.00    +0.000 A 
ATOM     25  F   UNL     1      10.876  12.477  16.736  0.00  0.00    +0.000 F 
ENDBRANCH  18  19
ENDBRANCH   3  18
TORSDOF 3
ENDMDL
MODEL 3
REMARK VINA RESULT:      -5.9      1.056      1.425
REMARK  Name = 
REMARK  3 active torsions:
REMARK  status: ('A' for Active; 'I' for Inactive)
REMARK    1  A    between atoms: N_3  and  C_4
REMARK    2  A    between atoms: C_4  and  C_5
REMARK    3  A    between atoms: N_18  and  C_19
REMARK                            x       y       z     vdW  Elec       q    Type
REMARK                         _______ _______ _______ _____ _____    ______ ____
ROOT
ATOM      1  O   UNL     1       4.086   4.419  20.837  0.00  0.00    +0.000 OA
ATOM      2  C   UNL     1       3.556   4.478  19.731  0.00  0.00    +0.000 C 
ATOM      3  N   UNL     1       4.182   4.070  18.553  0.00  0.00    +0.000 N 
ATOM      4  C   UNL     1       3.401   3.462  17.487  0.00  0.00    +0.000 C 
ATOM      5  C   UNL     1       2.197   4.319  17.129  0.00  0.00    +0.000 C 
ATOM      6  C   UNL     1       1.423   4.681  18.389  0.00  0.00    +0.000 C 
ATOM      7  C   UNL     1       2.311   5.333  19.467  0.00  0.00    +0.000 C 
ATOM      8  C   UNL     1       1.460   5.636  20.705  0.00  0.00    +0.000 C 
ATOM      9  C   UNL     1       1.567   7.144  20.937  0.00  0.00    +0.000 C 
ATOM     10  N   UNL     1       2.091   7.765  19.707  0.00  0.00    +0.000 NA
ATOM     11  C   UNL     1       2.910   6.711  19.109  0.00  0.00    +0.000 C 
ENDROOT
BRANCH  10  12
ATOM     12  C   UNL     1       1.084   8.405  18.840  0.00  0.00    +0.000 C 
ATOM     13  C   UNL     1       0.177   9.368  19.653  0.00  0.00    +0.000 C 
ATOM     14  C   UNL     1       0.868  10.623  20.185  0.00  0.00    +0.000 C 
ATOM     15  S   UNL     1       1.497  11.666  18.842  0.00  0.00    +0.000 S 
ATOM     16  C   UNL     1       2.516  10.411  18.025  0.00  0.00    +0.000 C 
ATOM     17  C   UNL     1       1.675   9.197  17.641  0.00  0.00    +0.000 C 
ENDBRANCH  10  12
BRANCH   3  18
ATOM     18  C   UNL     1       5.634   4.073  18.461  0.00  0.00    +0.000 C 
BRANCH  18  19
ATOM     19  C   UNL     1       6.268   5.397  18.150  0.00  0.00    +0.000 A 
ATOM     20  C   UNL     1       5.803   6.169  17.078  0.00  0.00    +0.000 A 
ATOM     21  C   UNL     1       6.431   7.368  16.746  0.00  0.00    +0.000 A 
ATOM     22  C   UNL     1       7.534   7.807  17.482  0.00  0.00    +0.000 A 
ATOM     23  C   UNL     1       8.000   7.047  18.553  0.00  0.00    +0.000 A 
ATOM     24  C   UNL     1       7.365   5.853  18.876  0.00  0.00    +0.000 A 
ATOM     25  F   UNL     1       7.844   5.123  19.897  0.00  0.00    +0.000 F 
ENDBRANCH  18  19
ENDBRANCH   3  18
TORSDOF 3
ENDMDL
MODEL 4
REMARK VINA RESULT:      -5.8      7.390     11.613
REMARK  Name = 
REMARK  3 active torsions:
REMARK  status: ('A' for Active; 'I' for Inactive)
REMARK    1  A    between atoms: N_3  and  C_4
REMARK    2  A    between atoms: C_4  and  C_5
REMARK    3  A    between atoms: N_18  and  C_19
REMARK                            x       y       z     vdW  Elec       q    Type
REMARK                         _______ _______ _______ _____ _____    ______ ____
ROOT
ATOM      1  O   UNL     1      -5.322  12.325  23.714  0.00  0.00    +0.000 OA
ATOM      2  C   UNL     1      -4.976  13.287  23.032  0.00  0.00    +0.000 C 
ATOM      3  N   UNL     1      -5.864  14.054  22.277  0.00  0.00    +0.000 N 
ATOM      4  C   UNL     1      -5.640  15.483  22.121  0.00  0.00    +0.000 C 
ATOM      5  C   UNL     1      -4.223  15.770  21.651  0.00  0.00    +0.000 C 
ATOM      6  C   UNL     1      -3.223  15.039  22.537  0.00  0.00    +0.000 C 
ATOM      7  C   UNL     1      -3.514  13.529  22.642  0.00  0.00    +0.000 C 
ATOM      8  C   UNL     1      -2.482  12.881  23.571  0.00  0.00    +0.000 C 
ATOM      9  C   UNL     1      -1.776  11.807  22.741  0.00  0.00    +0.000 C 
ATOM     10  N   UNL     1      -2.059  12.063  21.317  0.00  0.00    +0.000 NA
ATOM     11  C   UNL     1      -3.368  12.717  21.337  0.00  0.00    +0.000 C 
ENDROOT
BRANCH  10  12
ATOM     12  C   UNL     1      -0.983  12.738  20.568  0.00  0.00    +0.000 C 
ATOM     13  C   UNL     1       0.412  12.192  20.978  0.00  0.00    +0.000 C 
ATOM     14  C   UNL     1       0.697  10.750  20.561  0.00  0.00    +0.000 C 
ATOM     15  S   UNL     1       0.677  10.553  18.759  0.00  0.00    +0.000 S 
ATOM     16  C   UNL     1      -0.983  11.215  18.466  0.00  0.00    +0.000 C 
ATOM     17  C   UNL     1      -1.108  12.630  19.023  0.00  0.00    +0.000 C 
ENDBRANCH  10  12
BRANCH   3  18
ATOM     18  C   UNL     1      -7.110  13.472  21.804  0.00  0.00    +0.000 C 
BRANCH  18  19
ATOM     19  C   UNL     1      -6.997  12.547  20.628  0.00  0.00    +0.000 A 
ATOM     20  C   UNL     1      -7.218  11.173  20.785  0.00  0.00    +0.000 A 
ATOM     21  C   UNL     1      -7.050  10.303  19.709  0.00  0.00    +0.000 A 
ATOM     22  C   UNL     1      -6.656  10.798  18.464  0.00  0.00    +0.000 A 
ATOM     23  C   UNL     1      -6.440  12.164  18.298  0.00  0.00    +0.000 A 
ATOM     24  C   UNL     1      -6.610  13.023  19.378  0.00  0.00    +0.000 A 
ATOM     25  F   UNL     1      -6.373  14.334  19.204  0.00  0.00    +0.000 F 
ENDBRANCH  18  19
ENDBRANCH   3  18
TORSDOF 3
ENDMDL
MODEL 5
REMARK VINA RESULT:      -5.8      4.139      6.996
REMARK  Name = 
REMARK  3 active torsions:
REMARK  status: ('A' for Active; 'I' for Inactive)
REMARK    1  A    between atoms: N_3  and  C_4
REMARK    2  A    between atoms: C_4  and  C_5
REMARK    3  A    between atoms: N_18  and  C_19
REMARK                            x       y       z     vdW  Elec       q    Type
REMARK                         _______ _______ _______ _____ _____    ______ ____
ROOT
ATOM      1  O   UNL     1      -0.006  11.316  22.707  0.00  0.00    +0.000 OA
ATOM      2  C   UNL     1      -0.236  11.391  21.503  0.00  0.00    +0.000 C 
ATOM      3  N   UNL     1      -0.252  10.286  20.652  0.00  0.00    +0.000 N 
ATOM      4  C   UNL     1      -1.181  10.244  19.533  0.00  0.00    +0.000 C 
ATOM      5  C   UNL     1      -1.091  11.507  18.693  0.00  0.00    +0.000 C 
ATOM      6  C   UNL     1      -1.193  12.735  19.588  0.00  0.00    +0.000 C 
ATOM      7  C   UNL     1      -0.169  12.719  20.740  0.00  0.00    +0.000 C 
ATOM      8  C   UNL     1      -0.362  13.971  21.603  0.00  0.00    +0.000 C 
ATOM      9  C   UNL     1       0.975  14.715  21.579  0.00  0.00    +0.000 C 
ATOM     10  N   UNL     1       1.779  14.185  20.462  0.00  0.00    +0.000 NA
ATOM     11  C   UNL     1       1.317  12.803  20.328  0.00  0.00    +0.000 C 
ENDROOT
BRANCH  10  12
ATOM     12  C   UNL     1       1.789  15.011  19.240  0.00  0.00    +0.000 C 
ATOM     13  C   UNL     1       2.163  16.483  19.563  0.00  0.00    +0.000 C 
ATOM     14  C   UNL     1       3.606  16.706  20.014  0.00  0.00    +0.000 C 
ATOM     15  S   UNL     1       4.794  16.238  18.729  0.00  0.00    +0.000 S 
ATOM     16  C   UNL     1       4.228  14.534  18.490  0.00  0.00    +0.000 C 
ATOM     17  C   UNL     1       2.746  14.503  18.127  0.00  0.00    +0.000 C 
ENDBRANCH  10  12
BRANCH   3  18
ATOM     18  C   UNL     1       0.518   9.098  20.985  0.00  0.00    +0.000 C 
BRANCH  18  19
ATOM     19  C   UNL     1       1.409   8.569  19.900  0.00  0.00    +0.000 A 
ATOM     20  C   UNL     1       1.677   9.344  18.764  0.00  0.00    +0.000 A 
ATOM     21  C   UNL     1       2.450   8.830  17.725  0.00  0.00    +0.000 A 
ATOM     22  C   UNL     1       2.962   7.533  17.809  0.00  0.00    +0.000 A 
ATOM     23  C   UNL     1       2.704   6.757  18.937  0.00  0.00    +0.000 A 
ATOM     24  C   UNL     1       1.932   7.280  19.968  0.00  0.00    +0.000 A 
ATOM     25  F   UNL     1       1.675   6.508  21.037  0.00  0.00    +0.000 F 
ENDBRANCH  18  19
ENDBRANCH   3  18
TORSDOF 3
ENDMDL
MODEL 6
REMARK VINA RESULT:      -5.8      3.688      5.129
REMARK  Name = 
REMARK  3 active torsions:
REMARK  status: ('A' for Active; 'I' for Inactive)
REMARK    1  A    between atoms: N_3  and  C_4
REMARK    2  A    between atoms: C_4  and  C_5
REMARK    3  A    between atoms: N_18  and  C_19
REMARK                            x       y       z     vdW  Elec       q    Type
REMARK                         _______ _______ _______ _____ _____    ______ ____
ROOT
ATOM      1  O   UNL     1       4.830   6.309  15.254  0.00  0.00    +0.000 OA
ATOM      2  C   UNL     1       5.348   5.810  16.249  0.00  0.00    +0.000 C 
ATOM      3  N   UNL     1       6.202   4.708  16.203  0.00  0.00    +0.000 N 
ATOM      4  C   UNL     1       7.310   4.607  17.140  0.00  0.00    +0.000 C 
ATOM      5  C   UNL     1       6.840   4.800  18.572  0.00  0.00    +0.000 C 
ATOM      6  C   UNL     1       6.001   6.067  18.678  0.00  0.00    +0.000 C 
ATOM      7  C   UNL     1       4.838   6.097  17.666  0.00  0.00    +0.000 C 
ATOM      8  C   UNL     1       4.069   7.414  17.822  0.00  0.00    +0.000 C 
ATOM      9  C   UNL     1       2.627   7.028  18.155  0.00  0.00    +0.000 C 
ATOM     10  N   UNL     1       2.613   5.616  18.580  0.00  0.00    +0.000 NA
ATOM     11  C   UNL     1       3.743   5.027  17.861  0.00  0.00    +0.000 C 
ENDROOT
BRANCH  10  12
ATOM     12  C   UNL     1       2.553   5.391  20.036  0.00  0.00    +0.000 C 
ATOM     13  C   UNL     1       1.124   4.978  20.481  0.00  0.00    +0.000 C 
ATOM     14  C   UNL     1       0.666   3.600  20.008  0.00  0.00    +0.000 C 
ATOM     15  S   UNL     1       1.715   2.277  20.669  0.00  0.00    +0.000 S 
ATOM     16  C   UNL     1       3.301   2.906  20.060  0.00  0.00    +0.000 C 
ATOM     17  C   UNL     1       3.550   4.324  20.565  0.00  0.00    +0.000 C 
ENDBRANCH  10  12
BRANCH   3  18
ATOM     18  C   UNL     1       6.107   3.758  15.105  0.00  0.00    +0.000 C 
BRANCH  18  19
ATOM     19  C   UNL     1       6.717   4.196  13.806  0.00  0.00    +0.000 A 
ATOM     20  C   UNL     1       7.636   5.252  13.776  0.00  0.00    +0.000 A 
ATOM     21  C   UNL     1       8.155   5.704  12.564  0.00  0.00    +0.000 A 
ATOM     22  C   UNL     1       7.758   5.105  11.367  0.00  0.00    +0.000 A 
ATOM     23  C   UNL     1       6.848   4.050  11.387  0.00  0.00    +0.000 A 
ATOM     24  C   UNL     1       6.337   3.607  12.602  0.00  0.00    +0.000 A 
ATOM     25  F   UNL     1       5.442   2.605  12.599  0.00  0.00    +0.000 F 
ENDBRANCH  18  19
ENDBRANCH   3  18
TORSDOF 3
ENDMDL
MODEL 7
REMARK VINA RESULT:      -5.8      3.206      5.624
REMARK  Name = 
REMARK  3 active torsions:
REMARK  status: ('A' for Active; 'I' for Inactive)
REMARK    1  A    between atoms: N_3  and  C_4
REMARK    2  A    between atoms: C_4  and  C_5
REMARK    3  A    between atoms: N_18  and  C_19
REMARK                            x       y       z     vdW  Elec       q    Type
REMARK                         _______ _______ _______ _____ _____    ______ ____
ROOT
ATOM      1  O   UNL     1      -0.213   8.506  21.377  0.00  0.00    +0.000 OA
ATOM      2  C   UNL     1       0.412   8.904  20.398  0.00  0.00    +0.000 C 
ATOM      3  N   UNL     1       1.490   8.214  19.840  0.00  0.00    +0.000 N 
ATOM      4  C   UNL     1       1.707   8.247  18.402  0.00  0.00    +0.000 C 
ATOM      5  C   UNL     1       1.716   9.673  17.878  0.00  0.00    +0.000 C 
ATOM      6  C   UNL     1       0.484  10.418  18.375  0.00  0.00    +0.000 C 
ATOM      7  C   UNL     1       0.327  10.353  19.907  0.00  0.00    +0.000 C 
ATOM      8  C   UNL     1      -0.949  11.099  20.314  0.00  0.00    +0.000 C 
ATOM      9  C   UNL     1      -0.507  12.206  21.273  0.00  0.00    +0.000 C 
ATOM     10  N   UNL     1       0.949  12.385  21.133  0.00  0.00    +0.000 NA
ATOM     11  C   UNL     1       1.424  11.061  20.731  0.00  0.00    +0.000 C 
ENDROOT
BRANCH  10  12
ATOM     12  C   UNL     1       1.371  13.529  20.304  0.00  0.00    +0.000 C 
ATOM     13  C   UNL     1       0.695  14.844  20.778  0.00  0.00    +0.000 C 
ATOM     14  C   UNL     1       1.151  15.357  22.143  0.00  0.00    +0.000 C 
ATOM     15  S   UNL     1       2.918  15.760  22.156  0.00  0.00    +0.000 S 
ATOM     16  C   UNL     1       3.533  14.150  21.599  0.00  0.00    +0.000 C 
ATOM     17  C   UNL     1       2.907  13.764  20.263  0.00  0.00    +0.000 C 
ENDBRANCH  10  12
BRANCH   3  18
ATOM     18  C   UNL     1       2.281   7.311  20.661  0.00  0.00    +0.000 C 
BRANCH  18  19
ATOM     19  C   UNL     1       2.216   5.860  20.288  0.00  0.00    +0.000 A 
ATOM     20  C   UNL     1       1.053   5.118  20.532  0.00  0.00    +0.000 A 
ATOM     21  C   UNL     1       1.012   3.754  20.247  0.00  0.00    +0.000 A 
ATOM     22  C   UNL     1       2.136   3.117  19.715  0.00  0.00    +0.000 A 
ATOM     23  C   UNL     1       3.295   3.848  19.465  0.00  0.00    +0.000 A 
ATOM     24  C   UNL     1       3.325   5.208  19.753  0.00  0.00    +0.000 A 
ATOM     25  F   UNL     1       4.459   5.891  19.527  0.00  0.00    +0.000 F 
ENDBRANCH  18  19
ENDBRANCH   3  18
TORSDOF 3
ENDMDL
MODEL 8
REMARK VINA RESULT:      -5.8      8.392     10.674
REMARK  Name = 
REMARK  3 active torsions:
REMARK  status: ('A' for Active; 'I' for Inactive)
REMARK    1  A    between atoms: N_3  and  C_4
REMARK    2  A    between atoms: C_4  and  C_5
REMARK    3  A    between atoms: N_18  and  C_19
REMARK                            x       y       z     vdW  Elec       q    Type
REMARK                         _______ _______ _______ _____ _____    ______ ____
ROOT
ATOM      1  O   UNL     1       7.822  15.370  17.656  0.00  0.00    +0.000 OA
ATOM      2  C   UNL     1       8.642  15.783  18.472  0.00  0.00    +0.000 C 
ATOM      3  N   UNL     1      10.012  15.531  18.382  0.00  0.00    +0.000 N 
ATOM      4  C   UNL     1      10.966  16.536  18.822  0.00  0.00    +0.000 C 
ATOM      5  C   UNL     1      10.649  17.020  20.228  0.00  0.00    +0.000 C 
ATOM      6  C   UNL     1       9.182  17.418  20.322  0.00  0.00    +0.000 C 
ATOM      7  C   UNL     1       8.230  16.299  19.855  0.00  0.00    +0.000 C 
ATOM      8  C   UNL     1       6.783  16.795  19.955  0.00  0.00    +0.000 C 
ATOM      9  C   UNL     1       6.065  15.825  20.895  0.00  0.00    +0.000 C 
ATOM     10  N   UNL     1       7.085  15.057  21.633  0.00  0.00    +0.000 NA
ATOM     11  C   UNL     1       8.220  15.015  20.712  0.00  0.00    +0.000 C 
ENDROOT
BRANCH  10  12
ATOM     12  C   UNL     1       7.352  15.515  23.009  0.00  0.00    +0.000 C 
ATOM     13  C   UNL     1       6.082  15.398  23.895  0.00  0.00    +0.000 C 
ATOM     14  C   UNL     1       5.630  13.971  24.202  0.00  0.00    +0.000 C 
ATOM     15  S   UNL     1       6.884  13.052  25.134  0.00  0.00    +0.000 S 
ATOM     16  C   UNL     1       8.257  13.282  23.975  0.00  0.00    +0.000 C 
ATOM     17  C   UNL     1       8.510  14.766  23.724  0.00  0.00    +0.000 C 
ENDBRANCH  10  12
BRANCH   3  18
ATOM     18  C   UNL     1      10.491  14.351  17.679  0.00  0.00    +0.000 C 
BRANCH  18  19
ATOM     19  C   UNL     1      10.242  13.037  18.359  0.00  0.00    +0.000 A 
ATOM     20  C   UNL     1       9.401  12.084  17.771  0.00  0.00    +0.000 A 
ATOM     21  C   UNL     1       9.117  10.890  18.430  0.00  0.00    +0.000 A 
ATOM     22  C   UNL     1       9.669  10.636  19.687  0.00  0.00    +0.000 A 
ATOM     23  C   UNL     1      10.511  11.576  20.277  0.00  0.00    +0.000 A 
ATOM     24  C   UNL     1      10.788  12.765  19.611  0.00  0.00    +0.000 A 
ATOM     25  F   UNL     1      11.583  13.669  20.207  0.00  0.00    +0.000 F 
ENDBRANCH  18  19
ENDBRANCH   3  18
TORSDOF 3
ENDMDL
MODEL 9
REMARK VINA RESULT:      -5.7      8.033     10.112
REMARK  Name = 
REMARK  3 active torsions:
REMARK  status: ('A' for Active; 'I' for Inactive)
REMARK    1  A    between atoms: N_3  and  C_4
REMARK    2  A    between atoms: C_4  and  C_5
REMARK    3  A    between atoms: N_18  and  C_19
REMARK                            x       y       z     vdW  Elec       q    Type
REMARK                         _______ _______ _______ _____ _____    ______ ____
ROOT
ATOM      1  O   UNL     1       6.825  14.574  18.100  0.00  0.00    +0.000 OA
ATOM      2  C   UNL     1       7.568  15.216  18.838  0.00  0.00    +0.000 C 
ATOM      3  N   UNL     1       8.940  15.352  18.621  0.00  0.00    +0.000 N 
ATOM      4  C   UNL     1       9.613  16.591  18.976  0.00  0.00    +0.000 C 
ATOM      5  C   UNL     1       9.301  16.998  20.407  0.00  0.00    +0.000 C 
ATOM      6  C   UNL     1       7.797  16.975  20.639  0.00  0.00    +0.000 C 
ATOM      7  C   UNL     1       7.155  15.627  20.256  0.00  0.00    +0.000 C 
ATOM      8  C   UNL     1       5.643  15.703  20.492  0.00  0.00    +0.000 C 
ATOM      9  C   UNL     1       5.310  14.593  21.490  0.00  0.00    +0.000 C 
ATOM     10  N   UNL     1       6.566  14.152  22.126  0.00  0.00    +0.000 NA
ATOM     11  C   UNL     1       7.580  14.409  21.104  0.00  0.00    +0.000 C 
ENDROOT
BRANCH  10  12
ATOM     12  C   UNL     1       6.818  14.696  23.474  0.00  0.00    +0.000 C 
ATOM     13  C   UNL     1       5.745  14.207  24.485  0.00  0.00    +0.000 C 
ATOM     14  C   UNL     1       5.792  12.716  24.815  0.00  0.00    +0.000 C 
ATOM     15  S   UNL     1       7.358  12.247  25.598  0.00  0.00    +0.000 S 
ATOM     16  C   UNL     1       8.465  12.871  24.307  0.00  0.00    +0.000 C 
ATOM     17  C   UNL     1       8.219  14.355  24.054  0.00  0.00    +0.000 C 
ENDBRANCH  10  12
BRANCH   3  18
ATOM     18  C   UNL     1       9.662  14.337  17.870  0.00  0.00    +0.000 C 
BRANCH  18  19
ATOM     19  C   UNL     1       9.721  12.975  18.498  0.00  0.00    +0.000 A 
ATOM     20  C   UNL     1       9.086  11.887  17.887  0.00  0.00    +0.000 A 
ATOM     21  C   UNL     1       9.084  10.635  18.500  0.00  0.00    +0.000 A 
ATOM     22  C   UNL     1       9.714  10.459  19.734  0.00  0.00    +0.000 A 
ATOM     23  C   UNL     1      10.352  11.536  20.346  0.00  0.00    +0.000 A 
ATOM     24  C   UNL     1      10.349  12.780  19.726  0.00  0.00    +0.000 A 
ATOM     25  F   UNL     1      10.949  13.811  20.344  0.00  0.00    +0.000 F 
ENDBRANCH  18  19
ENDBRANCH   3  18
TORSDOF 3
ENDMDL
