MODEL 1
REMARK VINA RESULT:      -6.9      0.000      0.000
REMARK  Name = 
REMARK  10 active torsions:
REMARK  status: ('A' for Active; 'I' for Inactive)
REMARK    1  A    between atoms: C_1  and  C_2
REMARK    2  A    between atoms: C_2  and  C_3
REMARK    3  A    between atoms: C_3  and  C_4
REMARK    4  A    between atoms: C_4  and  C_5
REMARK    5  A    between atoms: C_8  and  C_9
REMARK    6  A    between atoms: C_9  and  N_10
REMARK    7  A    between atoms: N_10  and  C_11
REMARK    8  A    between atoms: N_10  and  C_12
REMARK    9  A    between atoms: C_12  and  C_13
REMARK   10  A    between atoms: C_13  and  N_14
REMARK                            x       y       z     vdW  Elec       q    Type
REMARK                         _______ _______ _______ _____ _____    ______ ____
ROOT
ATOM      1  C   UNL     1       5.261   5.153  17.030  0.00  0.00    +0.000 C 
ENDROOT
BRANCH   1   5
ATOM      2  C   UNL     1       6.691   4.510  13.835  0.00  0.00    +0.000 A 
ATOM      3  N   UNL     1       7.628   5.345  14.301  0.00  0.00    +0.000 NA
ATOM      4  O   UNL     1       7.147   5.685  15.570  0.00  0.00    +0.000 OA
ATOM      5  C   UNL     1       5.968   5.011  15.727  0.00  0.00    +0.000 A 
ATOM      6  N   UNL     1       5.650   4.268  14.691  0.00  0.00    +0.000 NA
BRANCH   2   7
ATOM      7  C   UNL     1       6.769   3.861  12.506  0.00  0.00    +0.000 C 
BRANCH   7   8
ATOM      8  C   UNL     1       5.440   3.219  12.105  0.00  0.00    +0.000 C 
BRANCH   8  10
ATOM      9  C   UNL     1       7.127   1.656  11.080  0.00  0.00    +0.000 C 
ATOM     10  C   UNL     1       5.662   1.872  11.421  0.00  0.00    +0.000 C 
ENDBRANCH   8  10
ENDBRANCH   7   8
ENDBRANCH   2   7
ENDBRANCH   1   5
BRANCH   1  11
ATOM     11  N   UNL     1       5.999   4.643  18.212  0.00  0.00    +0.000 NA
ATOM     12  C   UNL     1       6.892   5.673  18.767  0.00  0.00    +0.000 C 
BRANCH  11  13
ATOM     13  C   UNL     1       5.063   4.193  19.269  0.00  0.00    +0.000 C 
BRANCH  13  14
ATOM     14  C   UNL     1       4.370   2.840  18.972  0.00  0.00    +0.000 C 
BRANCH  14  15
ATOM     15  N   UNL     1       2.969   2.690  19.343  0.00  0.00    +0.000 NA
ATOM     16  C   UNL     1       2.346   3.818  20.019  0.00  0.00    +0.000 C 
ATOM     17  C   UNL     1       0.939   3.274  20.177  0.00  0.00    +0.000 C 
ATOM     18  C   UNL     1       0.674   2.599  18.835  0.00  0.00    +0.000 C 
ATOM     19  C   UNL     1       2.061   2.275  18.278  0.00  0.00    +0.000 C 
ENDBRANCH  14  15
ENDBRANCH  13  14
ENDBRANCH  11  13
ENDBRANCH   1  11
TORSDOF 8
ENDMDL
MODEL 2
REMARK VINA RESULT:      -6.8      1.096      1.196
REMARK  Name = 
REMARK  10 active torsions:
REMARK  status: ('A' for Active; 'I' for Inactive)
REMARK    1  A    between atoms: C_1  and  C_2
REMARK    2  A    between atoms: C_2  and  C_3
REMARK    3  A    between atoms: C_3  and  C_4
REMARK    4  A    between atoms: C_4  and  C_5
REMARK    5  A    between atoms: C_8  and  C_9
REMARK    6  A    between atoms: C_9  and  N_10
REMARK    7  A    between atoms: N_10  and  C_11
REMARK    8  A    between atoms: N_10  and  C_12
REMARK    9  A    between atoms: C_12  and  C_13
REMARK   10  A    between atoms: C_13  and  N_14
REMARK                            x       y       z     vdW  Elec       q    Type
REMARK                         _______ _______ _______ _____ _____    ______ ____
ROOT
ATOM      1  C   UNL     1       6.378   6.105  17.651  0.00  0.00    +0.000 C 
ENDROOT
BRANCH   1   5
ATOM      2  C   UNL     1       6.065   4.648  14.419  0.00  0.00    +0.000 A 
ATOM      3  N   UNL     1       7.318   5.107  14.303  0.00  0.00    +0.000 NA
ATOM      4  O   UNL     1       7.542   5.731  15.535  0.00  0.00    +0.000 OA
ATOM      5  C   UNL     1       6.393   5.574  16.259  0.00  0.00    +0.000 A 
ATOM      6  N   UNL     1       5.459   4.907  15.619  0.00  0.00    +0.000 NA
BRANCH   2   7
ATOM      7  C   UNL     1       5.377   3.887  13.350  0.00  0.00    +0.000 C 
BRANCH   7   8
ATOM      8  C   UNL     1       6.359   3.351  12.308  0.00  0.00    +0.000 C 
BRANCH   8  10
ATOM      9  C   UNL     1       6.689   1.185  11.066  0.00  0.00    +0.000 C 
ATOM     10  C   UNL     1       5.706   2.286  11.430  0.00  0.00    +0.000 C 
ENDBRANCH   8  10
ENDBRANCH   7   8
ENDBRANCH   2   7
ENDBRANCH   1   5
BRANCH   1  11
ATOM     11  N   UNL     1       6.501   5.086  18.721  0.00  0.00    +0.000 NA
ATOM     12  C   UNL     1       7.511   5.481  19.717  0.00  0.00    +0.000 C 
BRANCH  11  13
ATOM     13  C   UNL     1       5.204   4.873  19.404  0.00  0.00    +0.000 C 
BRANCH  13  14
ATOM     14  C   UNL     1       4.401   3.656  18.880  0.00  0.00    +0.000 C 
BRANCH  14  15
ATOM     15  N   UNL     1       3.095   3.391  19.468  0.00  0.00    +0.000 NA
ATOM     16  C   UNL     1       3.076   2.992  20.868  0.00  0.00    +0.000 C 
ATOM     17  C   UNL     1       1.578   2.864  21.075  0.00  0.00    +0.000 C 
ATOM     18  C   UNL     1       1.020   4.078  20.339  0.00  0.00    +0.000 C 
ATOM     19  C   UNL     1       2.092   4.439  19.309  0.00  0.00    +0.000 C 
ENDBRANCH  14  15
ENDBRANCH  13  14
ENDBRANCH  11  13
ENDBRANCH   1  11
TORSDOF 8
ENDMDL
MODEL 3
REMARK VINA RESULT:      -6.7      1.285      1.790
REMARK  Name = 
REMARK  10 active torsions:
REMARK  status: ('A' for Active; 'I' for Inactive)
REMARK    1  A    between atoms: C_1  and  C_2
REMARK    2  A    between atoms: C_2  and  C_3
REMARK    3  A    between atoms: C_3  and  C_4
REMARK    4  A    between atoms: C_4  and  C_5
REMARK    5  A    between atoms: C_8  and  C_9
REMARK    6  A    between atoms: C_9  and  N_10
REMARK    7  A    between atoms: N_10  and  C_11
REMARK    8  A    between atoms: N_10  and  C_12
REMARK    9  A    between atoms: C_12  and  C_13
REMARK   10  A    between atoms: C_13  and  N_14
REMARK                            x       y       z     vdW  Elec       q    Type
REMARK                         _______ _______ _______ _____ _____    ______ ____
ROOT
ATOM      1  C   UNL     1       7.073   4.550  17.386  0.00  0.00    +0.000 C 
ENDROOT
BRANCH   1   5
ATOM      2  C   UNL     1       6.510   4.099  13.901  0.00  0.00    +0.000 A 
ATOM      3  N   UNL     1       7.044   5.326  13.853  0.00  0.00    +0.000 NA
ATOM      4  O   UNL     1       7.289   5.619  15.199  0.00  0.00    +0.000 OA
ATOM      5  C   UNL     1       6.874   4.527  15.910  0.00  0.00    +0.000 A 
ATOM      6  N   UNL     1       6.396   3.563  15.156  0.00  0.00    +0.000 NA
BRANCH   2   7
ATOM      7  C   UNL     1       6.093   3.347  12.695  0.00  0.00    +0.000 C 
BRANCH   7   8
ATOM      8  C   UNL     1       4.910   4.011  11.989  0.00  0.00    +0.000 C 
BRANCH   8  10
ATOM      9  C   UNL     1       3.211   3.677  10.161  0.00  0.00    +0.000 C 
ATOM     10  C   UNL     1       4.109   2.994  11.179  0.00  0.00    +0.000 C 
ENDBRANCH   8  10
ENDBRANCH   7   8
ENDBRANCH   2   7
ENDBRANCH   1   5
BRANCH   1  11
ATOM     11  N   UNL     1       5.837   4.419  18.196  0.00  0.00    +0.000 NA
ATOM     12  C   UNL     1       5.870   5.313  19.365  0.00  0.00    +0.000 C 
BRANCH  11  13
ATOM     13  C   UNL     1       4.636   4.725  17.385  0.00  0.00    +0.000 C 
BRANCH  13  14
ATOM     14  C   UNL     1       3.642   3.544  17.249  0.00  0.00    +0.000 C 
BRANCH  14  15
ATOM     15  N   UNL     1       2.397   3.605  18.002  0.00  0.00    +0.000 NA
ATOM     16  C   UNL     1       1.853   2.340  18.472  0.00  0.00    +0.000 C 
ATOM     17  C   UNL     1       0.629   2.848  19.212  0.00  0.00    +0.000 C 
ATOM     18  C   UNL     1       1.151   4.082  19.940  0.00  0.00    +0.000 C 
ATOM     19  C   UNL     1       2.372   4.527  19.134  0.00  0.00    +0.000 C 
ENDBRANCH  14  15
ENDBRANCH  13  14
ENDBRANCH  11  13
ENDBRANCH   1  11
TORSDOF 8
ENDMDL
MODEL 4
REMARK VINA RESULT:      -6.7      1.311      1.702
REMARK  Name = 
REMARK  10 active torsions:
REMARK  status: ('A' for Active; 'I' for Inactive)
REMARK    1  A    between atoms: C_1  and  C_2
REMARK    2  A    between atoms: C_2  and  C_3
REMARK    3  A    between atoms: C_3  and  C_4
REMARK    4  A    between atoms: C_4  and  C_5
REMARK    5  A    between atoms: C_8  and  C_9
REMARK    6  A    between atoms: C_9  and  N_10
REMARK    7  A    between atoms: N_10  and  C_11
REMARK    8  A    between atoms: N_10  and  C_12
REMARK    9  A    between atoms: C_12  and  C_13
REMARK   10  A    between atoms: C_13  and  N_14
REMARK                            x       y       z     vdW  Elec       q    Type
REMARK                         _______ _______ _______ _____ _____    ______ ____
ROOT
ATOM      1  C   UNL     1       7.079   5.234  16.963  0.00  0.00    +0.000 C 
ENDROOT
BRANCH   1   5
ATOM      2  C   UNL     1       6.463   3.988  13.686  0.00  0.00    +0.000 A 
ATOM      3  N   UNL     1       7.243   5.025  13.355  0.00  0.00    +0.000 NA
ATOM      4  O   UNL     1       7.532   5.612  14.591  0.00  0.00    +0.000 OA
ATOM      5  C   UNL     1       6.892   4.857  15.534  0.00  0.00    +0.000 A 
ATOM      6  N   UNL     1       6.229   3.842  15.027  0.00  0.00    +0.000 NA
BRANCH   2   7
ATOM      7  C   UNL     1       5.908   3.040  12.693  0.00  0.00    +0.000 C 
BRANCH   7   8
ATOM      8  C   UNL     1       5.256   3.764  11.514  0.00  0.00    +0.000 C 
BRANCH   8  10
ATOM      9  C   UNL     1       3.215   3.917  10.049  0.00  0.00    +0.000 C 
ATOM     10  C   UNL     1       3.877   3.186  11.205  0.00  0.00    +0.000 C 
ENDBRANCH   8  10
ENDBRANCH   7   8
ENDBRANCH   2   7
ENDBRANCH   1   5
BRANCH   1  11
ATOM     11  N   UNL     1       5.862   5.722  17.655  0.00  0.00    +0.000 NA
ATOM     12  C   UNL     1       4.983   6.458  16.731  0.00  0.00    +0.000 C 
BRANCH  11  13
ATOM     13  C   UNL     1       5.104   4.599  18.254  0.00  0.00    +0.000 C 
BRANCH  13  14
ATOM     14  C   UNL     1       3.600   4.577  17.883  0.00  0.00    +0.000 C 
BRANCH  14  15
ATOM     15  N   UNL     1       2.699   3.794  18.717  0.00  0.00    +0.000 NA
ATOM     16  C   UNL     1       1.829   4.535  19.618  0.00  0.00    +0.000 C 
ATOM     17  C   UNL     1       1.062   3.382  20.238  0.00  0.00    +0.000 C 
ATOM     18  C   UNL     1       0.781   2.471  19.048  0.00  0.00    +0.000 C 
ATOM     19  C   UNL     1       1.863   2.818  18.024  0.00  0.00    +0.000 C 
ENDBRANCH  14  15
ENDBRANCH  13  14
ENDBRANCH  11  13
ENDBRANCH   1  11
TORSDOF 8
ENDMDL
MODEL 5
REMARK VINA RESULT:      -6.6      1.381      1.966
REMARK  Name = 
REMARK  10 active torsions:
REMARK  status: ('A' for Active; 'I' for Inactive)
REMARK    1  A    between atoms: C_1  and  C_2
REMARK    2  A    between atoms: C_2  and  C_3
REMARK    3  A    between atoms: C_3  and  C_4
REMARK    4  A    between atoms: C_4  and  C_5
REMARK    5  A    between atoms: C_8  and  C_9
REMARK    6  A    between atoms: C_9  and  N_10
REMARK    7  A    between atoms: N_10  and  C_11
REMARK    8  A    between atoms: N_10  and  C_12
REMARK    9  A    between atoms: C_12  and  C_13
REMARK   10  A    between atoms: C_13  and  N_14
REMARK                            x       y       z     vdW  Elec       q    Type
REMARK                         _______ _______ _______ _____ _____    ______ ____
ROOT
ATOM      1  C   UNL     1       5.423   6.386  17.267  0.00  0.00    +0.000 C 
ENDROOT
BRANCH   1   5
ATOM      2  C   UNL     1       6.575   4.956  14.219  0.00  0.00    +0.000 A 
ATOM      3  N   UNL     1       7.755   5.376  14.693  0.00  0.00    +0.000 NA
ATOM      4  O   UNL     1       7.411   5.986  15.904  0.00  0.00    +0.000 OA
ATOM      5  C   UNL     1       6.055   5.862  16.024  0.00  0.00    +0.000 A 
ATOM      6  N   UNL     1       5.497   5.228  15.017  0.00  0.00    +0.000 NA
BRANCH   2   7
ATOM      7  C   UNL     1       6.428   4.223  12.940  0.00  0.00    +0.000 C 
BRANCH   7   8
ATOM      8  C   UNL     1       5.174   3.347  12.925  0.00  0.00    +0.000 C 
BRANCH   8  10
ATOM      9  C   UNL     1       3.755   3.196  10.850  0.00  0.00    +0.000 C 
ATOM     10  C   UNL     1       4.988   2.672  11.567  0.00  0.00    +0.000 C 
ENDBRANCH   8  10
ENDBRANCH   7   8
ENDBRANCH   2   7
ENDBRANCH   1   5
BRANCH   1  11
ATOM     11  N   UNL     1       4.601   5.409  18.023  0.00  0.00    +0.000 NA
ATOM     12  C   UNL     1       5.415   4.682  19.010  0.00  0.00    +0.000 C 
BRANCH  11  13
ATOM     13  C   UNL     1       3.481   6.084  18.720  0.00  0.00    +0.000 C 
BRANCH  13  14
ATOM     14  C   UNL     1       2.108   5.393  18.532  0.00  0.00    +0.000 C 
BRANCH  14  15
ATOM     15  N   UNL     1       1.698   4.401  19.517  0.00  0.00    +0.000 NA
ATOM     16  C   UNL     1       1.971   3.008  19.196  0.00  0.00    +0.000 C 
ATOM     17  C   UNL     1       1.444   2.348  20.457  0.00  0.00    +0.000 C 
ATOM     18  C   UNL     1       1.941   3.270  21.565  0.00  0.00    +0.000 C 
ATOM     19  C   UNL     1       2.158   4.622  20.884  0.00  0.00    +0.000 C 
ENDBRANCH  14  15
ENDBRANCH  13  14
ENDBRANCH  11  13
ENDBRANCH   1  11
TORSDOF 8
ENDMDL
MODEL 6
REMARK VINA RESULT:      -6.6      1.297      1.835
REMARK  Name = 
REMARK  10 active torsions:
REMARK  status: ('A' for Active; 'I' for Inactive)
REMARK    1  A    between atoms: C_1  and  C_2
REMARK    2  A    between atoms: C_2  and  C_3
REMARK    3  A    between atoms: C_3  and  C_4
REMARK    4  A    between atoms: C_4  and  C_5
REMARK    5  A    between atoms: C_8  and  C_9
REMARK    6  A    between atoms: C_9  and  N_10
REMARK    7  A    between atoms: N_10  and  C_11
REMARK    8  A    between atoms: N_10  and  C_12
REMARK    9  A    between atoms: C_12  and  C_13
REMARK   10  A    between atoms: C_13  and  N_14
REMARK                            x       y       z     vdW  Elec       q    Type
REMARK                         _______ _______ _______ _____ _____    ______ ____
ROOT
ATOM      1  C   UNL     1       6.446   4.668  17.427  0.00  0.00    +0.000 C 
ENDROOT
BRANCH   1   5
ATOM      2  C   UNL     1       6.713   4.310  13.896  0.00  0.00    +0.000 A 
ATOM      3  N   UNL     1       7.614   5.287  14.059  0.00  0.00    +0.000 NA
ATOM      4  O   UNL     1       7.575   5.527  15.437  0.00  0.00    +0.000 OA
ATOM      5  C   UNL     1       6.650   4.662  15.951  0.00  0.00    +0.000 A 
ATOM      6  N   UNL     1       6.099   3.887  15.044  0.00  0.00    +0.000 NA
BRANCH   2   7
ATOM      7  C   UNL     1       6.407   3.699  12.582  0.00  0.00    +0.000 C 
BRANCH   7   8
ATOM      8  C   UNL     1       4.919   3.375  12.435  0.00  0.00    +0.000 C 
BRANCH   8  10
ATOM      9  C   UNL     1       3.224   2.962  10.620  0.00  0.00    +0.000 C 
ATOM     10  C   UNL     1       4.388   3.826  11.076  0.00  0.00    +0.000 C 
ENDBRANCH   8  10
ENDBRANCH   7   8
ENDBRANCH   2   7
ENDBRANCH   1   5
BRANCH   1  11
ATOM     11  N   UNL     1       5.779   5.876  17.971  0.00  0.00    +0.000 NA
ATOM     12  C   UNL     1       5.287   6.745  16.888  0.00  0.00    +0.000 C 
BRANCH  11  13
ATOM     13  C   UNL     1       4.645   5.507  18.849  0.00  0.00    +0.000 C 
BRANCH  13  14
ATOM     14  C   UNL     1       3.494   4.766  18.125  0.00  0.00    +0.000 C 
BRANCH  14  15
ATOM     15  N   UNL     1       2.372   4.293  18.925  0.00  0.00    +0.000 NA
ATOM     16  C   UNL     1       1.905   2.940  18.663  0.00  0.00    +0.000 C 
ATOM     17  C   UNL     1       0.802   2.846  19.701  0.00  0.00    +0.000 C 
ATOM     18  C   UNL     1       1.422   3.506  20.928  0.00  0.00    +0.000 C 
ATOM     19  C   UNL     1       2.511   4.425  20.372  0.00  0.00    +0.000 C 
ENDBRANCH  14  15
ENDBRANCH  13  14
ENDBRANCH  11  13
ENDBRANCH   1  11
TORSDOF 8
ENDMDL
MODEL 7
REMARK VINA RESULT:      -6.6      1.192      1.687
REMARK  Name = 
REMARK  10 active torsions:
REMARK  status: ('A' for Active; 'I' for Inactive)
REMARK    1  A    between atoms: C_1  and  C_2
REMARK    2  A    between atoms: C_2  and  C_3
REMARK    3  A    between atoms: C_3  and  C_4
REMARK    4  A    between atoms: C_4  and  C_5
REMARK    5  A    between atoms: C_8  and  C_9
REMARK    6  A    between atoms: C_9  and  N_10
REMARK    7  A    between atoms: N_10  and  C_11
REMARK    8  A    between atoms: N_10  and  C_12
REMARK    9  A    between atoms: C_12  and  C_13
REMARK   10  A    between atoms: C_13  and  N_14
REMARK                            x       y       z     vdW  Elec       q    Type
REMARK                         _______ _______ _______ _____ _____    ______ ____
ROOT
ATOM      1  C   UNL     1       6.061   4.515  17.296  0.00  0.00    +0.000 C 
ENDROOT
BRANCH   1   5
ATOM      2  C   UNL     1       6.810   4.498  13.817  0.00  0.00    +0.000 A 
ATOM      3  N   UNL     1       7.712   5.409  14.204  0.00  0.00    +0.000 NA
ATOM      4  O   UNL     1       7.487   5.513  15.581  0.00  0.00    +0.000 OA
ATOM      5  C   UNL     1       6.471   4.646  15.870  0.00  0.00    +0.000 A 
ATOM      6  N   UNL     1       6.027   3.992  14.820  0.00  0.00    +0.000 NA
BRANCH   2   7
ATOM      7  C   UNL     1       6.671   4.036  12.416  0.00  0.00    +0.000 C 
BRANCH   7   8
ATOM      8  C   UNL     1       6.168   2.593  12.338  0.00  0.00    +0.000 C 
BRANCH   8  10
ATOM      9  C   UNL     1       3.984   3.350  11.340  0.00  0.00    +0.000 C 
ATOM     10  C   UNL     1       5.174   2.417  11.193  0.00  0.00    +0.000 C 
ENDBRANCH   8  10
ENDBRANCH   7   8
ENDBRANCH   2   7
ENDBRANCH   1   5
BRANCH   1  11
ATOM     11  N   UNL     1       4.995   5.447  17.739  0.00  0.00    +0.000 NA
ATOM     12  C   UNL     1       5.173   6.781  17.143  0.00  0.00    +0.000 C 
BRANCH  11  13
ATOM     13  C   UNL     1       3.654   4.930  17.378  0.00  0.00    +0.000 C 
BRANCH  13  14
ATOM     14  C   UNL     1       3.321   3.545  17.987  0.00  0.00    +0.000 C 
BRANCH  14  15
ATOM     15  N   UNL     1       2.686   3.507  19.298  0.00  0.00    +0.000 NA
ATOM     16  C   UNL     1       1.356   2.920  19.365  0.00  0.00    +0.000 C 
ATOM     17  C   UNL     1       1.100   3.040  20.856  0.00  0.00    +0.000 C 
ATOM     18  C   UNL     1       2.437   2.641  21.472  0.00  0.00    +0.000 C 
ATOM     19  C   UNL     1       3.470   2.912  20.377  0.00  0.00    +0.000 C 
ENDBRANCH  14  15
ENDBRANCH  13  14
ENDBRANCH  11  13
ENDBRANCH   1  11
TORSDOF 8
ENDMDL
MODEL 8
REMARK VINA RESULT:      -6.6      1.315      1.642
REMARK  Name = 
REMARK  10 active torsions:
REMARK  status: ('A' for Active; 'I' for Inactive)
REMARK    1  A    between atoms: C_1  and  C_2
REMARK    2  A    between atoms: C_2  and  C_3
REMARK    3  A    between atoms: C_3  and  C_4
REMARK    4  A    between atoms: C_4  and  C_5
REMARK    5  A    between atoms: C_8  and  C_9
REMARK    6  A    between atoms: C_9  and  N_10
REMARK    7  A    between atoms: N_10  and  C_11
REMARK    8  A    between atoms: N_10  and  C_12
REMARK    9  A    between atoms: C_12  and  C_13
REMARK   10  A    between atoms: C_13  and  N_14
REMARK                            x       y       z     vdW  Elec       q    Type
REMARK                         _______ _______ _______ _____ _____    ______ ____
ROOT
ATOM      1  C   UNL     1       7.351   5.961  17.752  0.00  0.00    +0.000 C 
ENDROOT
BRANCH   1   5
ATOM      2  C   UNL     1       6.404   4.377  14.708  0.00  0.00    +0.000 A 
ATOM      3  N   UNL     1       7.304   5.234  14.208  0.00  0.00    +0.000 NA
ATOM      4  O   UNL     1       7.734   5.937  15.339  0.00  0.00    +0.000 OA
ATOM      5  C   UNL     1       7.042   5.421  16.398  0.00  0.00    +0.000 A 
ATOM      6  N   UNL     1       6.218   4.454  16.063  0.00  0.00    +0.000 NA
BRANCH   2   7
ATOM      7  C   UNL     1       5.673   3.392  13.879  0.00  0.00    +0.000 C 
BRANCH   7   8
ATOM      8  C   UNL     1       6.059   3.489  12.402  0.00  0.00    +0.000 C 
BRANCH   8  10
ATOM      9  C   UNL     1       3.973   3.323  11.003  0.00  0.00    +0.000 C 
ATOM     10  C   UNL     1       5.184   2.580  11.542  0.00  0.00    +0.000 C 
ENDBRANCH   8  10
ENDBRANCH   7   8
ENDBRANCH   2   7
ENDBRANCH   1   5
BRANCH   1  11
ATOM     11  N   UNL     1       6.988   5.077  18.887  0.00  0.00    +0.000 NA
ATOM     12  C   UNL     1       7.795   5.383  20.078  0.00  0.00    +0.000 C 
BRANCH  11  13
ATOM     13  C   UNL     1       5.552   5.212  19.227  0.00  0.00    +0.000 C 
BRANCH  13  14
ATOM     14  C   UNL     1       4.795   3.865  19.333  0.00  0.00    +0.000 C 
BRANCH  14  15
ATOM     15  N   UNL     1       3.369   3.854  19.034  0.00  0.00    +0.000 NA
ATOM     16  C   UNL     1       2.962   4.432  17.762  0.00  0.00    +0.000 C 
ATOM     17  C   UNL     1       1.466   4.183  17.836  0.00  0.00    +0.000 C 
ATOM     18  C   UNL     1       1.377   2.771  18.405  0.00  0.00    +0.000 C 
ATOM     19  C   UNL     1       2.695   2.564  19.152  0.00  0.00    +0.000 C 
ENDBRANCH  14  15
ENDBRANCH  13  14
ENDBRANCH  11  13
ENDBRANCH   1  11
TORSDOF 8
ENDMDL
MODEL 9
REMARK VINA RESULT:      -6.5      1.198      1.418
REMARK  Name = 
REMARK  10 active torsions:
REMARK  status: ('A' for Active; 'I' for Inactive)
REMARK    1  A    between atoms: C_1  and  C_2
REMARK    2  A    between atoms: C_2  and  C_3
REMARK    3  A    between atoms: C_3  and  C_4
REMARK    4  A    between atoms: C_4  and  C_5
REMARK    5  A    between atoms: C_8  and  C_9
REMARK    6  A    between atoms: C_9  and  N_10
REMARK    7  A    between atoms: N_10  and  C_11
REMARK    8  A    between atoms: N_10  and  C_12
REMARK    9  A    between atoms: C_12  and  C_13
REMARK   10  A    between atoms: C_13  and  N_14
REMARK                            x       y       z     vdW  Elec       q    Type
REMARK                         _______ _______ _______ _____ _____    ______ ____
ROOT
ATOM      1  C   UNL     1       7.453   4.742  17.485  0.00  0.00    +0.000 C 
ENDROOT
BRANCH   1   5
ATOM      2  C   UNL     1       6.111   4.231  14.229  0.00  0.00    +0.000 A 
ATOM      3  N   UNL     1       7.130   5.033  13.894  0.00  0.00    +0.000 NA
ATOM      4  O   UNL     1       7.726   5.320  15.127  0.00  0.00    +0.000 OA
ATOM      5  C   UNL     1       6.996   4.652  16.070  0.00  0.00    +0.000 A 
ATOM      6  N   UNL     1       5.998   3.962  15.566  0.00  0.00    +0.000 NA
BRANCH   2   7
ATOM      7  C   UNL     1       5.179   3.644  13.238  0.00  0.00    +0.000 C 
BRANCH   7   8
ATOM      8  C   UNL     1       5.850   3.433  11.879  0.00  0.00    +0.000 C 
BRANCH   8  10
ATOM      9  C   UNL     1       7.070   1.463  10.896  0.00  0.00    +0.000 C 
ATOM     10  C   UNL     1       5.744   1.977  11.432  0.00  0.00    +0.000 C 
ENDBRANCH   8  10
ENDBRANCH   7   8
ENDBRANCH   2   7
ENDBRANCH   1   5
BRANCH   1  11
ATOM     11  N   UNL     1       6.582   5.536  18.385  0.00  0.00    +0.000 NA
ATOM     12  C   UNL     1       5.891   6.606  17.647  0.00  0.00    +0.000 C 
BRANCH  11  13
ATOM     13  C   UNL     1       5.574   4.675  19.046  0.00  0.00    +0.000 C 
BRANCH  13  14
ATOM     14  C   UNL     1       4.310   5.429  19.529  0.00  0.00    +0.000 C 
BRANCH  14  15
ATOM     15  N   UNL     1       3.199   4.644  20.049  0.00  0.00    +0.000 NA
ATOM     16  C   UNL     1       1.865   5.196  19.869  0.00  0.00    +0.000 C 
ATOM     17  C   UNL     1       1.042   4.083  20.492  0.00  0.00    +0.000 C 
ATOM     18  C   UNL     1       1.716   2.819  19.971  0.00  0.00    +0.000 C 
ATOM     19  C   UNL     1       3.144   3.247  19.628  0.00  0.00    +0.000 C 
ENDBRANCH  14  15
ENDBRANCH  13  14
ENDBRANCH  11  13
ENDBRANCH   1  11
TORSDOF 8
ENDMDL
