MODEL 1
REMARK VINA RESULT:      -8.3      0.000      0.000
REMARK  Name = 
REMARK  9 active torsions:
REMARK  status: ('A' for Active; 'I' for Inactive)
REMARK    1  A    between atoms: C_1  and  N_2
REMARK    2  A    between atoms: N_2  and  C_3
REMARK    3  A    between atoms: N_2  and  C_12
REMARK    4  A    between atoms: C_15  and  C_16
REMARK    5  A    between atoms: C_16  and  S_17
REMARK    6  A    between atoms: S_17  and  N_20
REMARK    7  A    between atoms: C_22  and  S_23
REMARK    8  A    between atoms: S_23  and  C_26
REMARK    9  A    between atoms: C_26  and  C_27
REMARK                            x       y       z     vdW  Elec       q    Type
REMARK                         _______ _______ _______ _____ _____    ______ ____
ROOT
ATOM      1  C   UNL     1       2.812   5.260  18.990  0.00  0.00    +0.000 C 
ATOM      2  C   UNL     1       2.302   5.409  20.435  0.00  0.00    +0.000 C 
ATOM      3  C   UNL     1       1.336   6.575  20.629  0.00  0.00    +0.000 C 
ATOM      4  C   UNL     1       1.894   7.905  20.098  0.00  0.00    +0.000 C 
ATOM      5  C   UNL     1       2.261   7.744  18.617  0.00  0.00    +0.000 C 
ATOM      6  C   UNL     1       3.274   6.616  18.412  0.00  0.00    +0.000 C 
ENDROOT
BRANCH   1   8
ATOM      7  C   UNL     1       3.734   3.088  19.861  0.00  0.00    +0.000 C 
ATOM      8  N   UNL     1       3.899   4.237  18.980  0.00  0.00    +0.000 N 
BRANCH   8   9
ATOM      9  C   UNL     1       5.189   4.618  18.587  0.00  0.00    +0.000 A 
ATOM     10  N   UNL     1       6.002   5.193  19.526  0.00  0.00    +0.000 NA
ATOM     11  C   UNL     1       7.265   5.545  19.219  0.00  0.00    +0.000 A 
ATOM     12  N   UNL     1       7.903   5.392  18.057  0.00  0.00    +0.000 NA
ATOM     13  C   UNL     1       7.092   4.869  17.129  0.00  0.00    +0.000 A 
ATOM     14  N   UNL     1       7.491   4.615  15.846  0.00  0.00    +0.000 N 
ATOM     15  C   UNL     1       6.434   4.150  15.117  0.00  0.00    +0.000 A 
ATOM     16  C   UNL     1       5.344   4.111  15.959  0.00  0.00    +0.000 A 
ATOM     17  C   UNL     1       5.757   4.498  17.279  0.00  0.00    +0.000 A 
ATOM     18  H   UNL     1       8.429   4.775  15.509  0.00  0.00    +0.000 HD
ENDBRANCH   8   9
ENDBRANCH   1   8
BRANCH   4  19
ATOM     19  C   UNL     1       0.862   9.012  20.358  0.00  0.00    +0.000 C 
BRANCH  19  20
ATOM     20  S   UNL     1       0.752   9.543  22.063  0.00  0.00    +0.000 S 
ATOM     21  O   UNL     1      -0.496   9.092  22.629  0.00  0.00    +0.000 OA
ATOM     22  O   UNL     1       2.014   9.300  22.726  0.00  0.00    +0.000 OA
BRANCH  20  23
ATOM     23  N   UNL     1       0.637  11.210  21.856  0.00  0.00    +0.000 NA
ATOM     24  C   UNL     1       0.866  11.937  20.580  0.00  0.00    +0.000 C 
ATOM     25  C   UNL     1      -0.034  13.078  21.077  0.00  0.00    +0.000 C 
ATOM     26  C   UNL     1      -0.555  12.063  22.107  0.00  0.00    +0.000 C 
BRANCH  25  27
ATOM     27  S   UNL     1       0.813  14.466  21.812  0.00  0.00    +0.000 S 
ATOM     28  O   UNL     1       0.023  14.916  22.945  0.00  0.00    +0.000 OA
ATOM     29  O   UNL     1       2.221  14.160  21.990  0.00  0.00    +0.000 OA
BRANCH  27  30
ATOM     30  C   UNL     1       0.675  15.701  20.521  0.00  0.00    +0.000 C 
BRANCH  30  31
ATOM     31  C   UNL     1       1.911  15.597  19.678  0.00  0.00    +0.000 C 
ATOM     32  C   UNL     1       1.974  16.368  18.382  0.00  0.00    +0.000 C 
ATOM     33  C   UNL     1       2.847  16.771  19.536  0.00  0.00    +0.000 C 
ENDBRANCH  30  31
ENDBRANCH  27  30
ENDBRANCH  25  27
ENDBRANCH  20  23
ENDBRANCH  19  20
ENDBRANCH   4  19
TORSDOF 8
ENDMDL
MODEL 2
REMARK VINA RESULT:      -7.8      2.056      2.552
REMARK  Name = 
REMARK  9 active torsions:
REMARK  status: ('A' for Active; 'I' for Inactive)
REMARK    1  A    between atoms: C_1  and  N_2
REMARK    2  A    between atoms: N_2  and  C_3
REMARK    3  A    between atoms: N_2  and  C_12
REMARK    4  A    between atoms: C_15  and  C_16
REMARK    5  A    between atoms: C_16  and  S_17
REMARK    6  A    between atoms: S_17  and  N_20
REMARK    7  A    between atoms: C_22  and  S_23
REMARK    8  A    between atoms: S_23  and  C_26
REMARK    9  A    between atoms: C_26  and  C_27
REMARK                            x       y       z     vdW  Elec       q    Type
REMARK                         _______ _______ _______ _____ _____    ______ ____
ROOT
ATOM      1  C   UNL     1       2.813   5.274  18.946  0.00  0.00    +0.000 C 
ATOM      2  C   UNL     1       2.367   5.483  20.405  0.00  0.00    +0.000 C 
ATOM      3  C   UNL     1       1.404   6.653  20.591  0.00  0.00    +0.000 C 
ATOM      4  C   UNL     1       1.929   7.961  19.980  0.00  0.00    +0.000 C 
ATOM      5  C   UNL     1       2.232   7.738  18.492  0.00  0.00    +0.000 C 
ATOM      6  C   UNL     1       3.241   6.606  18.291  0.00  0.00    +0.000 C 
ENDROOT
BRANCH   1   8
ATOM      7  C   UNL     1       3.734   3.092  19.791  0.00  0.00    +0.000 C 
ATOM      8  N   UNL     1       3.904   4.256  18.931  0.00  0.00    +0.000 N 
BRANCH   8   9
ATOM      9  C   UNL     1       5.197   4.649  18.562  0.00  0.00    +0.000 A 
ATOM     10  N   UNL     1       6.000   5.202  19.522  0.00  0.00    +0.000 NA
ATOM     11  C   UNL     1       7.265   5.564  19.237  0.00  0.00    +0.000 A 
ATOM     12  N   UNL     1       7.915   5.442  18.078  0.00  0.00    +0.000 NA
ATOM     13  C   UNL     1       7.114   4.940  17.129  0.00  0.00    +0.000 A 
ATOM     14  N   UNL     1       7.526   4.721  15.844  0.00  0.00    +0.000 N 
ATOM     15  C   UNL     1       6.478   4.272  15.093  0.00  0.00    +0.000 A 
ATOM     16  C   UNL     1       5.380   4.210  15.923  0.00  0.00    +0.000 A 
ATOM     17  C   UNL     1       5.778   4.564  17.256  0.00  0.00    +0.000 A 
ATOM     18  H   UNL     1       8.467   4.891  15.521  0.00  0.00    +0.000 HD
ENDBRANCH   8   9
ENDBRANCH   1   8
BRANCH   4  19
ATOM     19  C   UNL     1       0.903   9.074  20.237  0.00  0.00    +0.000 C 
BRANCH  19  20
ATOM     20  S   UNL     1       0.435   9.273  21.953  0.00  0.00    +0.000 S 
ATOM     21  O   UNL     1      -0.668   8.394  22.257  0.00  0.00    +0.000 OA
ATOM     22  O   UNL     1       1.623   9.308  22.776  0.00  0.00    +0.000 OA
BRANCH  20  23
ATOM     23  N   UNL     1      -0.168  10.845  21.923  0.00  0.00    +0.000 NA
ATOM     24  C   UNL     1      -0.974  11.438  20.824  0.00  0.00    +0.000 C 
ATOM     25  C   UNL     1      -1.592  12.430  21.820  0.00  0.00    +0.000 C 
ATOM     26  C   UNL     1      -1.090  11.468  22.910  0.00  0.00    +0.000 C 
BRANCH  25  27
ATOM     27  S   UNL     1      -0.823  14.039  21.884  0.00  0.00    +0.000 S 
ATOM     28  O   UNL     1       0.528  13.864  22.388  0.00  0.00    +0.000 OA
ATOM     29  O   UNL     1      -1.042  14.752  20.638  0.00  0.00    +0.000 OA
BRANCH  27  30
ATOM     30  C   UNL     1      -1.785  14.849  23.161  0.00  0.00    +0.000 C 
BRANCH  30  31
ATOM     31  C   UNL     1      -3.218  14.465  22.944  0.00  0.00    +0.000 C 
ATOM     32  C   UNL     1      -4.284  15.137  23.775  0.00  0.00    +0.000 C 
ATOM     33  C   UNL     1      -4.186  15.428  22.304  0.00  0.00    +0.000 C 
ENDBRANCH  30  31
ENDBRANCH  27  30
ENDBRANCH  25  27
ENDBRANCH  20  23
ENDBRANCH  19  20
ENDBRANCH   4  19
TORSDOF 8
ENDMDL
MODEL 3
REMARK VINA RESULT:      -7.8      2.090      2.882
REMARK  Name = 
REMARK  9 active torsions:
REMARK  status: ('A' for Active; 'I' for Inactive)
REMARK    1  A    between atoms: C_1  and  N_2
REMARK    2  A    between atoms: N_2  and  C_3
REMARK    3  A    between atoms: N_2  and  C_12
REMARK    4  A    between atoms: C_15  and  C_16
REMARK    5  A    between atoms: C_16  and  S_17
REMARK    6  A    between atoms: S_17  and  N_20
REMARK    7  A    between atoms: C_22  and  S_23
REMARK    8  A    between atoms: S_23  and  C_26
REMARK    9  A    between atoms: C_26  and  C_27
REMARK                            x       y       z     vdW  Elec       q    Type
REMARK                         _______ _______ _______ _____ _____    ______ ____
ROOT
ATOM      1  C   UNL     1       2.851   5.245  18.967  0.00  0.00    +0.000 C 
ATOM      2  C   UNL     1       2.365   5.457  20.412  0.00  0.00    +0.000 C 
ATOM      3  C   UNL     1       1.382   6.615  20.567  0.00  0.00    +0.000 C 
ATOM      4  C   UNL     1       1.906   7.926  19.961  0.00  0.00    +0.000 C 
ATOM      5  C   UNL     1       2.249   7.698  18.483  0.00  0.00    +0.000 C 
ATOM      6  C   UNL     1       3.278   6.579  18.314  0.00  0.00    +0.000 C 
ENDROOT
BRANCH   1   8
ATOM      7  C   UNL     1       3.804   3.107  19.887  0.00  0.00    +0.000 C 
ATOM      8  N   UNL     1       3.956   4.243  18.986  0.00  0.00    +0.000 N 
BRANCH   8   9
ATOM      9  C   UNL     1       5.244   4.640  18.600  0.00  0.00    +0.000 A 
ATOM     10  N   UNL     1       6.058   5.192  19.551  0.00  0.00    +0.000 NA
ATOM     11  C   UNL     1       7.318   5.556  19.249  0.00  0.00    +0.000 A 
ATOM     12  N   UNL     1       7.953   5.440  18.081  0.00  0.00    +0.000 NA
ATOM     13  C   UNL     1       7.140   4.939  17.142  0.00  0.00    +0.000 A 
ATOM     14  N   UNL     1       7.534   4.725  15.851  0.00  0.00    +0.000 N 
ATOM     15  C   UNL     1       6.477   4.276  15.113  0.00  0.00    +0.000 A 
ATOM     16  C   UNL     1       5.390   4.209  15.958  0.00  0.00    +0.000 A 
ATOM     17  C   UNL     1       5.807   4.559  17.286  0.00  0.00    +0.000 A 
ATOM     18  H   UNL     1       8.471   4.898  15.515  0.00  0.00    +0.000 HD
ENDBRANCH   8   9
ENDBRANCH   1   8
BRANCH   4  19
ATOM     19  C   UNL     1       0.858   9.027  20.185  0.00  0.00    +0.000 C 
BRANCH  19  20
ATOM     20  S   UNL     1       0.363   9.247  21.890  0.00  0.00    +0.000 S 
ATOM     21  O   UNL     1      -0.638   8.266  22.233  0.00  0.00    +0.000 OA
ATOM     22  O   UNL     1       1.537   9.448  22.711  0.00  0.00    +0.000 OA
BRANCH  20  23
ATOM     23  N   UNL     1      -0.409  10.740  21.792  0.00  0.00    +0.000 NA
ATOM     24  C   UNL     1      -1.203  11.373  22.879  0.00  0.00    +0.000 C 
ATOM     25  C   UNL     1      -0.916  12.755  22.274  0.00  0.00    +0.000 C 
ATOM     26  C   UNL     1       0.223  12.057  21.513  0.00  0.00    +0.000 C 
BRANCH  25  27
ATOM     27  S   UNL     1      -2.188  13.410  21.208  0.00  0.00    +0.000 S 
ATOM     28  O   UNL     1      -1.799  14.759  20.834  0.00  0.00    +0.000 OA
ATOM     29  O   UNL     1      -2.527  12.445  20.177  0.00  0.00    +0.000 OA
BRANCH  27  30
ATOM     30  C   UNL     1      -3.578  13.530  22.332  0.00  0.00    +0.000 C 
BRANCH  30  31
ATOM     31  C   UNL     1      -3.545  14.907  22.927  0.00  0.00    +0.000 C 
ATOM     32  C   UNL     1      -4.516  15.243  24.033  0.00  0.00    +0.000 C 
ATOM     33  C   UNL     1      -3.048  15.127  24.333  0.00  0.00    +0.000 C 
ENDBRANCH  30  31
ENDBRANCH  27  30
ENDBRANCH  25  27
ENDBRANCH  20  23
ENDBRANCH  19  20
ENDBRANCH   4  19
TORSDOF 8
ENDMDL
MODEL 4
REMARK VINA RESULT:      -7.8      0.869      1.007
REMARK  Name = 
REMARK  9 active torsions:
REMARK  status: ('A' for Active; 'I' for Inactive)
REMARK    1  A    between atoms: C_1  and  N_2
REMARK    2  A    between atoms: N_2  and  C_3
REMARK    3  A    between atoms: N_2  and  C_12
REMARK    4  A    between atoms: C_15  and  C_16
REMARK    5  A    between atoms: C_16  and  S_17
REMARK    6  A    between atoms: S_17  and  N_20
REMARK    7  A    between atoms: C_22  and  S_23
REMARK    8  A    between atoms: S_23  and  C_26
REMARK    9  A    between atoms: C_26  and  C_27
REMARK                            x       y       z     vdW  Elec       q    Type
REMARK                         _______ _______ _______ _____ _____    ______ ____
ROOT
ATOM      1  C   UNL     1       2.942   5.032  19.205  0.00  0.00    +0.000 C 
ATOM      2  C   UNL     1       2.305   4.913  20.602  0.00  0.00    +0.000 C 
ATOM      3  C   UNL     1       1.234   5.966  20.881  0.00  0.00    +0.000 C 
ATOM      4  C   UNL     1       1.723   7.398  20.615  0.00  0.00    +0.000 C 
ATOM      5  C   UNL     1       2.223   7.501  19.168  0.00  0.00    +0.000 C 
ATOM      6  C   UNL     1       3.338   6.491  18.888  0.00  0.00    +0.000 C 
ENDROOT
BRANCH   1   8
ATOM      7  C   UNL     1       4.081   2.948  20.033  0.00  0.00    +0.000 C 
ATOM      8  N   UNL     1       4.106   4.100  19.141  0.00  0.00    +0.000 N 
BRANCH   8   9
ATOM      9  C   UNL     1       5.339   4.580  18.680  0.00  0.00    +0.000 A 
ATOM     10  N   UNL     1       6.174   5.178  19.584  0.00  0.00    +0.000 NA
ATOM     11  C   UNL     1       7.387   5.624  19.209  0.00  0.00    +0.000 A 
ATOM     12  N   UNL     1       7.954   5.555  18.003  0.00  0.00    +0.000 NA
ATOM     13  C   UNL     1       7.118   5.008  17.111  0.00  0.00    +0.000 A 
ATOM     14  N   UNL     1       7.445   4.826  15.796  0.00  0.00    +0.000 N 
ATOM     15  C   UNL     1       6.374   4.315  15.120  0.00  0.00    +0.000 A 
ATOM     16  C   UNL     1       5.348   4.174  16.030  0.00  0.00    +0.000 A 
ATOM     17  C   UNL     1       5.823   4.543  17.333  0.00  0.00    +0.000 A 
ATOM     18  H   UNL     1       8.345   5.061  15.405  0.00  0.00    +0.000 HD
ENDBRANCH   8   9
ENDBRANCH   1   8
BRANCH   4  19
ATOM     19  C   UNL     1       0.587   8.377  20.943  0.00  0.00    +0.000 C 
BRANCH  19  20
ATOM     20  S   UNL     1       0.927   9.484  22.306  0.00  0.00    +0.000 S 
ATOM     21  O   UNL     1      -0.222   9.545  23.177  0.00  0.00    +0.000 OA
ATOM     22  O   UNL     1       2.253   9.221  22.821  0.00  0.00    +0.000 OA
BRANCH  20  23
ATOM     23  N   UNL     1       1.019  10.954  21.490  0.00  0.00    +0.000 NA
ATOM     24  C   UNL     1       1.009  11.120  20.012  0.00  0.00    +0.000 C 
ATOM     25  C   UNL     1       0.459  12.544  20.183  0.00  0.00    +0.000 C 
ATOM     26  C   UNL     1       0.081  12.102  21.607  0.00  0.00    +0.000 C 
BRANCH  25  27
ATOM     27  S   UNL     1       1.673  13.851  20.143  0.00  0.00    +0.000 S 
ATOM     28  O   UNL     1       2.125  14.076  21.505  0.00  0.00    +0.000 OA
ATOM     29  O   UNL     1       2.644  13.605  19.092  0.00  0.00    +0.000 OA
BRANCH  27  30
ATOM     30  C   UNL     1       0.676  15.258  19.656  0.00  0.00    +0.000 C 
BRANCH  30  31
ATOM     31  C   UNL     1       1.558  16.166  18.852  0.00  0.00    +0.000 C 
ATOM     32  C   UNL     1       1.074  17.561  18.541  0.00  0.00    +0.000 C 
ATOM     33  C   UNL     1       2.221  17.360  19.491  0.00  0.00    +0.000 C 
ENDBRANCH  30  31
ENDBRANCH  27  30
ENDBRANCH  25  27
ENDBRANCH  20  23
ENDBRANCH  19  20
ENDBRANCH   4  19
TORSDOF 8
ENDMDL
MODEL 5
REMARK VINA RESULT:      -7.8      4.362      9.896
REMARK  Name = 
REMARK  9 active torsions:
REMARK  status: ('A' for Active; 'I' for Inactive)
REMARK    1  A    between atoms: C_1  and  N_2
REMARK    2  A    between atoms: N_2  and  C_3
REMARK    3  A    between atoms: N_2  and  C_12
REMARK    4  A    between atoms: C_15  and  C_16
REMARK    5  A    between atoms: C_16  and  S_17
REMARK    6  A    between atoms: S_17  and  N_20
REMARK    7  A    between atoms: C_22  and  S_23
REMARK    8  A    between atoms: S_23  and  C_26
REMARK    9  A    between atoms: C_26  and  C_27
REMARK                            x       y       z     vdW  Elec       q    Type
REMARK                         _______ _______ _______ _____ _____    ______ ____
ROOT
ATOM      1  C   UNL     1       1.092   9.855  19.131  0.00  0.00    +0.000 C 
ATOM      2  C   UNL     1       0.733   8.987  20.351  0.00  0.00    +0.000 C 
ATOM      3  C   UNL     1       1.774   7.917  20.671  0.00  0.00    +0.000 C 
ATOM      4  C   UNL     1       2.127   7.045  19.456  0.00  0.00    +0.000 C 
ATOM      5  C   UNL     1       2.608   7.946  18.311  0.00  0.00    +0.000 C 
ATOM      6  C   UNL     1       1.552   8.988  17.938  0.00  0.00    +0.000 C 
ENDROOT
BRANCH   1   8
ATOM      7  C   UNL     1      -0.990  10.205  17.765  0.00  0.00    +0.000 C 
ATOM      8  N   UNL     1      -0.089  10.703  18.796  0.00  0.00    +0.000 N 
BRANCH   8   9
ATOM      9  C   UNL     1      -0.031  12.081  19.044  0.00  0.00    +0.000 A 
ATOM     10  N   UNL     1      -1.133  12.683  19.589  0.00  0.00    +0.000 NA
ATOM     11  C   UNL     1      -1.123  13.995  19.886  0.00  0.00    +0.000 A 
ATOM     12  N   UNL     1      -0.123  14.867  19.737  0.00  0.00    +0.000 NA
ATOM     13  C   UNL     1       0.938  14.285  19.165  0.00  0.00    +0.000 A 
ATOM     14  N   UNL     1       2.098  14.954  18.889  0.00  0.00    +0.000 N 
ATOM     15  C   UNL     1       2.970  14.123  18.247  0.00  0.00    +0.000 A 
ATOM     16  C   UNL     1       2.345  12.902  18.112  0.00  0.00    +0.000 A 
ATOM     17  C   UNL     1       1.065  12.957  18.760  0.00  0.00    +0.000 A 
ATOM     18  H   UNL     1       2.254  15.925  19.121  0.00  0.00    +0.000 HD
ENDBRANCH   8   9
ENDBRANCH   1   8
BRANCH   4  19
ATOM     19  C   UNL     1       3.160   5.994  19.885  0.00  0.00    +0.000 C 
BRANCH  19  20
ATOM     20  S   UNL     1       2.961   4.393  19.109  0.00  0.00    +0.000 S 
ATOM     21  O   UNL     1       3.324   3.356  20.044  0.00  0.00    +0.000 OA
ATOM     22  O   UNL     1       1.706   4.359  18.392  0.00  0.00    +0.000 OA
BRANCH  20  23
ATOM     23  N   UNL     1       4.173   4.468  17.943  0.00  0.00    +0.000 NA
ATOM     24  C   UNL     1       5.120   3.370  17.614  0.00  0.00    +0.000 C 
ATOM     25  C   UNL     1       5.298   3.956  16.205  0.00  0.00    +0.000 C 
ATOM     26  C   UNL     1       4.001   4.731  16.489  0.00  0.00    +0.000 C 
BRANCH  25  27
ATOM     27  S   UNL     1       6.721   5.009  15.981  0.00  0.00    +0.000 S 
ATOM     28  O   UNL     1       6.338   6.356  16.368  0.00  0.00    +0.000 OA
ATOM     29  O   UNL     1       7.899   4.397  16.569  0.00  0.00    +0.000 OA
BRANCH  27  30
ATOM     30  C   UNL     1       6.914   4.983  14.200  0.00  0.00    +0.000 C 
BRANCH  30  31
ATOM     31  C   UNL     1       6.238   3.740  13.701  0.00  0.00    +0.000 C 
ATOM     32  C   UNL     1       5.122   3.874  12.694  0.00  0.00    +0.000 C 
ATOM     33  C   UNL     1       6.436   3.271  12.282  0.00  0.00    +0.000 C 
ENDBRANCH  30  31
ENDBRANCH  27  30
ENDBRANCH  25  27
ENDBRANCH  20  23
ENDBRANCH  19  20
ENDBRANCH   4  19
TORSDOF 8
ENDMDL
MODEL 6
REMARK VINA RESULT:      -7.7      4.484      9.026
REMARK  Name = 
REMARK  9 active torsions:
REMARK  status: ('A' for Active; 'I' for Inactive)
REMARK    1  A    between atoms: C_1  and  N_2
REMARK    2  A    between atoms: N_2  and  C_3
REMARK    3  A    between atoms: N_2  and  C_12
REMARK    4  A    between atoms: C_15  and  C_16
REMARK    5  A    between atoms: C_16  and  S_17
REMARK    6  A    between atoms: S_17  and  N_20
REMARK    7  A    between atoms: C_22  and  S_23
REMARK    8  A    between atoms: S_23  and  C_26
REMARK    9  A    between atoms: C_26  and  C_27
REMARK                            x       y       z     vdW  Elec       q    Type
REMARK                         _______ _______ _______ _____ _____    ______ ____
ROOT
ATOM      1  C   UNL     1       1.496   9.260  19.629  0.00  0.00    +0.000 C 
ATOM      2  C   UNL     1       0.918   8.371  20.746  0.00  0.00    +0.000 C 
ATOM      3  C   UNL     1       1.728   7.103  21.003  0.00  0.00    +0.000 C 
ATOM      4  C   UNL     1       1.984   6.289  19.726  0.00  0.00    +0.000 C 
ATOM      5  C   UNL     1       2.684   7.180  18.691  0.00  0.00    +0.000 C 
ATOM      6  C   UNL     1       1.857   8.429  18.378  0.00  0.00    +0.000 C 
ENDROOT
BRANCH   1   8
ATOM      7  C   UNL     1      -0.297  10.183  18.126  0.00  0.00    +0.000 C 
ATOM      8  N   UNL     1       0.509  10.338  19.330  0.00  0.00    +0.000 N 
BRANCH   8   9
ATOM      9  C   UNL     1       0.728  11.624  19.844  0.00  0.00    +0.000 A 
ATOM     10  N   UNL     1      -0.023  12.023  20.916  0.00  0.00    +0.000 NA
ATOM     11  C   UNL     1       0.169  13.231  21.478  0.00  0.00    +0.000 A 
ATOM     12  N   UNL     1       1.058  14.167  21.137  0.00  0.00    +0.000 NA
ATOM     13  C   UNL     1       1.761  13.790  20.063  0.00  0.00    +0.000 A 
ATOM     14  N   UNL     1       2.735  14.567  19.498  0.00  0.00    +0.000 N 
ATOM     15  C   UNL     1       3.226  13.954  18.381  0.00  0.00    +0.000 A 
ATOM     16  C   UNL     1       2.545  12.765  18.237  0.00  0.00    +0.000 A 
ATOM     17  C   UNL     1       1.649  12.600  19.346  0.00  0.00    +0.000 A 
ATOM     18  H   UNL     1       3.017  15.465  19.863  0.00  0.00    +0.000 HD
ENDBRANCH   8   9
ENDBRANCH   1   8
BRANCH   4  19
ATOM     19  C   UNL     1       2.783   5.031  20.093  0.00  0.00    +0.000 C 
BRANCH  19  20
ATOM     20  S   UNL     1       2.778   3.753  18.841  0.00  0.00    +0.000 S 
ATOM     21  O   UNL     1       3.157   2.494  19.435  0.00  0.00    +0.000 OA
ATOM     22  O   UNL     1       1.587   3.878  18.030  0.00  0.00    +0.000 OA
BRANCH  20  23
ATOM     23  N   UNL     1       4.062   4.263  17.879  0.00  0.00    +0.000 NA
ATOM     24  C   UNL     1       5.451   4.502  18.353  0.00  0.00    +0.000 C 
ATOM     25  C   UNL     1       5.973   4.239  16.932  0.00  0.00    +0.000 C 
ATOM     26  C   UNL     1       4.609   3.576  16.679  0.00  0.00    +0.000 C 
BRANCH  25  27
ATOM     27  S   UNL     1       6.255   5.689  15.932  0.00  0.00    +0.000 S 
ATOM     28  O   UNL     1       7.590   5.583  15.367  0.00  0.00    +0.000 OA
ATOM     29  O   UNL     1       5.119   5.929  15.060  0.00  0.00    +0.000 OA
BRANCH  27  30
ATOM     30  C   UNL     1       6.284   6.984  17.171  0.00  0.00    +0.000 C 
BRANCH  30  31
ATOM     31  C   UNL     1       7.710   7.427  17.313  0.00  0.00    +0.000 C 
ATOM     32  C   UNL     1       7.992   8.799  17.874  0.00  0.00    +0.000 C 
ATOM     33  C   UNL     1       8.339   7.575  18.675  0.00  0.00    +0.000 C 
ENDBRANCH  30  31
ENDBRANCH  27  30
ENDBRANCH  25  27
ENDBRANCH  20  23
ENDBRANCH  19  20
ENDBRANCH   4  19
TORSDOF 8
ENDMDL
MODEL 7
REMARK VINA RESULT:      -7.7      4.362     10.108
REMARK  Name = 
REMARK  9 active torsions:
REMARK  status: ('A' for Active; 'I' for Inactive)
REMARK    1  A    between atoms: C_1  and  N_2
REMARK    2  A    between atoms: N_2  and  C_3
REMARK    3  A    between atoms: N_2  and  C_12
REMARK    4  A    between atoms: C_15  and  C_16
REMARK    5  A    between atoms: C_16  and  S_17
REMARK    6  A    between atoms: S_17  and  N_20
REMARK    7  A    between atoms: C_22  and  S_23
REMARK    8  A    between atoms: S_23  and  C_26
REMARK    9  A    between atoms: C_26  and  C_27
REMARK                            x       y       z     vdW  Elec       q    Type
REMARK                         _______ _______ _______ _____ _____    ______ ____
ROOT
ATOM      1  C   UNL     1       1.133   9.733  19.299  0.00  0.00    +0.000 C 
ATOM      2  C   UNL     1       0.769   8.823  20.487  0.00  0.00    +0.000 C 
ATOM      3  C   UNL     1       1.768   7.692  20.723  0.00  0.00    +0.000 C 
ATOM      4  C   UNL     1       2.044   6.867  19.457  0.00  0.00    +0.000 C 
ATOM      5  C   UNL     1       2.534   7.800  18.342  0.00  0.00    +0.000 C 
ATOM      6  C   UNL     1       1.517   8.906  18.052  0.00  0.00    +0.000 C 
ENDROOT
BRANCH   1   8
ATOM      7  C   UNL     1      -0.859  10.347  17.892  0.00  0.00    +0.000 C 
ATOM      8  N   UNL     1      -0.017  10.649  19.042  0.00  0.00    +0.000 N 
BRANCH   8   9
ATOM      9  C   UNL     1       0.041  11.965  19.520  0.00  0.00    +0.000 A 
ATOM     10  N   UNL     1       0.534  12.931  18.685  0.00  0.00    +0.000 NA
ATOM     11  C   UNL     1       0.578  14.219  19.073  0.00  0.00    +0.000 A 
ATOM     12  N   UNL     1       0.169  14.745  20.229  0.00  0.00    +0.000 NA
ATOM     13  C   UNL     1      -0.273  13.793  21.060  0.00  0.00    +0.000 A 
ATOM     14  N   UNL     1      -0.743  14.058  22.316  0.00  0.00    +0.000 N 
ATOM     15  C   UNL     1      -1.055  12.889  22.949  0.00  0.00    +0.000 A 
ATOM     16  C   UNL     1      -0.773  11.864  22.072  0.00  0.00    +0.000 A 
ATOM     17  C   UNL     1      -0.338  12.421  20.823  0.00  0.00    +0.000 A 
ATOM     18  H   UNL     1      -0.821  14.988  22.701  0.00  0.00    +0.000 HD
ENDBRANCH   8   9
ENDBRANCH   1   8
BRANCH   4  19
ATOM     19  C   UNL     1       3.039   5.750  19.803  0.00  0.00    +0.000 C 
BRANCH  19  20
ATOM     20  S   UNL     1       2.909   4.291  18.775  0.00  0.00    +0.000 S 
ATOM     21  O   UNL     1       3.268   3.125  19.544  0.00  0.00    +0.000 OA
ATOM     22  O   UNL     1       1.680   4.346  18.015  0.00  0.00    +0.000 OA
BRANCH  20  23
ATOM     23  N   UNL     1       4.156   4.577  17.681  0.00  0.00    +0.000 NA
ATOM     24  C   UNL     1       5.607   4.420  17.968  0.00  0.00    +0.000 C 
ATOM     25  C   UNL     1       5.872   4.195  16.472  0.00  0.00    +0.000 C 
ATOM     26  C   UNL     1       4.364   3.913  16.367  0.00  0.00    +0.000 C 
BRANCH  25  27
ATOM     27  S   UNL     1       6.392   5.634  15.554  0.00  0.00    +0.000 S 
ATOM     28  O   UNL     1       5.200   6.383  15.196  0.00  0.00    +0.000 OA
ATOM     29  O   UNL     1       7.484   6.301  16.240  0.00  0.00    +0.000 OA
BRANCH  27  30
ATOM     30  C   UNL     1       7.046   4.894  14.060  0.00  0.00    +0.000 C 
BRANCH  30  31
ATOM     31  C   UNL     1       6.105   3.796  13.662  0.00  0.00    +0.000 C 
ATOM     32  C   UNL     1       5.151   4.036  12.517  0.00  0.00    +0.000 C 
ATOM     33  C   UNL     1       6.284   3.061  12.358  0.00  0.00    +0.000 C 
ENDBRANCH  30  31
ENDBRANCH  27  30
ENDBRANCH  25  27
ENDBRANCH  20  23
ENDBRANCH  19  20
ENDBRANCH   4  19
TORSDOF 8
ENDMDL
MODEL 8
REMARK VINA RESULT:      -7.7      4.647      9.098
REMARK  Name = 
REMARK  9 active torsions:
REMARK  status: ('A' for Active; 'I' for Inactive)
REMARK    1  A    between atoms: C_1  and  N_2
REMARK    2  A    between atoms: N_2  and  C_3
REMARK    3  A    between atoms: N_2  and  C_12
REMARK    4  A    between atoms: C_15  and  C_16
REMARK    5  A    between atoms: C_16  and  S_17
REMARK    6  A    between atoms: S_17  and  N_20
REMARK    7  A    between atoms: C_22  and  S_23
REMARK    8  A    between atoms: S_23  and  C_26
REMARK    9  A    between atoms: C_26  and  C_27
REMARK                            x       y       z     vdW  Elec       q    Type
REMARK                         _______ _______ _______ _____ _____    ______ ____
ROOT
ATOM      1  C   UNL     1       2.107   9.712  18.915  0.00  0.00    +0.000 C 
ATOM      2  C   UNL     1       1.167   9.061  19.946  0.00  0.00    +0.000 C 
ATOM      3  C   UNL     1       1.596   7.658  20.370  0.00  0.00    +0.000 C 
ATOM      4  C   UNL     1       1.840   6.723  19.175  0.00  0.00    +0.000 C 
ATOM      5  C   UNL     1       2.885   7.354  18.245  0.00  0.00    +0.000 C 
ATOM      6  C   UNL     1       2.443   8.737  17.764  0.00  0.00    +0.000 C 
ENDROOT
BRANCH   1   8
ATOM      7  C   UNL     1       2.358  12.040  17.997  0.00  0.00    +0.000 C 
ATOM      8  N   UNL     1       1.468  10.969  18.427  0.00  0.00    +0.000 N 
BRANCH   8   9
ATOM      9  C   UNL     1       0.175  11.290  18.862  0.00  0.00    +0.000 A 
ATOM     10  N   UNL     1       0.048  12.089  19.965  0.00  0.00    +0.000 NA
ATOM     11  C   UNL     1      -1.167  12.462  20.408  0.00  0.00    +0.000 A 
ATOM     12  N   UNL     1      -2.360  12.166  19.888  0.00  0.00    +0.000 NA
ATOM     13  C   UNL     1      -2.235  11.349  18.835  0.00  0.00    +0.000 A 
ATOM     14  N   UNL     1      -3.303  10.883  18.120  0.00  0.00    +0.000 N 
ATOM     15  C   UNL     1      -2.872  10.021  17.154  0.00  0.00    +0.000 A 
ATOM     16  C   UNL     1      -1.501   9.940  17.263  0.00  0.00    +0.000 A 
ATOM     17  C   UNL     1      -1.058  10.841  18.288  0.00  0.00    +0.000 A 
ATOM     18  H   UNL     1      -4.261  11.140  18.312  0.00  0.00    +0.000 HD
ENDBRANCH   8   9
ENDBRANCH   1   8
BRANCH   4  19
ATOM     19  C   UNL     1       2.245   5.340  19.705  0.00  0.00    +0.000 C 
BRANCH  19  20
ATOM     20  S   UNL     1       2.319   4.058  18.459  0.00  0.00    +0.000 S 
ATOM     21  O   UNL     1       2.545   2.782  19.093  0.00  0.00    +0.000 OA
ATOM     22  O   UNL     1       1.249   4.249  17.506  0.00  0.00    +0.000 OA
BRANCH  20  23
ATOM     23  N   UNL     1       3.742   4.485  17.667  0.00  0.00    +0.000 NA
ATOM     24  C   UNL     1       5.108   4.407  18.248  0.00  0.00    +0.000 C 
ATOM     25  C   UNL     1       5.695   4.284  16.834  0.00  0.00    +0.000 C 
ATOM     26  C   UNL     1       4.268   3.911  16.400  0.00  0.00    +0.000 C 
BRANCH  25  27
ATOM     27  S   UNL     1       6.285   5.803  16.107  0.00  0.00    +0.000 S 
ATOM     28  O   UNL     1       7.616   5.554  15.582  0.00  0.00    +0.000 OA
ATOM     29  O   UNL     1       5.266   6.379  15.247  0.00  0.00    +0.000 OA
BRANCH  27  30
ATOM     30  C   UNL     1       6.450   6.854  17.549  0.00  0.00    +0.000 C 
BRANCH  30  31
ATOM     31  C   UNL     1       7.768   7.560  17.431  0.00  0.00    +0.000 C 
ATOM     32  C   UNL     1       7.812   9.055  17.634  0.00  0.00    +0.000 C 
ATOM     33  C   UNL     1       8.443   8.142  18.647  0.00  0.00    +0.000 C 
ENDBRANCH  30  31
ENDBRANCH  27  30
ENDBRANCH  25  27
ENDBRANCH  20  23
ENDBRANCH  19  20
ENDBRANCH   4  19
TORSDOF 8
ENDMDL
MODEL 9
REMARK VINA RESULT:      -7.7      3.381      5.086
REMARK  Name = 
REMARK  9 active torsions:
REMARK  status: ('A' for Active; 'I' for Inactive)
REMARK    1  A    between atoms: C_1  and  N_2
REMARK    2  A    between atoms: N_2  and  C_3
REMARK    3  A    between atoms: N_2  and  C_12
REMARK    4  A    between atoms: C_15  and  C_16
REMARK    5  A    between atoms: C_16  and  S_17
REMARK    6  A    between atoms: S_17  and  N_20
REMARK    7  A    between atoms: C_22  and  S_23
REMARK    8  A    between atoms: S_23  and  C_26
REMARK    9  A    between atoms: C_26  and  C_27
REMARK                            x       y       z     vdW  Elec       q    Type
REMARK                         _______ _______ _______ _____ _____    ______ ____
ROOT
ATOM      1  C   UNL     1       2.249   7.271  18.549  0.00  0.00    +0.000 C 
ATOM      2  C   UNL     1       2.132   7.438  20.075  0.00  0.00    +0.000 C 
ATOM      3  C   UNL     1       0.937   8.283  20.511  0.00  0.00    +0.000 C 
ATOM      4  C   UNL     1       0.878   9.643  19.799  0.00  0.00    +0.000 C 
ATOM      5  C   UNL     1       0.860   9.419  18.281  0.00  0.00    +0.000 C 
ATOM      6  C   UNL     1       2.082   8.622  17.819  0.00  0.00    +0.000 C 
ENDROOT
BRANCH   1   8
ATOM      7  C   UNL     1       4.319   7.151  17.126  0.00  0.00    +0.000 C 
ATOM      8  N   UNL     1       3.558   6.620  18.249  0.00  0.00    +0.000 N 
BRANCH   8   9
ATOM      9  C   UNL     1       3.766   5.292  18.648  0.00  0.00    +0.000 A 
ATOM     10  N   UNL     1       5.016   4.940  19.081  0.00  0.00    +0.000 NA
ATOM     11  C   UNL     1       5.267   3.691  19.513  0.00  0.00    +0.000 A 
ATOM     12  N   UNL     1       4.417   2.666  19.609  0.00  0.00    +0.000 NA
ATOM     13  C   UNL     1       3.207   3.001  19.145  0.00  0.00    +0.000 A 
ATOM     14  N   UNL     1       2.151   2.134  19.120  0.00  0.00    +0.000 N 
ATOM     15  C   UNL     1       1.074   2.733  18.531  0.00  0.00    +0.000 A 
ATOM     16  C   UNL     1       1.462   4.007  18.176  0.00  0.00    +0.000 A 
ATOM     17  C   UNL     1       2.806   4.231  18.626  0.00  0.00    +0.000 A 
ATOM     18  H   UNL     1       2.193   1.189  19.473  0.00  0.00    +0.000 HD
ENDBRANCH   8   9
ENDBRANCH   1   8
BRANCH   4  19
ATOM     19  C   UNL     1      -0.340  10.420  20.318  0.00  0.00    +0.000 C 
BRANCH  19  20
ATOM     20  S   UNL     1      -0.048  12.164  20.597  0.00  0.00    +0.000 S 
ATOM     21  O   UNL     1       1.142  12.332  21.395  0.00  0.00    +0.000 OA
ATOM     22  O   UNL     1      -0.236  12.887  19.359  0.00  0.00    +0.000 OA
BRANCH  20  23
ATOM     23  N   UNL     1      -1.367  12.541  21.572  0.00  0.00    +0.000 NA
ATOM     24  C   UNL     1      -1.358  12.575  23.059  0.00  0.00    +0.000 C 
ATOM     25  C   UNL     1      -2.532  13.564  23.037  0.00  0.00    +0.000 C 
ATOM     26  C   UNL     1      -2.151  13.805  21.567  0.00  0.00    +0.000 C 
BRANCH  25  27
ATOM     27  S   UNL     1      -4.152  12.844  23.242  0.00  0.00    +0.000 S 
ATOM     28  O   UNL     1      -4.606  12.399  21.935  0.00  0.00    +0.000 OA
ATOM     29  O   UNL     1      -4.154  11.917  24.360  0.00  0.00    +0.000 OA
BRANCH  27  30
ATOM     30  C   UNL     1      -5.128  14.273  23.706  0.00  0.00    +0.000 C 
BRANCH  30  31
ATOM     31  C   UNL     1      -6.537  14.005  23.266  0.00  0.00    +0.000 C 
ATOM     32  C   UNL     1      -7.569  13.650  24.309  0.00  0.00    +0.000 C 
ATOM     33  C   UNL     1      -7.645  14.973  23.599  0.00  0.00    +0.000 C 
ENDBRANCH  30  31
ENDBRANCH  27  30
ENDBRANCH  25  27
ENDBRANCH  20  23
ENDBRANCH  19  20
ENDBRANCH   4  19
TORSDOF 8
ENDMDL
