MODEL 1
REMARK VINA RESULT:      -7.8      0.000      0.000
REMARK  Name = 
REMARK  4 active torsions:
REMARK  status: ('A' for Active; 'I' for Inactive)
REMARK    1  A    between atoms: C_2  and  C_3
REMARK    2  A    between atoms: C_8  and  C_10
REMARK    3  A    between atoms: N_16  and  C_17
REMARK    4  A    between atoms: C_17  and  C_18
REMARK                            x       y       z     vdW  Elec       q    Type
REMARK                         _______ _______ _______ _____ _____    ______ ____
ROOT
ATOM      1  C   UNL     1       2.966   5.206  18.265  0.00  0.00    +0.000 C 
ATOM      2  C   UNL     1       2.186   3.867  18.447  0.00  0.00    +0.000 C 
ATOM      3  C   UNL     1       1.246   3.798  19.645  0.00  0.00    +0.000 C 
ATOM      4  C   UNL     1       1.048   4.808  20.512  0.00  0.00    +0.000 C 
ATOM      5  C   UNL     1       1.760   6.112  20.336  0.00  0.00    +0.000 C 
ATOM      6  C   UNL     1       1.034   7.413  20.653  0.00  0.00    +0.000 C 
ATOM      7  N   UNL     1       1.728   8.376  19.812  0.00  0.00    +0.000 N 
ATOM      8  C   UNL     1       2.452   7.761  18.784  0.00  0.00    +0.000 C 
ATOM      9  O   UNL     1       3.108   8.290  17.903  0.00  0.00    +0.000 OA
ATOM     10  C   UNL     1       2.088   6.304  18.851  0.00  0.00    +0.000 C 
ENDROOT
BRANCH   1  16
ATOM     11  C   UNL     1       5.559   6.552  17.198  0.00  0.00    +0.000 C 
ATOM     12  C   UNL     1       6.956   7.181  17.384  0.00  0.00    +0.000 C 
ATOM     13  C   UNL     1       7.756   6.067  18.055  0.00  0.00    +0.000 C 
ATOM     14  C   UNL     1       6.736   5.498  19.021  0.00  0.00    +0.000 C 
ATOM     15  N   UNL     1       5.456   5.617  18.333  0.00  0.00    +0.000 N 
ATOM     16  C   UNL     1       4.337   5.088  18.939  0.00  0.00    +0.000 C 
ATOM     17  O   UNL     1       4.460   4.488  20.009  0.00  0.00    +0.000 OA
BRANCH  11  19
ATOM     18  N   UNL     1       5.455   5.326  14.858  0.00  0.00    +0.000 NA
ATOM     19  C   UNL     1       5.494   5.881  15.873  0.00  0.00    +0.000 C 
ENDBRANCH  11  19
ENDBRANCH   1  16
BRANCH   7  20
ATOM     20  C   UNL     1       1.378   9.784  19.824  0.00  0.00    +0.000 C 
BRANCH  20  21
ATOM     21  C   UNL     1       0.034  10.096  19.218  0.00  0.00    +0.000 A 
ATOM     22  C   UNL     1      -0.877  10.925  19.890  0.00  0.00    +0.000 A 
ATOM     23  C   UNL     1      -2.078  11.297  19.283  0.00  0.00    +0.000 A 
ATOM     24  C   UNL     1      -2.380  10.854  17.997  0.00  0.00    +0.000 A 
ATOM     25  C   UNL     1      -1.486  10.027  17.321  0.00  0.00    +0.000 A 
ATOM     26  C   UNL     1      -0.288   9.646  17.927  0.00  0.00    +0.000 A 
ENDBRANCH  20  21
ENDBRANCH   7  20
TORSDOF 4
ENDMDL
MODEL 2
REMARK VINA RESULT:      -7.8      1.511      2.100
REMARK  Name = 
REMARK  4 active torsions:
REMARK  status: ('A' for Active; 'I' for Inactive)
REMARK    1  A    between atoms: C_2  and  C_3
REMARK    2  A    between atoms: C_8  and  C_10
REMARK    3  A    between atoms: N_16  and  C_17
REMARK    4  A    between atoms: C_17  and  C_18
REMARK                            x       y       z     vdW  Elec       q    Type
REMARK                         _______ _______ _______ _____ _____    ______ ____
ROOT
ATOM      1  C   UNL     1       2.907   4.435  18.002  0.00  0.00    +0.000 C 
ATOM      2  C   UNL     1       2.048   3.143  18.172  0.00  0.00    +0.000 C 
ATOM      3  C   UNL     1       1.157   3.091  19.408  0.00  0.00    +0.000 C 
ATOM      4  C   UNL     1       1.063   4.078  20.317  0.00  0.00    +0.000 C 
ATOM      5  C   UNL     1       1.852   5.339  20.154  0.00  0.00    +0.000 C 
ATOM      6  C   UNL     1       1.228   6.672  20.548  0.00  0.00    +0.000 C 
ATOM      7  N   UNL     1       1.948   7.619  19.710  0.00  0.00    +0.000 N 
ATOM      8  C   UNL     1       2.585   6.997  18.630  0.00  0.00    +0.000 C 
ATOM      9  O   UNL     1       3.237   7.514  17.740  0.00  0.00    +0.000 OA
ATOM     10  C   UNL     1       2.129   5.565  18.663  0.00  0.00    +0.000 C 
ENDROOT
BRANCH   1  16
ATOM     11  C   UNL     1       5.547   5.563  16.806  0.00  0.00    +0.000 C 
ATOM     12  C   UNL     1       6.999   6.075  16.923  0.00  0.00    +0.000 C 
ATOM     13  C   UNL     1       7.735   4.897  17.558  0.00  0.00    +0.000 C 
ATOM     14  C   UNL     1       6.720   4.414  18.574  0.00  0.00    +0.000 C 
ATOM     15  N   UNL     1       5.423   4.639  17.948  0.00  0.00    +0.000 N 
ATOM     16  C   UNL     1       4.295   4.204  18.609  0.00  0.00    +0.000 C 
ATOM     17  O   UNL     1       4.419   3.594  19.674  0.00  0.00    +0.000 OA
BRANCH  11  19
ATOM     18  N   UNL     1       5.255   4.399  14.451  0.00  0.00    +0.000 NA
ATOM     19  C   UNL     1       5.363   4.901  15.488  0.00  0.00    +0.000 C 
ENDBRANCH  11  19
ENDBRANCH   1  16
BRANCH   7  20
ATOM     20  C   UNL     1       1.694   9.045  19.786  0.00  0.00    +0.000 C 
BRANCH  20  21
ATOM     21  C   UNL     1       0.773   9.453  20.907  0.00  0.00    +0.000 A 
ATOM     22  C   UNL     1       1.010   9.020  22.219  0.00  0.00    +0.000 A 
ATOM     23  C   UNL     1       0.219   9.481  23.273  0.00  0.00    +0.000 A 
ATOM     24  C   UNL     1      -0.813  10.386  23.031  0.00  0.00    +0.000 A 
ATOM     25  C   UNL     1      -1.062  10.821  21.731  0.00  0.00    +0.000 A 
ATOM     26  C   UNL     1      -0.277  10.356  20.674  0.00  0.00    +0.000 A 
ENDBRANCH  20  21
ENDBRANCH   7  20
TORSDOF 4
ENDMDL
MODEL 3
REMARK VINA RESULT:      -7.7      0.791      1.232
REMARK  Name = 
REMARK  4 active torsions:
REMARK  status: ('A' for Active; 'I' for Inactive)
REMARK    1  A    between atoms: C_2  and  C_3
REMARK    2  A    between atoms: C_8  and  C_10
REMARK    3  A    between atoms: N_16  and  C_17
REMARK    4  A    between atoms: C_17  and  C_18
REMARK                            x       y       z     vdW  Elec       q    Type
REMARK                         _______ _______ _______ _____ _____    ______ ____
ROOT
ATOM      1  C   UNL     1       2.857   4.663  17.995  0.00  0.00    +0.000 C 
ATOM      2  C   UNL     1       1.945   3.403  18.124  0.00  0.00    +0.000 C 
ATOM      3  C   UNL     1       1.054   3.346  19.359  0.00  0.00    +0.000 C 
ATOM      4  C   UNL     1       1.002   4.305  20.301  0.00  0.00    +0.000 C 
ATOM      5  C   UNL     1       1.842   5.537  20.179  0.00  0.00    +0.000 C 
ATOM      6  C   UNL     1       1.274   6.881  20.619  0.00  0.00    +0.000 C 
ATOM      7  N   UNL     1       2.032   7.825  19.811  0.00  0.00    +0.000 N 
ATOM      8  C   UNL     1       2.642   7.213  18.710  0.00  0.00    +0.000 C 
ATOM      9  O   UNL     1       3.314   7.733  17.836  0.00  0.00    +0.000 OA
ATOM     10  C   UNL     1       2.127   5.801  18.696  0.00  0.00    +0.000 C 
ENDROOT
BRANCH   1  16
ATOM     11  C   UNL     1       5.546   5.639  16.776  0.00  0.00    +0.000 C 
ATOM     12  C   UNL     1       7.025   6.068  16.880  0.00  0.00    +0.000 C 
ATOM     13  C   UNL     1       7.699   4.851  17.510  0.00  0.00    +0.000 C 
ATOM     14  C   UNL     1       6.667   4.427  18.536  0.00  0.00    +0.000 C 
ATOM     15  N   UNL     1       5.379   4.724  17.920  0.00  0.00    +0.000 N 
ATOM     16  C   UNL     1       4.234   4.354  18.591  0.00  0.00    +0.000 C 
ATOM     17  O   UNL     1       4.332   3.740  19.655  0.00  0.00    +0.000 OA
BRANCH  11  19
ATOM     18  N   UNL     1       5.166   4.462  14.441  0.00  0.00    +0.000 NA
ATOM     19  C   UNL     1       5.314   4.988  15.461  0.00  0.00    +0.000 C 
ENDBRANCH  11  19
ENDBRANCH   1  16
BRANCH   7  20
ATOM     20  C   UNL     1       1.837   9.257  19.936  0.00  0.00    +0.000 C 
BRANCH  20  21
ATOM     21  C   UNL     1       0.557   9.766  19.324  0.00  0.00    +0.000 A 
ATOM     22  C   UNL     1       0.241   9.477  17.988  0.00  0.00    +0.000 A 
ATOM     23  C   UNL     1      -0.991   9.860  17.453  0.00  0.00    +0.000 A 
ATOM     24  C   UNL     1      -1.923  10.527  18.245  0.00  0.00    +0.000 A 
ATOM     25  C   UNL     1      -1.618  10.824  19.572  0.00  0.00    +0.000 A 
ATOM     26  C   UNL     1      -0.385  10.450  20.108  0.00  0.00    +0.000 A 
ENDBRANCH  20  21
ENDBRANCH   7  20
TORSDOF 4
ENDMDL
MODEL 4
REMARK VINA RESULT:      -7.5      1.323      1.999
REMARK  Name = 
REMARK  4 active torsions:
REMARK  status: ('A' for Active; 'I' for Inactive)
REMARK    1  A    between atoms: C_2  and  C_3
REMARK    2  A    between atoms: C_8  and  C_10
REMARK    3  A    between atoms: N_16  and  C_17
REMARK    4  A    between atoms: C_17  and  C_18
REMARK                            x       y       z     vdW  Elec       q    Type
REMARK                         _______ _______ _______ _____ _____    ______ ____
ROOT
ATOM      1  C   UNL     1       3.053   4.781  18.249  0.00  0.00    +0.000 C 
ATOM      2  C   UNL     1       2.283   3.439  18.444  0.00  0.00    +0.000 C 
ATOM      3  C   UNL     1       1.350   3.372  19.648  0.00  0.00    +0.000 C 
ATOM      4  C   UNL     1       1.150   4.386  20.509  0.00  0.00    +0.000 C 
ATOM      5  C   UNL     1       1.852   5.694  20.319  0.00  0.00    +0.000 C 
ATOM      6  C   UNL     1       1.119   6.993  20.631  0.00  0.00    +0.000 C 
ATOM      7  N   UNL     1       1.801   7.954  19.779  0.00  0.00    +0.000 N 
ATOM      8  C   UNL     1       2.524   7.337  18.751  0.00  0.00    +0.000 C 
ATOM      9  O   UNL     1       3.171   7.864  17.863  0.00  0.00    +0.000 OA
ATOM     10  C   UNL     1       2.171   5.878  18.831  0.00  0.00    +0.000 C 
ENDROOT
BRANCH   1  16
ATOM     11  C   UNL     1       5.590   6.287  17.264  0.00  0.00    +0.000 C 
ATOM     12  C   UNL     1       6.961   6.959  17.488  0.00  0.00    +0.000 C 
ATOM     13  C   UNL     1       7.805   5.839  18.093  0.00  0.00    +0.000 C 
ATOM     14  C   UNL     1       6.810   5.176  19.023  0.00  0.00    +0.000 C 
ATOM     15  N   UNL     1       5.525   5.285  18.342  0.00  0.00    +0.000 N 
ATOM     16  C   UNL     1       4.429   4.678  18.915  0.00  0.00    +0.000 C 
ATOM     17  O   UNL     1       4.576   4.021  19.948  0.00  0.00    +0.000 OA
BRANCH  11  19
ATOM     18  N   UNL     1       5.493   5.261  14.830  0.00  0.00    +0.000 NA
ATOM     19  C   UNL     1       5.549   5.694  15.902  0.00  0.00    +0.000 C 
ENDBRANCH  11  19
ENDBRANCH   1  16
BRANCH   7  20
ATOM     20  C   UNL     1       1.442   9.360  19.783  0.00  0.00    +0.000 C 
BRANCH  20  21
ATOM     21  C   UNL     1       0.650   9.796  20.989  0.00  0.00    +0.000 A 
ATOM     22  C   UNL     1      -0.394  10.723  20.859  0.00  0.00    +0.000 A 
ATOM     23  C   UNL     1      -1.194  11.048  21.957  0.00  0.00    +0.000 A 
ATOM     24  C   UNL     1      -0.967  10.446  23.192  0.00  0.00    +0.000 A 
ATOM     25  C   UNL     1       0.070   9.527  23.335  0.00  0.00    +0.000 A 
ATOM     26  C   UNL     1       0.877   9.205  22.242  0.00  0.00    +0.000 A 
ENDBRANCH  20  21
ENDBRANCH   7  20
TORSDOF 4
ENDMDL
MODEL 5
REMARK VINA RESULT:      -7.1      2.844      7.165
REMARK  Name = 
REMARK  4 active torsions:
REMARK  status: ('A' for Active; 'I' for Inactive)
REMARK    1  A    between atoms: C_2  and  C_3
REMARK    2  A    between atoms: C_8  and  C_10
REMARK    3  A    between atoms: N_16  and  C_17
REMARK    4  A    between atoms: C_17  and  C_18
REMARK                            x       y       z     vdW  Elec       q    Type
REMARK                         _______ _______ _______ _____ _____    ______ ____
ROOT
ATOM      1  C   UNL     1       2.267   5.749  18.020  0.00  0.00    +0.000 C 
ATOM      2  C   UNL     1       1.500   7.078  17.739  0.00  0.00    +0.000 C 
ATOM      3  C   UNL     1       2.363   8.312  17.506  0.00  0.00    +0.000 C 
ATOM      4  C   UNL     1       3.709   8.308  17.511  0.00  0.00    +0.000 C 
ATOM      5  C   UNL     1       4.464   7.037  17.744  0.00  0.00    +0.000 C 
ATOM      6  C   UNL     1       5.754   6.778  16.975  0.00  0.00    +0.000 C 
ATOM      7  N   UNL     1       5.828   5.325  16.961  0.00  0.00    +0.000 N 
ATOM      8  C   UNL     1       4.594   4.727  17.243  0.00  0.00    +0.000 C 
ATOM      9  O   UNL     1       4.323   3.539  17.276  0.00  0.00    +0.000 OA
ATOM     10  C   UNL     1       3.601   5.854  17.292  0.00  0.00    +0.000 C 
ENDROOT
BRANCH   1  16
ATOM     11  C   UNL     1       2.444   2.975  19.416  0.00  0.00    +0.000 C 
ATOM     12  C   UNL     1       2.902   2.037  20.553  0.00  0.00    +0.000 C 
ATOM     13  C   UNL     1       2.297   2.678  21.800  0.00  0.00    +0.000 C 
ATOM     14  C   UNL     1       2.511   4.152  21.522  0.00  0.00    +0.000 C 
ATOM     15  N   UNL     1       2.355   4.289  20.078  0.00  0.00    +0.000 N 
ATOM     16  C   UNL     1       2.405   5.554  19.534  0.00  0.00    +0.000 C 
ATOM     17  O   UNL     1       2.523   6.527  20.282  0.00  0.00    +0.000 OA
BRANCH  11  19
ATOM     18  N   UNL     1       0.153   2.101  18.431  0.00  0.00    +0.000 NA
ATOM     19  C   UNL     1       1.145   2.497  18.876  0.00  0.00    +0.000 C 
ENDBRANCH  11  19
ENDBRANCH   1  16
BRANCH   7  20
ATOM     20  C   UNL     1       6.943   4.629  16.350  0.00  0.00    +0.000 C 
BRANCH  20  21
ATOM     21  C   UNL     1       6.889   4.569  14.844  0.00  0.00    +0.000 A 
ATOM     22  C   UNL     1       7.753   5.353  14.067  0.00  0.00    +0.000 A 
ATOM     23  C   UNL     1       7.774   5.220  12.678  0.00  0.00    +0.000 A 
ATOM     24  C   UNL     1       6.939   4.300  12.048  0.00  0.00    +0.000 A 
ATOM     25  C   UNL     1       6.071   3.519  12.809  0.00  0.00    +0.000 A 
ATOM     26  C   UNL     1       6.043   3.653  14.198  0.00  0.00    +0.000 A 
ENDBRANCH  20  21
ENDBRANCH   7  20
TORSDOF 4
ENDMDL
MODEL 6
REMARK VINA RESULT:      -7.0      1.522      2.190
REMARK  Name = 
REMARK  4 active torsions:
REMARK  status: ('A' for Active; 'I' for Inactive)
REMARK    1  A    between atoms: C_2  and  C_3
REMARK    2  A    between atoms: C_8  and  C_10
REMARK    3  A    between atoms: N_16  and  C_17
REMARK    4  A    between atoms: C_17  and  C_18
REMARK                            x       y       z     vdW  Elec       q    Type
REMARK                         _______ _______ _______ _____ _____    ______ ____
ROOT
ATOM      1  C   UNL     1       3.919   4.448  17.722  0.00  0.00    +0.000 C 
ATOM      2  C   UNL     1       3.250   3.042  17.622  0.00  0.00    +0.000 C 
ATOM      3  C   UNL     1       2.039   2.812  18.519  0.00  0.00    +0.000 C 
ATOM      4  C   UNL     1       1.524   3.737  19.349  0.00  0.00    +0.000 C 
ATOM      5  C   UNL     1       2.130   5.103  19.434  0.00  0.00    +0.000 C 
ATOM      6  C   UNL     1       1.225   6.316  19.608  0.00  0.00    +0.000 C 
ATOM      7  N   UNL     1       2.020   7.390  19.032  0.00  0.00    +0.000 N 
ATOM      8  C   UNL     1       3.044   6.910  18.207  0.00  0.00    +0.000 C 
ATOM      9  O   UNL     1       3.854   7.552  17.562  0.00  0.00    +0.000 OA
ATOM     10  C   UNL     1       2.817   5.428  18.103  0.00  0.00    +0.000 C 
ENDROOT
BRANCH   1  16
ATOM     11  C   UNL     1       6.470   6.220  17.567  0.00  0.00    +0.000 C 
ATOM     12  C   UNL     1       7.661   6.971  18.200  0.00  0.00    +0.000 C 
ATOM     13  C   UNL     1       8.415   5.870  18.941  0.00  0.00    +0.000 C 
ATOM     14  C   UNL     1       7.276   5.055  19.520  0.00  0.00    +0.000 C 
ATOM     15  N   UNL     1       6.216   5.126  18.521  0.00  0.00    +0.000 N 
ATOM     16  C   UNL     1       5.069   4.391  18.732  0.00  0.00    +0.000 C 
ATOM     17  O   UNL     1       4.997   3.660  19.723  0.00  0.00    +0.000 OA
BRANCH  11  19
ATOM     18  N   UNL     1       7.179   5.357  15.171  0.00  0.00    +0.000 NA
ATOM     19  C   UNL     1       6.851   5.746  16.211  0.00  0.00    +0.000 C 
ENDBRANCH  11  19
ENDBRANCH   1  16
BRANCH   7  20
ATOM     20  C   UNL     1       1.546   8.761  19.018  0.00  0.00    +0.000 C 
BRANCH  20  21
ATOM     21  C   UNL     1       0.876   9.200  20.295  0.00  0.00    +0.000 A 
ATOM     22  C   UNL     1       1.322   8.723  21.536  0.00  0.00    +0.000 A 
ATOM     23  C   UNL     1       0.770   9.209  22.723  0.00  0.00    +0.000 A 
ATOM     24  C   UNL     1      -0.229  10.180  22.685  0.00  0.00    +0.000 A 
ATOM     25  C   UNL     1      -0.685  10.658  21.458  0.00  0.00    +0.000 A 
ATOM     26  C   UNL     1      -0.139  10.169  20.270  0.00  0.00    +0.000 A 
ENDBRANCH  20  21
ENDBRANCH   7  20
TORSDOF 4
ENDMDL
MODEL 7
REMARK VINA RESULT:      -7.0      2.150      4.165
REMARK  Name = 
REMARK  4 active torsions:
REMARK  status: ('A' for Active; 'I' for Inactive)
REMARK    1  A    between atoms: C_2  and  C_3
REMARK    2  A    between atoms: C_8  and  C_10
REMARK    3  A    between atoms: N_16  and  C_17
REMARK    4  A    between atoms: C_17  and  C_18
REMARK                            x       y       z     vdW  Elec       q    Type
REMARK                         _______ _______ _______ _____ _____    ______ ____
ROOT
ATOM      1  C   UNL     1       3.328   5.921  19.151  0.00  0.00    +0.000 C 
ATOM      2  C   UNL     1       4.638   5.762  18.319  0.00  0.00    +0.000 C 
ATOM      3  C   UNL     1       4.821   6.742  17.166  0.00  0.00    +0.000 C 
ATOM      4  C   UNL     1       3.948   7.717  16.854  0.00  0.00    +0.000 C 
ATOM      5  C   UNL     1       2.703   7.909  17.661  0.00  0.00    +0.000 C 
ATOM      6  C   UNL     1       2.196   9.319  17.936  0.00  0.00    +0.000 C 
ATOM      7  N   UNL     1       1.446   9.151  19.172  0.00  0.00    +0.000 N 
ATOM      8  C   UNL     1       1.784   7.971  19.843  0.00  0.00    +0.000 C 
ATOM      9  O   UNL     1       1.359   7.562  20.910  0.00  0.00    +0.000 OA
ATOM     10  C   UNL     1       2.947   7.394  19.084  0.00  0.00    +0.000 C 
ENDROOT
BRANCH   1  16
ATOM     11  C   UNL     1       2.493   3.237  20.481  0.00  0.00    +0.000 C 
ATOM     12  C   UNL     1       1.478   2.117  20.795  0.00  0.00    +0.000 C 
ATOM     13  C   UNL     1       1.078   1.610  19.412  0.00  0.00    +0.000 C 
ATOM     14  C   UNL     1       0.988   2.902  18.626  0.00  0.00    +0.000 C 
ATOM     15  N   UNL     1       2.033   3.754  19.180  0.00  0.00    +0.000 N 
ATOM     16  C   UNL     1       2.255   4.981  18.593  0.00  0.00    +0.000 C 
ATOM     17  O   UNL     1       1.608   5.294  17.591  0.00  0.00    +0.000 OA
BRANCH  11  19
ATOM     18  N   UNL     1       4.922   2.201  20.366  0.00  0.00    +0.000 NA
ATOM     19  C   UNL     1       3.863   2.661  20.437  0.00  0.00    +0.000 C 
ENDBRANCH  11  19
ENDBRANCH   1  16
BRANCH   7  20
ATOM     20  C   UNL     1       0.745  10.260  19.790  0.00  0.00    +0.000 C 
BRANCH  20  21
ATOM     21  C   UNL     1      -0.543  10.642  19.105  0.00  0.00    +0.000 A 
ATOM     22  C   UNL     1      -0.985   9.939  17.975  0.00  0.00    +0.000 A 
ATOM     23  C   UNL     1      -2.226  10.225  17.404  0.00  0.00    +0.000 A 
ATOM     24  C   UNL     1      -3.044  11.208  17.957  0.00  0.00    +0.000 A 
ATOM     25  C   UNL     1      -2.613  11.917  19.077  0.00  0.00    +0.000 A 
ATOM     26  C   UNL     1      -1.370  11.639  19.647  0.00  0.00    +0.000 A 
ENDBRANCH  20  21
ENDBRANCH   7  20
TORSDOF 4
ENDMDL
MODEL 8
REMARK VINA RESULT:      -7.0      0.880      1.043
REMARK  Name = 
REMARK  4 active torsions:
REMARK  status: ('A' for Active; 'I' for Inactive)
REMARK    1  A    between atoms: C_2  and  C_3
REMARK    2  A    between atoms: C_8  and  C_10
REMARK    3  A    between atoms: N_16  and  C_17
REMARK    4  A    between atoms: C_17  and  C_18
REMARK                            x       y       z     vdW  Elec       q    Type
REMARK                         _______ _______ _______ _____ _____    ______ ____
ROOT
ATOM      1  C   UNL     1       2.824   5.171  18.111  0.00  0.00    +0.000 C 
ATOM      2  C   UNL     1       2.005   3.859  17.905  0.00  0.00    +0.000 C 
ATOM      3  C   UNL     1       1.092   3.453  19.056  0.00  0.00    +0.000 C 
ATOM      4  C   UNL     1       0.946   4.158  20.193  0.00  0.00    +0.000 C 
ATOM      5  C   UNL     1       1.696   5.437  20.395  0.00  0.00    +0.000 C 
ATOM      6  C   UNL     1       1.019   6.599  21.112  0.00  0.00    +0.000 C 
ATOM      7  N   UNL     1       1.724   7.755  20.578  0.00  0.00    +0.000 N 
ATOM      8  C   UNL     1       2.404   7.462  19.390  0.00  0.00    +0.000 C 
ATOM      9  O   UNL     1       3.056   8.216  18.689  0.00  0.00    +0.000 OA
ATOM     10  C   UNL     1       1.995   6.061  19.027  0.00  0.00    +0.000 C 
ENDROOT
BRANCH   1  16
ATOM     11  C   UNL     1       5.451   6.637  17.322  0.00  0.00    +0.000 C 
ATOM     12  C   UNL     1       6.884   7.136  17.607  0.00  0.00    +0.000 C 
ATOM     13  C   UNL     1       7.643   5.852  17.932  0.00  0.00    +0.000 C 
ATOM     14  C   UNL     1       6.624   5.094  18.760  0.00  0.00    +0.000 C 
ATOM     15  N   UNL     1       5.333   5.444  18.179  0.00  0.00    +0.000 N 
ATOM     16  C   UNL     1       4.206   4.823  18.673  0.00  0.00    +0.000 C 
ATOM     17  O   UNL     1       4.328   3.960  19.545  0.00  0.00    +0.000 OA
BRANCH  11  19
ATOM     18  N   UNL     1       5.244   6.109  14.740  0.00  0.00    +0.000 NA
ATOM     19  C   UNL     1       5.313   6.339  15.873  0.00  0.00    +0.000 C 
ENDBRANCH  11  19
ENDBRANCH   1  16
BRANCH   7  20
ATOM     20  C   UNL     1       1.421   9.101  21.025  0.00  0.00    +0.000 C 
BRANCH  20  21
ATOM     21  C   UNL     1       0.574   9.898  20.066  0.00  0.00    +0.000 A 
ATOM     22  C   UNL     1       1.086  11.049  19.450  0.00  0.00    +0.000 A 
ATOM     23  C   UNL     1       0.339  11.728  18.484  0.00  0.00    +0.000 A 
ATOM     24  C   UNL     1      -0.921  11.262  18.117  0.00  0.00    +0.000 A 
ATOM     25  C   UNL     1      -1.443  10.123  18.726  0.00  0.00    +0.000 A 
ATOM     26  C   UNL     1      -0.703   9.445  19.696  0.00  0.00    +0.000 A 
ENDBRANCH  20  21
ENDBRANCH   7  20
TORSDOF 4
ENDMDL
MODEL 9
REMARK VINA RESULT:      -6.7      2.209      4.606
REMARK  Name = 
REMARK  4 active torsions:
REMARK  status: ('A' for Active; 'I' for Inactive)
REMARK    1  A    between atoms: C_2  and  C_3
REMARK    2  A    between atoms: C_8  and  C_10
REMARK    3  A    between atoms: N_16  and  C_17
REMARK    4  A    between atoms: C_17  and  C_18
REMARK                            x       y       z     vdW  Elec       q    Type
REMARK                         _______ _______ _______ _____ _____    ______ ____
ROOT
ATOM      1  C   UNL     1       4.489   5.220  19.282  0.00  0.00    +0.000 C 
ATOM      2  C   UNL     1       6.045   5.330  19.236  0.00  0.00    +0.000 C 
ATOM      3  C   UNL     1       6.619   6.241  18.158  0.00  0.00    +0.000 C 
ATOM      4  C   UNL     1       5.875   6.947  17.287  0.00  0.00    +0.000 C 
ATOM      5  C   UNL     1       4.381   6.882  17.337  0.00  0.00    +0.000 C 
ATOM      6  C   UNL     1       3.565   8.140  17.064  0.00  0.00    +0.000 C 
ATOM      7  N   UNL     1       2.329   7.880  17.787  0.00  0.00    +0.000 N 
ATOM      8  C   UNL     1       2.476   6.869  18.744  0.00  0.00    +0.000 C 
ATOM      9  O   UNL     1       1.642   6.444  19.525  0.00  0.00    +0.000 OA
ATOM     10  C   UNL     1       3.943   6.545  18.767  0.00  0.00    +0.000 C 
ENDROOT
BRANCH   1  16
ATOM     11  C   UNL     1       1.842   3.659  19.764  0.00  0.00    +0.000 C 
ATOM     12  C   UNL     1       0.653   2.794  19.294  0.00  0.00    +0.000 C 
ATOM     13  C   UNL     1       1.331   1.557  18.710  0.00  0.00    +0.000 C 
ATOM     14  C   UNL     1       2.517   2.167  17.992  0.00  0.00    +0.000 C 
ATOM     15  N   UNL     1       2.914   3.302  18.818  0.00  0.00    +0.000 N 
ATOM     16  C   UNL     1       4.043   4.007  18.459  0.00  0.00    +0.000 C 
ATOM     17  O   UNL     1       4.707   3.627  17.493  0.00  0.00    +0.000 OA
BRANCH  11  19
ATOM     18  N   UNL     1       2.385   3.085  22.286  0.00  0.00    +0.000 NA
ATOM     19  C   UNL     1       2.165   3.326  21.176  0.00  0.00    +0.000 C 
ENDBRANCH  11  19
ENDBRANCH   1  16
BRANCH   7  20
ATOM     20  C   UNL     1       1.227   8.822  17.769  0.00  0.00    +0.000 C 
BRANCH  20  21
ATOM     21  C   UNL     1       1.367   9.961  18.747  0.00  0.00    +0.000 A 
ATOM     22  C   UNL     1       1.910  11.188  18.340  0.00  0.00    +0.000 A 
ATOM     23  C   UNL     1       1.945  12.274  19.216  0.00  0.00    +0.000 A 
ATOM     24  C   UNL     1       1.431  12.151  20.506  0.00  0.00    +0.000 A 
ATOM     25  C   UNL     1       0.893  10.936  20.924  0.00  0.00    +0.000 A 
ATOM     26  C   UNL     1       0.864   9.846  20.052  0.00  0.00    +0.000 A 
ENDBRANCH  20  21
ENDBRANCH   7  20
TORSDOF 4
ENDMDL
