MODEL 1
REMARK VINA RESULT:      -6.8      0.000      0.000
REMARK  Name = 
REMARK  14 active torsions:
REMARK  status: ('A' for Active; 'I' for Inactive)
REMARK    1  A    between atoms: C_1  and  C_2
REMARK    2  A    between atoms: N_4  and  C_5
REMARK    3  A    between atoms: C_6  and  O_7
REMARK    4  A    between atoms: O_7  and  C_8
REMARK    5  A    between atoms: C_15  and  C_16
REMARK    6  A    between atoms: C_16  and  O_17
REMARK    7  A    between atoms: O_17  and  C_18
REMARK    8  A    between atoms: C_18  and  C_19
REMARK    9  A    between atoms: C_21  and  O_22
REMARK   10  A    between atoms: O_22  and  C_23
REMARK   11  A    between atoms: C_23  and  C_24
REMARK   12  A    between atoms: C_26  and  O_27
REMARK   13  A    between atoms: O_27  and  C_28
REMARK   14  A    between atoms: C_28  and  C_29
REMARK                            x       y       z     vdW  Elec       q    Type
REMARK                         _______ _______ _______ _____ _____    ______ ____
ROOT
ATOM      1  C   UNL     1       3.878   4.971  19.421  0.00  0.00    +0.000 C 
ATOM      2  C   UNL     1       4.113   5.676  18.047  0.00  0.00    +0.000 C 
ATOM      3  O   UNL     1       3.790   7.059  18.071  0.00  0.00    +0.000 OA
ATOM      4  C   UNL     1       2.480   7.397  18.526  0.00  0.00    +0.000 C 
ATOM      5  C   UNL     1       2.285   6.909  19.982  0.00  0.00    +0.000 C 
ATOM      6  C   UNL     1       2.505   5.373  20.022  0.00  0.00    +0.000 C 
ENDROOT
BRANCH   1  10
ATOM      7  C   UNL     1       3.826   1.248  18.524  0.00  0.00    +0.000 C 
ATOM      8  C   UNL     1       3.526   2.717  18.384  0.00  0.00    +0.000 C 
ATOM      9  O   UNL     1       2.823   3.156  17.480  0.00  0.00    +0.000 OA
ATOM     10  N   UNL     1       4.063   3.507  19.372  0.00  0.00    +0.000 N 
ATOM     11  H   UNL     1       4.621   3.076  20.098  0.00  0.00    +0.000 HD
ENDBRANCH   1  10
BRANCH   2  12
ATOM     12  O   UNL     1       5.458   5.529  17.542  0.00  0.00    +0.000 OA
BRANCH  12  13
ATOM     13  C   UNL     1       5.831   6.288  16.383  0.00  0.00    +0.000 C 
ATOM     14  C   UNL     1       7.320   6.019  16.089  0.00  0.00    +0.000 C 
ATOM     15  C   UNL     1       7.573   4.612  15.542  0.00  0.00    +0.000 C 
ATOM     16  C   UNL     1       6.724   4.338  14.304  0.00  0.00    +0.000 C 
ATOM     17  C   UNL     1       5.246   4.571  14.591  0.00  0.00    +0.000 C 
ATOM     18  C   UNL     1       5.015   5.990  15.114  0.00  0.00    +0.000 C 
ENDBRANCH  12  13
ENDBRANCH   2  12
BRANCH   4  19
ATOM     19  C   UNL     1       2.371   8.930  18.378  0.00  0.00    +0.000 C 
BRANCH  19  20
ATOM     20  O   UNL     1       1.073   9.344  17.889  0.00  0.00    +0.000 OA
BRANCH  20  21
ATOM     21  C   UNL     1       0.464  10.341  18.583  0.00  0.00    +0.000 C 
ATOM     22  C   UNL     1      -1.026  10.303  18.390  0.00  0.00    +0.000 C 
ATOM     23  O   UNL     1       1.043  11.189  19.240  0.00  0.00    +0.000 OA
ENDBRANCH  20  21
ENDBRANCH  19  20
ENDBRANCH   4  19
BRANCH   5  24
ATOM     24  O   UNL     1       0.948   7.186  20.467  0.00  0.00    +0.000 OA
BRANCH  24  25
ATOM     25  C   UNL     1       0.838   8.161  21.410  0.00  0.00    +0.000 C 
ATOM     26  C   UNL     1      -0.593   8.500  21.698  0.00  0.00    +0.000 C 
ATOM     27  O   UNL     1       1.780   8.714  21.958  0.00  0.00    +0.000 OA
ENDBRANCH  24  25
ENDBRANCH   5  24
BRANCH   6  28
ATOM     28  O   UNL     1       2.279   4.811  21.364  0.00  0.00    +0.000 OA
BRANCH  28  29
ATOM     29  C   UNL     1       1.936   3.503  21.507  0.00  0.00    +0.000 C 
ATOM     30  C   UNL     1       0.750   3.139  20.663  0.00  0.00    +0.000 C 
ATOM     31  O   UNL     1       2.535   2.702  22.206  0.00  0.00    +0.000 OA
ENDBRANCH  28  29
ENDBRANCH   6  28
TORSDOF 10
ENDMDL
MODEL 2
REMARK VINA RESULT:      -6.8      1.766      6.455
REMARK  Name = 
REMARK  14 active torsions:
REMARK  status: ('A' for Active; 'I' for Inactive)
REMARK    1  A    between atoms: C_1  and  C_2
REMARK    2  A    between atoms: N_4  and  C_5
REMARK    3  A    between atoms: C_6  and  O_7
REMARK    4  A    between atoms: O_7  and  C_8
REMARK    5  A    between atoms: C_15  and  C_16
REMARK    6  A    between atoms: C_16  and  O_17
REMARK    7  A    between atoms: O_17  and  C_18
REMARK    8  A    between atoms: C_18  and  C_19
REMARK    9  A    between atoms: C_21  and  O_22
REMARK   10  A    between atoms: O_22  and  C_23
REMARK   11  A    between atoms: C_23  and  C_24
REMARK   12  A    between atoms: C_26  and  O_27
REMARK   13  A    between atoms: O_27  and  C_28
REMARK   14  A    between atoms: C_28  and  C_29
REMARK                            x       y       z     vdW  Elec       q    Type
REMARK                         _______ _______ _______ _____ _____    ______ ____
ROOT
ATOM      1  C   UNL     1       2.573   5.273  17.925  0.00  0.00    +0.000 C 
ATOM      2  C   UNL     1       2.950   6.690  18.463  0.00  0.00    +0.000 C 
ATOM      3  O   UNL     1       3.923   7.346  17.663  0.00  0.00    +0.000 OA
ATOM      4  C   UNL     1       5.132   6.627  17.418  0.00  0.00    +0.000 C 
ATOM      5  C   UNL     1       4.818   5.306  16.675  0.00  0.00    +0.000 C 
ATOM      6  C   UNL     1       3.844   4.469  17.545  0.00  0.00    +0.000 C 
ENDROOT
BRANCH   1  10
ATOM      7  C   UNL     1       0.939   3.472  20.884  0.00  0.00    +0.000 C 
ATOM      8  C   UNL     1       1.981   4.266  20.142  0.00  0.00    +0.000 C 
ATOM      9  O   UNL     1       3.031   4.618  20.670  0.00  0.00    +0.000 OA
ATOM     10  N   UNL     1       1.679   4.519  18.826  0.00  0.00    +0.000 N 
ATOM     11  H   UNL     1       0.800   4.185  18.449  0.00  0.00    +0.000 HD
ENDBRANCH   1  10
BRANCH   2  12
ATOM     12  O   UNL     1       1.817   7.571  18.619  0.00  0.00    +0.000 OA
BRANCH  12  13
ATOM     13  C   UNL     1       2.039   8.859  19.211  0.00  0.00    +0.000 C 
ATOM     14  C   UNL     1       1.502   9.933  18.245  0.00  0.00    +0.000 C 
ATOM     15  C   UNL     1      -0.027   9.964  18.181  0.00  0.00    +0.000 C 
ATOM     16  C   UNL     1      -0.637  10.138  19.569  0.00  0.00    +0.000 C 
ATOM     17  C   UNL     1      -0.136   9.062  20.525  0.00  0.00    +0.000 C 
ATOM     18  C   UNL     1       1.392   9.066  20.590  0.00  0.00    +0.000 C 
ENDBRANCH  12  13
ENDBRANCH   2  12
BRANCH   4  19
ATOM     19  C   UNL     1       6.028   7.587  16.604  0.00  0.00    +0.000 C 
BRANCH  19  20
ATOM     20  O   UNL     1       7.437   7.307  16.783  0.00  0.00    +0.000 OA
BRANCH  20  21
ATOM     21  C   UNL     1       7.962   7.632  17.992  0.00  0.00    +0.000 C 
ATOM     22  C   UNL     1       8.257   9.103  18.078  0.00  0.00    +0.000 C 
ATOM     23  O   UNL     1       8.209   6.836  18.883  0.00  0.00    +0.000 OA
ENDBRANCH  20  21
ENDBRANCH  19  20
ENDBRANCH   4  19
BRANCH   5  24
ATOM     24  O   UNL     1       6.015   4.519  16.451  0.00  0.00    +0.000 OA
BRANCH  24  25
ATOM     25  C   UNL     1       6.515   4.528  15.185  0.00  0.00    +0.000 C 
ATOM     26  C   UNL     1       5.487   4.117  14.176  0.00  0.00    +0.000 C 
ATOM     27  O   UNL     1       7.665   4.821  14.890  0.00  0.00    +0.000 OA
ENDBRANCH  24  25
ENDBRANCH   5  24
BRANCH   6  28
ATOM     28  O   UNL     1       3.538   3.162  16.940  0.00  0.00    +0.000 OA
BRANCH  28  29
ATOM     29  C   UNL     1       2.991   2.172  17.696  0.00  0.00    +0.000 C 
ATOM     30  C   UNL     1       3.992   1.566  18.636  0.00  0.00    +0.000 C 
ATOM     31  O   UNL     1       1.820   1.831  17.650  0.00  0.00    +0.000 OA
ENDBRANCH  28  29
ENDBRANCH   6  28
TORSDOF 10
ENDMDL
MODEL 3
REMARK VINA RESULT:      -6.7      0.668      1.162
REMARK  Name = 
REMARK  14 active torsions:
REMARK  status: ('A' for Active; 'I' for Inactive)
REMARK    1  A    between atoms: C_1  and  C_2
REMARK    2  A    between atoms: N_4  and  C_5
REMARK    3  A    between atoms: C_6  and  O_7
REMARK    4  A    between atoms: O_7  and  C_8
REMARK    5  A    between atoms: C_15  and  C_16
REMARK    6  A    between atoms: C_16  and  O_17
REMARK    7  A    between atoms: O_17  and  C_18
REMARK    8  A    between atoms: C_18  and  C_19
REMARK    9  A    between atoms: C_21  and  O_22
REMARK   10  A    between atoms: O_22  and  C_23
REMARK   11  A    between atoms: C_23  and  C_24
REMARK   12  A    between atoms: C_26  and  O_27
REMARK   13  A    between atoms: O_27  and  C_28
REMARK   14  A    between atoms: C_28  and  C_29
REMARK                            x       y       z     vdW  Elec       q    Type
REMARK                         _______ _______ _______ _____ _____    ______ ____
ROOT
ATOM      1  C   UNL     1       3.750   5.139  19.040  0.00  0.00    +0.000 C 
ATOM      2  C   UNL     1       3.696   5.889  17.670  0.00  0.00    +0.000 C 
ATOM      3  O   UNL     1       3.339   7.257  17.801  0.00  0.00    +0.000 OA
ATOM      4  C   UNL     1       2.128   7.532  18.507  0.00  0.00    +0.000 C 
ATOM      5  C   UNL     1       2.230   6.999  19.956  0.00  0.00    +0.000 C 
ATOM      6  C   UNL     1       2.505   5.472  19.903  0.00  0.00    +0.000 C 
ENDROOT
BRANCH   1  10
ATOM      7  C   UNL     1       3.558   1.418  18.157  0.00  0.00    +0.000 C 
ATOM      8  C   UNL     1       3.165   2.871  18.149  0.00  0.00    +0.000 C 
ATOM      9  O   UNL     1       2.179   3.278  17.544  0.00  0.00    +0.000 OA
ATOM     10  N   UNL     1       3.971   3.685  18.908  0.00  0.00    +0.000 N 
ATOM     11  H   UNL     1       4.761   3.281  19.395  0.00  0.00    +0.000 HD
ENDBRANCH   1  10
BRANCH   2  12
ATOM     12  O   UNL     1       4.924   5.807  16.915  0.00  0.00    +0.000 OA
BRANCH  12  13
ATOM     13  C   UNL     1       5.531   4.518  16.749  0.00  0.00    +0.000 C 
ATOM     14  C   UNL     1       4.998   3.898  15.443  0.00  0.00    +0.000 C 
ATOM     15  C   UNL     1       5.552   4.582  14.191  0.00  0.00    +0.000 C 
ATOM     16  C   UNL     1       7.078   4.595  14.195  0.00  0.00    +0.000 C 
ATOM     17  C   UNL     1       7.616   5.234  15.469  0.00  0.00    +0.000 C 
ATOM     18  C   UNL     1       7.068   4.519  16.705  0.00  0.00    +0.000 C 
ENDBRANCH  12  13
ENDBRANCH   2  12
BRANCH   4  19
ATOM     19  C   UNL     1       1.942   9.063  18.432  0.00  0.00    +0.000 C 
BRANCH  19  20
ATOM     20  O   UNL     1       0.706   9.436  17.777  0.00  0.00    +0.000 OA
BRANCH  20  21
ATOM     21  C   UNL     1      -0.074  10.329  18.438  0.00  0.00    +0.000 C 
ATOM     22  C   UNL     1      -1.521  10.167  18.063  0.00  0.00    +0.000 C 
ATOM     23  O   UNL     1       0.338  11.186  19.201  0.00  0.00    +0.000 OA
ENDBRANCH  20  21
ENDBRANCH  19  20
ENDBRANCH   4  19
BRANCH   5  24
ATOM     24  O   UNL     1       1.001   7.212  20.694  0.00  0.00    +0.000 OA
BRANCH  24  25
ATOM     25  C   UNL     1       0.946   8.332  21.465  0.00  0.00    +0.000 C 
ATOM     26  C   UNL     1      -0.465   8.760  21.727  0.00  0.00    +0.000 C 
ATOM     27  O   UNL     1       1.920   8.937  21.891  0.00  0.00    +0.000 OA
ENDBRANCH  24  25
ENDBRANCH   5  24
BRANCH   6  28
ATOM     28  O   UNL     1       2.557   4.868  21.244  0.00  0.00    +0.000 OA
BRANCH  28  29
ATOM     29  C   UNL     1       2.005   3.644  21.463  0.00  0.00    +0.000 C 
ATOM     30  C   UNL     1       0.781   3.423  20.621  0.00  0.00    +0.000 C 
ATOM     31  O   UNL     1       2.459   2.804  22.222  0.00  0.00    +0.000 OA
ENDBRANCH  28  29
ENDBRANCH   6  28
TORSDOF 10
ENDMDL
MODEL 4
REMARK VINA RESULT:      -6.3      1.915      6.330
REMARK  Name = 
REMARK  14 active torsions:
REMARK  status: ('A' for Active; 'I' for Inactive)
REMARK    1  A    between atoms: C_1  and  C_2
REMARK    2  A    between atoms: N_4  and  C_5
REMARK    3  A    between atoms: C_6  and  O_7
REMARK    4  A    between atoms: O_7  and  C_8
REMARK    5  A    between atoms: C_15  and  C_16
REMARK    6  A    between atoms: C_16  and  O_17
REMARK    7  A    between atoms: O_17  and  C_18
REMARK    8  A    between atoms: C_18  and  C_19
REMARK    9  A    between atoms: C_21  and  O_22
REMARK   10  A    between atoms: O_22  and  C_23
REMARK   11  A    between atoms: C_23  and  C_24
REMARK   12  A    between atoms: C_26  and  O_27
REMARK   13  A    between atoms: O_27  and  C_28
REMARK   14  A    between atoms: C_28  and  C_29
REMARK                            x       y       z     vdW  Elec       q    Type
REMARK                         _______ _______ _______ _____ _____    ______ ____
ROOT
ATOM      1  C   UNL     1       2.756   5.208  18.410  0.00  0.00    +0.000 C 
ATOM      2  C   UNL     1       3.051   6.713  18.707  0.00  0.00    +0.000 C 
ATOM      3  O   UNL     1       3.926   7.305  17.758  0.00  0.00    +0.000 OA
ATOM      4  C   UNL     1       5.172   6.641  17.543  0.00  0.00    +0.000 C 
ATOM      5  C   UNL     1       4.921   5.204  17.026  0.00  0.00    +0.000 C 
ATOM      6  C   UNL     1       4.063   4.444  18.071  0.00  0.00    +0.000 C 
ENDROOT
BRANCH   1  10
ATOM      7  C   UNL     1       0.354   3.013  20.430  0.00  0.00    +0.000 C 
ATOM      8  C   UNL     1       1.051   3.555  19.210  0.00  0.00    +0.000 C 
ATOM      9  O   UNL     1       0.780   3.169  18.079  0.00  0.00    +0.000 OA
ATOM     10  N   UNL     1       1.972   4.541  19.469  0.00  0.00    +0.000 N 
ATOM     11  H   UNL     1       2.136   4.824  20.427  0.00  0.00    +0.000 HD
ENDBRANCH   1  10
BRANCH   2  12
ATOM     12  O   UNL     1       1.863   7.529  18.805  0.00  0.00    +0.000 OA
BRANCH  12  13
ATOM     13  C   UNL     1       2.016   8.900  19.199  0.00  0.00    +0.000 C 
ATOM     14  C   UNL     1       1.462   9.791  18.069  0.00  0.00    +0.000 C 
ATOM     15  C   UNL     1      -0.065   9.743  17.969  0.00  0.00    +0.000 C 
ATOM     16  C   UNL     1      -0.719  10.097  19.302  0.00  0.00    +0.000 C 
ATOM     17  C   UNL     1      -0.201   9.201  20.421  0.00  0.00    +0.000 C 
ATOM     18  C   UNL     1       1.324   9.284  20.516  0.00  0.00    +0.000 C 
ENDBRANCH  12  13
ENDBRANCH   2  12
BRANCH   4  19
ATOM     19  C   UNL     1       5.946   7.524  16.541  0.00  0.00    +0.000 C 
BRANCH  19  20
ATOM     20  O   UNL     1       7.381   7.401  16.693  0.00  0.00    +0.000 OA
BRANCH  20  21
ATOM     21  C   UNL     1       7.901   7.878  17.853  0.00  0.00    +0.000 C 
ATOM     22  C   UNL     1       8.164   6.765  18.828  0.00  0.00    +0.000 C 
ATOM     23  O   UNL     1       8.091   9.057  18.100  0.00  0.00    +0.000 OA
ENDBRANCH  20  21
ENDBRANCH  19  20
ENDBRANCH   4  19
BRANCH   5  24
ATOM     24  O   UNL     1       6.161   4.476  16.843  0.00  0.00    +0.000 OA
BRANCH  24  25
ATOM     25  C   UNL     1       6.670   4.455  15.581  0.00  0.00    +0.000 C 
ATOM     26  C   UNL     1       5.614   4.160  14.560  0.00  0.00    +0.000 C 
ATOM     27  O   UNL     1       7.844   4.641  15.297  0.00  0.00    +0.000 OA
ENDBRANCH  24  25
ENDBRANCH   5  24
BRANCH   6  28
ATOM     28  O   UNL     1       3.826   3.043  17.687  0.00  0.00    +0.000 OA
BRANCH  28  29
ATOM     29  C   UNL     1       4.057   2.042  18.579  0.00  0.00    +0.000 C 
ATOM     30  C   UNL     1       4.642   2.559  19.862  0.00  0.00    +0.000 C 
ATOM     31  O   UNL     1       3.793   0.867  18.387  0.00  0.00    +0.000 OA
ENDBRANCH  28  29
ENDBRANCH   6  28
TORSDOF 10
ENDMDL
MODEL 5
REMARK VINA RESULT:      -6.3      0.959      1.021
REMARK  Name = 
REMARK  14 active torsions:
REMARK  status: ('A' for Active; 'I' for Inactive)
REMARK    1  A    between atoms: C_1  and  C_2
REMARK    2  A    between atoms: N_4  and  C_5
REMARK    3  A    between atoms: C_6  and  O_7
REMARK    4  A    between atoms: O_7  and  C_8
REMARK    5  A    between atoms: C_15  and  C_16
REMARK    6  A    between atoms: C_16  and  O_17
REMARK    7  A    between atoms: O_17  and  C_18
REMARK    8  A    between atoms: C_18  and  C_19
REMARK    9  A    between atoms: C_21  and  O_22
REMARK   10  A    between atoms: O_22  and  C_23
REMARK   11  A    between atoms: C_23  and  C_24
REMARK   12  A    between atoms: C_26  and  O_27
REMARK   13  A    between atoms: O_27  and  C_28
REMARK   14  A    between atoms: C_28  and  C_29
REMARK                            x       y       z     vdW  Elec       q    Type
REMARK                         _______ _______ _______ _____ _____    ______ ____
ROOT
ATOM      1  C   UNL     1       3.256   4.899  18.988  0.00  0.00    +0.000 C 
ATOM      2  C   UNL     1       3.653   5.703  17.709  0.00  0.00    +0.000 C 
ATOM      3  O   UNL     1       3.600   7.109  17.899  0.00  0.00    +0.000 OA
ATOM      4  C   UNL     1       2.368   7.638  18.391  0.00  0.00    +0.000 C 
ATOM      5  C   UNL     1       2.050   7.028  19.777  0.00  0.00    +0.000 C 
ATOM      6  C   UNL     1       1.972   5.485  19.633  0.00  0.00    +0.000 C 
ENDROOT
BRANCH   1  10
ATOM      7  C   UNL     1       3.835   1.116  18.840  0.00  0.00    +0.000 C 
ATOM      8  C   UNL     1       4.123   2.556  19.177  0.00  0.00    +0.000 C 
ATOM      9  O   UNL     1       5.157   2.900  19.738  0.00  0.00    +0.000 OA
ATOM     10  N   UNL     1       3.159   3.443  18.763  0.00  0.00    +0.000 N 
ATOM     11  H   UNL     1       2.336   3.092  18.290  0.00  0.00    +0.000 HD
ENDBRANCH   1  10
BRANCH   2  12
ATOM     12  O   UNL     1       4.956   5.361  17.190  0.00  0.00    +0.000 OA
BRANCH  12  13
ATOM     13  C   UNL     1       5.561   6.250  16.240  0.00  0.00    +0.000 C 
ATOM     14  C   UNL     1       7.091   6.116  16.361  0.00  0.00    +0.000 C 
ATOM     15  C   UNL     1       7.617   4.789  15.808  0.00  0.00    +0.000 C 
ATOM     16  C   UNL     1       7.171   4.574  14.364  0.00  0.00    +0.000 C 
ATOM     17  C   UNL     1       5.656   4.674  14.239  0.00  0.00    +0.000 C 
ATOM     18  C   UNL     1       5.157   6.017  14.775  0.00  0.00    +0.000 C 
ENDBRANCH  12  13
ENDBRANCH   2  12
BRANCH   4  19
ATOM     19  C   UNL     1       2.558   9.170  18.428  0.00  0.00    +0.000 C 
BRANCH  19  20
ATOM     20  O   UNL     1       1.408   9.878  17.905  0.00  0.00    +0.000 OA
BRANCH  20  21
ATOM     21  C   UNL     1       0.732  10.653  18.791  0.00  0.00    +0.000 C 
ATOM     22  C   UNL     1      -0.738  10.678  18.479  0.00  0.00    +0.000 C 
ATOM     23  O   UNL     1       1.244  11.289  19.697  0.00  0.00    +0.000 OA
ENDBRANCH  20  21
ENDBRANCH  19  20
ENDBRANCH   4  19
BRANCH   5  24
ATOM     24  O   UNL     1       0.779   7.498  20.292  0.00  0.00    +0.000 OA
BRANCH  24  25
ATOM     25  C   UNL     1       0.831   8.278  21.406  0.00  0.00    +0.000 C 
ATOM     26  C   UNL     1      -0.536   8.682  21.868  0.00  0.00    +0.000 C 
ATOM     27  O   UNL     1       1.859   8.628  21.969  0.00  0.00    +0.000 OA
ENDBRANCH  24  25
ENDBRANCH   5  24
BRANCH   6  28
ATOM     28  O   UNL     1       1.612   4.823  20.898  0.00  0.00    +0.000 OA
BRANCH  28  29
ATOM     29  C   UNL     1       1.181   3.533  20.894  0.00  0.00    +0.000 C 
ATOM     30  C   UNL     1       1.728   2.755  22.055  0.00  0.00    +0.000 C 
ATOM     31  O   UNL     1       0.413   3.061  20.071  0.00  0.00    +0.000 OA
ENDBRANCH  28  29
ENDBRANCH   6  28
TORSDOF 10
ENDMDL
MODEL 6
REMARK VINA RESULT:      -6.2      1.768      6.484
REMARK  Name = 
REMARK  14 active torsions:
REMARK  status: ('A' for Active; 'I' for Inactive)
REMARK    1  A    between atoms: C_1  and  C_2
REMARK    2  A    between atoms: N_4  and  C_5
REMARK    3  A    between atoms: C_6  and  O_7
REMARK    4  A    between atoms: O_7  and  C_8
REMARK    5  A    between atoms: C_15  and  C_16
REMARK    6  A    between atoms: C_16  and  O_17
REMARK    7  A    between atoms: O_17  and  C_18
REMARK    8  A    between atoms: C_18  and  C_19
REMARK    9  A    between atoms: C_21  and  O_22
REMARK   10  A    between atoms: O_22  and  C_23
REMARK   11  A    between atoms: C_23  and  C_24
REMARK   12  A    between atoms: C_26  and  O_27
REMARK   13  A    between atoms: O_27  and  C_28
REMARK   14  A    between atoms: C_28  and  C_29
REMARK                            x       y       z     vdW  Elec       q    Type
REMARK                         _______ _______ _______ _____ _____    ______ ____
ROOT
ATOM      1  C   UNL     1       2.360   5.158  18.218  0.00  0.00    +0.000 C 
ATOM      2  C   UNL     1       2.804   6.524  18.832  0.00  0.00    +0.000 C 
ATOM      3  O   UNL     1       3.707   7.238  18.001  0.00  0.00    +0.000 OA
ATOM      4  C   UNL     1       4.880   6.536  17.587  0.00  0.00    +0.000 C 
ATOM      5  C   UNL     1       4.482   5.282  16.772  0.00  0.00    +0.000 C 
ATOM      6  C   UNL     1       3.581   4.381  17.658  0.00  0.00    +0.000 C 
ENDROOT
BRANCH   1  10
ATOM      7  C   UNL     1       0.993   3.107  21.150  0.00  0.00    +0.000 C 
ATOM      8  C   UNL     1       1.976   3.948  20.379  0.00  0.00    +0.000 C 
ATOM      9  O   UNL     1       3.087   4.221  20.820  0.00  0.00    +0.000 OA
ATOM     10  N   UNL     1       1.543   4.337  19.135  0.00  0.00    +0.000 N 
ATOM     11  H   UNL     1       0.619   4.063  18.826  0.00  0.00    +0.000 HD
ENDBRANCH   1  10
BRANCH   2  12
ATOM     12  O   UNL     1       1.702   7.396  19.164  0.00  0.00    +0.000 OA
BRANCH  12  13
ATOM     13  C   UNL     1       1.991   8.618  19.859  0.00  0.00    +0.000 C 
ATOM     14  C   UNL     1       1.504   9.794  18.990  0.00  0.00    +0.000 C 
ATOM     15  C   UNL     1      -0.022   9.906  18.944  0.00  0.00    +0.000 C 
ATOM     16  C   UNL     1      -0.615   9.993  20.348  0.00  0.00    +0.000 C 
ATOM     17  C   UNL     1      -0.164   8.817  21.206  0.00  0.00    +0.000 C 
ATOM     18  C   UNL     1       1.364   8.740  21.257  0.00  0.00    +0.000 C 
ENDBRANCH  12  13
ENDBRANCH   2  12
BRANCH   4  19
ATOM     19  C   UNL     1       5.709   7.553  16.775  0.00  0.00    +0.000 C 
BRANCH  19  20
ATOM     20  O   UNL     1       7.122   7.235  16.774  0.00  0.00    +0.000 OA
BRANCH  20  21
ATOM     21  C   UNL     1       7.792   7.491  17.927  0.00  0.00    +0.000 C 
ATOM     22  C   UNL     1       7.876   6.263  18.789  0.00  0.00    +0.000 C 
ATOM     23  O   UNL     1       8.230   8.581  18.253  0.00  0.00    +0.000 OA
ENDBRANCH  20  21
ENDBRANCH  19  20
ENDBRANCH   4  19
BRANCH   5  24
ATOM     24  O   UNL     1       5.642   4.509  16.375  0.00  0.00    +0.000 OA
BRANCH  24  25
ATOM     25  C   UNL     1       5.882   4.423  15.038  0.00  0.00    +0.000 C 
ATOM     26  C   UNL     1       7.296   4.784  14.701  0.00  0.00    +0.000 C 
ATOM     27  O   UNL     1       5.053   4.103  14.198  0.00  0.00    +0.000 OA
ENDBRANCH  24  25
ENDBRANCH   5  24
BRANCH   6  28
ATOM     28  O   UNL     1       3.203   3.130  16.980  0.00  0.00    +0.000 OA
BRANCH  28  29
ATOM     29  C   UNL     1       2.729   2.079  17.702  0.00  0.00    +0.000 C 
ATOM     30  C   UNL     1       3.829   1.342  18.409  0.00  0.00    +0.000 C 
ATOM     31  O   UNL     1       1.550   1.782  17.801  0.00  0.00    +0.000 OA
ENDBRANCH  28  29
ENDBRANCH   6  28
TORSDOF 10
ENDMDL
MODEL 7
REMARK VINA RESULT:      -6.2      6.589      9.839
REMARK  Name = 
REMARK  14 active torsions:
REMARK  status: ('A' for Active; 'I' for Inactive)
REMARK    1  A    between atoms: C_1  and  C_2
REMARK    2  A    between atoms: N_4  and  C_5
REMARK    3  A    between atoms: C_6  and  O_7
REMARK    4  A    between atoms: O_7  and  C_8
REMARK    5  A    between atoms: C_15  and  C_16
REMARK    6  A    between atoms: C_16  and  O_17
REMARK    7  A    between atoms: O_17  and  C_18
REMARK    8  A    between atoms: C_18  and  C_19
REMARK    9  A    between atoms: C_21  and  O_22
REMARK   10  A    between atoms: O_22  and  C_23
REMARK   11  A    between atoms: C_23  and  C_24
REMARK   12  A    between atoms: C_26  and  O_27
REMARK   13  A    between atoms: O_27  and  C_28
REMARK   14  A    between atoms: C_28  and  C_29
REMARK                            x       y       z     vdW  Elec       q    Type
REMARK                         _______ _______ _______ _____ _____    ______ ____
ROOT
ATOM      1  C   UNL     1      -3.345  12.200  19.774  0.00  0.00    +0.000 C 
ATOM      2  C   UNL     1      -1.973  12.923  19.964  0.00  0.00    +0.000 C 
ATOM      3  O   UNL     1      -1.598  13.052  21.328  0.00  0.00    +0.000 OA
ATOM      4  C   UNL     1      -2.551  13.672  22.192  0.00  0.00    +0.000 C 
ATOM      5  C   UNL     1      -3.862  12.850  22.207  0.00  0.00    +0.000 C 
ATOM      6  C   UNL     1      -4.407  12.761  20.757  0.00  0.00    +0.000 C 
ENDROOT
BRANCH   1  10
ATOM      7  C   UNL     1      -4.249  11.305  16.162  0.00  0.00    +0.000 C 
ATOM      8  C   UNL     1      -3.713  11.099  17.553  0.00  0.00    +0.000 C 
ATOM      9  O   UNL     1      -3.186  10.047  17.900  0.00  0.00    +0.000 OA
ATOM     10  N   UNL     1      -3.820  12.194  18.376  0.00  0.00    +0.000 N 
ATOM     11  H   UNL     1      -4.251  13.038  18.020  0.00  0.00    +0.000 HD
ENDBRANCH   1  10
BRANCH   2  12
ATOM     12  O   UNL     1      -0.885  12.301  19.247  0.00  0.00    +0.000 OA
BRANCH  12  13
ATOM     13  C   UNL     1       0.091  11.570  20.003  0.00  0.00    +0.000 C 
ATOM     14  C   UNL     1      -0.049  10.075  19.653  0.00  0.00    +0.000 C 
ATOM     15  C   UNL     1       0.448   9.746  18.244  0.00  0.00    +0.000 C 
ATOM     16  C   UNL     1       1.887  10.212  18.040  0.00  0.00    +0.000 C 
ATOM     17  C   UNL     1       2.030  11.696  18.353  0.00  0.00    +0.000 C 
ATOM     18  C   UNL     1       1.550  11.997  19.774  0.00  0.00    +0.000 C 
ENDBRANCH  12  13
ENDBRANCH   2  12
BRANCH   4  19
ATOM     19  C   UNL     1      -1.867  13.754  23.574  0.00  0.00    +0.000 C 
BRANCH  19  20
ATOM     20  O   UNL     1      -1.596  15.119  23.973  0.00  0.00    +0.000 OA
BRANCH  20  21
ATOM     21  C   UNL     1      -2.240  15.554  25.087  0.00  0.00    +0.000 C 
ATOM     22  C   UNL     1      -1.268  15.858  26.192  0.00  0.00    +0.000 C 
ATOM     23  O   UNL     1      -3.450  15.645  25.202  0.00  0.00    +0.000 OA
ENDBRANCH  20  21
ENDBRANCH  19  20
ENDBRANCH   4  19
BRANCH   5  24
ATOM     24  O   UNL     1      -4.877  13.472  23.034  0.00  0.00    +0.000 OA
BRANCH  24  25
ATOM     25  C   UNL     1      -5.430  12.692  24.002  0.00  0.00    +0.000 C 
ATOM     26  C   UNL     1      -6.926  12.768  23.994  0.00  0.00    +0.000 C 
ATOM     27  O   UNL     1      -4.797  12.014  24.799  0.00  0.00    +0.000 OA
ENDBRANCH  24  25
ENDBRANCH   5  24
BRANCH   6  28
ATOM     28  O   UNL     1      -5.691  12.044  20.685  0.00  0.00    +0.000 OA
BRANCH  28  29
ATOM     29  C   UNL     1      -6.798  12.673  20.205  0.00  0.00    +0.000 C 
ATOM     30  C   UNL     1      -7.393  11.945  19.035  0.00  0.00    +0.000 C 
ATOM     31  O   UNL     1      -7.280  13.687  20.681  0.00  0.00    +0.000 OA
ENDBRANCH  28  29
ENDBRANCH   6  28
TORSDOF 10
ENDMDL
MODEL 8
REMARK VINA RESULT:      -6.1      1.793      6.329
REMARK  Name = 
REMARK  14 active torsions:
REMARK  status: ('A' for Active; 'I' for Inactive)
REMARK    1  A    between atoms: C_1  and  C_2
REMARK    2  A    between atoms: N_4  and  C_5
REMARK    3  A    between atoms: C_6  and  O_7
REMARK    4  A    between atoms: O_7  and  C_8
REMARK    5  A    between atoms: C_15  and  C_16
REMARK    6  A    between atoms: C_16  and  O_17
REMARK    7  A    between atoms: O_17  and  C_18
REMARK    8  A    between atoms: C_18  and  C_19
REMARK    9  A    between atoms: C_21  and  O_22
REMARK   10  A    between atoms: O_22  and  C_23
REMARK   11  A    between atoms: C_23  and  C_24
REMARK   12  A    between atoms: C_26  and  O_27
REMARK   13  A    between atoms: O_27  and  C_28
REMARK   14  A    between atoms: C_28  and  C_29
REMARK                            x       y       z     vdW  Elec       q    Type
REMARK                         _______ _______ _______ _____ _____    ______ ____
ROOT
ATOM      1  C   UNL     1       2.993   4.990  19.159  0.00  0.00    +0.000 C 
ATOM      2  C   UNL     1       3.216   6.523  19.361  0.00  0.00    +0.000 C 
ATOM      3  O   UNL     1       3.889   7.134  18.270  0.00  0.00    +0.000 OA
ATOM      4  C   UNL     1       5.134   6.550  17.884  0.00  0.00    +0.000 C 
ATOM      5  C   UNL     1       4.915   5.080  17.455  0.00  0.00    +0.000 C 
ATOM      6  C   UNL     1       4.286   4.305  18.643  0.00  0.00    +0.000 C 
ENDROOT
BRANCH   1  10
ATOM      7  C   UNL     1       1.016   2.795  21.597  0.00  0.00    +0.000 C 
ATOM      8  C   UNL     1       1.455   3.352  20.269  0.00  0.00    +0.000 C 
ATOM      9  O   UNL     1       0.943   2.998  19.212  0.00  0.00    +0.000 OA
ATOM     10  N   UNL     1       2.433   4.313  20.346  0.00  0.00    +0.000 N 
ATOM     11  H   UNL     1       2.801   4.571  21.253  0.00  0.00    +0.000 HD
ENDBRANCH   1  10
BRANCH   2  12
ATOM     12  O   UNL     1       2.000   7.257  19.619  0.00  0.00    +0.000 OA
BRANCH  12  13
ATOM     13  C   UNL     1       2.104   8.523  20.286  0.00  0.00    +0.000 C 
ATOM     14  C   UNL     1       1.611   9.619  19.320  0.00  0.00    +0.000 C 
ATOM     15  C   UNL     1       0.096   9.587  19.109  0.00  0.00    +0.000 C 
ATOM     16  C   UNL     1      -0.651   9.667  20.438  0.00  0.00    +0.000 C 
ATOM     17  C   UNL     1      -0.193   8.568  21.389  0.00  0.00    +0.000 C 
ATOM     18  C   UNL     1       1.320   8.635  21.603  0.00  0.00    +0.000 C 
ENDBRANCH  12  13
ENDBRANCH   2  12
BRANCH   4  19
ATOM     19  C   UNL     1       5.677   7.444  16.748  0.00  0.00    +0.000 C 
BRANCH  19  20
ATOM     20  O   UNL     1       7.123   7.436  16.685  0.00  0.00    +0.000 OA
BRANCH  20  21
ATOM     21  C   UNL     1       7.772   7.657  17.857  0.00  0.00    +0.000 C 
ATOM     22  C   UNL     1       8.119   9.110  18.019  0.00  0.00    +0.000 C 
ATOM     23  O   UNL     1       8.081   6.791  18.659  0.00  0.00    +0.000 OA
ENDBRANCH  20  21
ENDBRANCH  19  20
ENDBRANCH   4  19
BRANCH   5  24
ATOM     24  O   UNL     1       6.163   4.432  17.103  0.00  0.00    +0.000 OA
BRANCH  24  25
ATOM     25  C   UNL     1       6.512   4.466  15.788  0.00  0.00    +0.000 C 
ATOM     26  C   UNL     1       5.336   4.216  14.893  0.00  0.00    +0.000 C 
ATOM     27  O   UNL     1       7.643   4.662  15.369  0.00  0.00    +0.000 OA
ENDBRANCH  24  25
ENDBRANCH   5  24
BRANCH   6  28
ATOM     28  O   UNL     1       4.099   2.876  18.342  0.00  0.00    +0.000 OA
BRANCH  28  29
ATOM     29  C   UNL     1       4.385   1.938  19.284  0.00  0.00    +0.000 C 
ATOM     30  C   UNL     1       3.951   0.565  18.859  0.00  0.00    +0.000 C 
ATOM     31  O   UNL     1       4.957   2.165  20.338  0.00  0.00    +0.000 OA
ENDBRANCH  28  29
ENDBRANCH   6  28
TORSDOF 10
ENDMDL
MODEL 9
REMARK VINA RESULT:      -6.1      1.110      1.232
REMARK  Name = 
REMARK  14 active torsions:
REMARK  status: ('A' for Active; 'I' for Inactive)
REMARK    1  A    between atoms: C_1  and  C_2
REMARK    2  A    between atoms: N_4  and  C_5
REMARK    3  A    between atoms: C_6  and  O_7
REMARK    4  A    between atoms: O_7  and  C_8
REMARK    5  A    between atoms: C_15  and  C_16
REMARK    6  A    between atoms: C_16  and  O_17
REMARK    7  A    between atoms: O_17  and  C_18
REMARK    8  A    between atoms: C_18  and  C_19
REMARK    9  A    between atoms: C_21  and  O_22
REMARK   10  A    between atoms: O_22  and  C_23
REMARK   11  A    between atoms: C_23  and  C_24
REMARK   12  A    between atoms: C_26  and  O_27
REMARK   13  A    between atoms: O_27  and  C_28
REMARK   14  A    between atoms: C_28  and  C_29
REMARK                            x       y       z     vdW  Elec       q    Type
REMARK                         _______ _______ _______ _____ _____    ______ ____
ROOT
ATOM      1  C   UNL     1       3.147   4.815  19.058  0.00  0.00    +0.000 C 
ATOM      2  C   UNL     1       3.008   5.565  17.695  0.00  0.00    +0.000 C 
ATOM      3  O   UNL     1       2.871   6.971  17.847  0.00  0.00    +0.000 OA
ATOM      4  C   UNL     1       1.824   7.417  18.709  0.00  0.00    +0.000 C 
ATOM      5  C   UNL     1       2.052   6.873  20.140  0.00  0.00    +0.000 C 
ATOM      6  C   UNL     1       2.096   5.323  20.079  0.00  0.00    +0.000 C 
ENDROOT
BRANCH   1  10
ATOM      7  C   UNL     1       4.003   1.082  19.024  0.00  0.00    +0.000 C 
ATOM      8  C   UNL     1       4.217   2.557  19.241  0.00  0.00    +0.000 C 
ATOM      9  O   UNL     1       5.289   3.010  19.630  0.00  0.00    +0.000 OA
ATOM     10  N   UNL     1       3.137   3.344  18.925  0.00  0.00    +0.000 N 
ATOM     11  H   UNL     1       2.287   2.906  18.594  0.00  0.00    +0.000 HD
ENDBRANCH   1  10
BRANCH   2  12
ATOM     12  O   UNL     1       4.093   5.308  16.777  0.00  0.00    +0.000 OA
BRANCH  12  13
ATOM     13  C   UNL     1       5.114   6.307  16.641  0.00  0.00    +0.000 C 
ATOM     14  C   UNL     1       6.277   5.939  17.583  0.00  0.00    +0.000 C 
ATOM     15  C   UNL     1       7.071   4.723  17.099  0.00  0.00    +0.000 C 
ATOM     16  C   UNL     1       7.577   4.922  15.673  0.00  0.00    +0.000 C 
ATOM     17  C   UNL     1       6.430   5.256  14.727  0.00  0.00    +0.000 C 
ATOM     18  C   UNL     1       5.667   6.488  15.218  0.00  0.00    +0.000 C 
ENDBRANCH  12  13
ENDBRANCH   2  12
BRANCH   4  19
ATOM     19  C   UNL     1       1.849   8.959  18.631  0.00  0.00    +0.000 C 
BRANCH  19  20
ATOM     20  O   UNL     1       0.781   9.485  17.808  0.00  0.00    +0.000 OA
BRANCH  20  21
ATOM     21  C   UNL     1      -0.075  10.344  18.419  0.00  0.00    +0.000 C 
ATOM     22  C   UNL     1       0.664  11.497  19.039  0.00  0.00    +0.000 C 
ATOM     23  O   UNL     1      -1.281  10.188  18.503  0.00  0.00    +0.000 OA
ENDBRANCH  20  21
ENDBRANCH  19  20
ENDBRANCH   4  19
BRANCH   5  24
ATOM     24  O   UNL     1       0.982   7.260  21.038  0.00  0.00    +0.000 OA
BRANCH  24  25
ATOM     25  C   UNL     1       1.131   8.453  21.677  0.00  0.00    +0.000 C 
ATOM     26  C   UNL     1      -0.178   9.159  21.852  0.00  0.00    +0.000 C 
ATOM     27  O   UNL     1       2.198   8.914  22.057  0.00  0.00    +0.000 OA
ENDBRANCH  24  25
ENDBRANCH   5  24
BRANCH   6  28
ATOM     28  O   UNL     1       2.250   4.716  21.412  0.00  0.00    +0.000 OA
BRANCH  28  29
ATOM     29  C   UNL     1       1.909   3.414  21.612  0.00  0.00    +0.000 C 
ATOM     30  C   UNL     1       0.707   3.019  20.805  0.00  0.00    +0.000 C 
ATOM     31  O   UNL     1       2.521   2.641  22.330  0.00  0.00    +0.000 OA
ENDBRANCH  28  29
ENDBRANCH   6  28
TORSDOF 10
ENDMDL
