MODEL 1
REMARK VINA RESULT:      -6.7      0.000      0.000
REMARK  Name = 
REMARK  10 active torsions:
REMARK  status: ('A' for Active; 'I' for Inactive)
REMARK    1  A    between atoms: C_1  and  C_2
REMARK    2  A    between atoms: C_2  and  C_3
REMARK    3  A    between atoms: C_3  and  C_4
REMARK    4  A    between atoms: C_4  and  O_5
REMARK    5  A    between atoms: O_5  and  C_6
REMARK    6  A    between atoms: C_6  and  C_7
REMARK    7  A    between atoms: C_7  and  N_8
REMARK    8  A    between atoms: N_8  and  C_9
REMARK    9  A    between atoms: N_8  and  C_16
REMARK   10  A    between atoms: C_9  and  C_10
REMARK                            x       y       z     vdW  Elec       q    Type
REMARK                         _______ _______ _______ _____ _____    ______ ____
ROOT
ATOM      1  N   UNL     1       3.887   6.435  18.346  0.00  0.00    +0.000 N 
ENDROOT
BRANCH   1   2
ATOM      2  C   UNL     1       2.933   7.438  18.554  0.00  0.00    +0.000 A 
ATOM      3  C   UNL     1       2.629   8.409  17.580  0.00  0.00    +0.000 A 
ATOM      4  C   UNL     1       1.696   9.432  17.795  0.00  0.00    +0.000 A 
ATOM      5  C   UNL     1       1.017   9.513  19.001  0.00  0.00    +0.000 A 
ATOM      6  C   UNL     1       1.274   8.563  19.977  0.00  0.00    +0.000 A 
ATOM      7 BR   UNL     1       0.357   8.646  21.630  0.00  0.00    +0.000 Br
ATOM      8  C   UNL     1       2.210   7.543  19.759  0.00  0.00    +0.000 A 
ENDBRANCH   1   2
BRANCH   1   9
ATOM      9  C   UNL     1       4.697   6.427  17.122  0.00  0.00    +0.000 C 
BRANCH   9  10
ATOM     10  C   UNL     1       6.131   6.937  17.365  0.00  0.00    +0.000 C 
BRANCH  10  11
ATOM     11  O   UNL     1       7.083   6.383  16.442  0.00  0.00    +0.000 OA
BRANCH  11  12
ATOM     12  C   UNL     1       6.713   5.072  16.030  0.00  0.00    +0.000 C 
BRANCH  12  13
ATOM     13  C   UNL     1       6.874   4.905  14.526  0.00  0.00    +0.000 C 
BRANCH  13  15
ATOM     14  C   UNL     1       6.035   3.454  12.624  0.00  0.00    +0.000 C 
ATOM     15  C   UNL     1       5.758   3.999  14.011  0.00  0.00    +0.000 C 
ENDBRANCH  13  15
ENDBRANCH  12  13
ENDBRANCH  11  12
ENDBRANCH  10  11
ENDBRANCH   9  10
ENDBRANCH   1   9
BRANCH   1  16
ATOM     16  C   UNL     1       4.164   5.444  19.414  0.00  0.00    +0.000 C 
BRANCH  16  17
ATOM     17  C   UNL     1       3.990   3.953  19.259  0.00  0.00    +0.000 A 
ATOM     18  N   UNL     1       4.921   3.063  19.800  0.00  0.00    +0.000 NA
ATOM     19  N   UNL     1       4.621   1.800  19.546  0.00  0.00    +0.000 NA
ATOM     20  S   UNL     1       3.250   1.641  18.597  0.00  0.00    +0.000 S 
ATOM     21  C   UNL     1       3.004   3.319  18.527  0.00  0.00    +0.000 A 
ATOM     22 CL   UNL     1       1.714   3.980  17.620  0.00  0.00    +0.000 Cl
ENDBRANCH  16  17
ENDBRANCH   1  16
TORSDOF 9
ENDMDL
MODEL 2
REMARK VINA RESULT:      -6.6      2.754      4.578
REMARK  Name = 
REMARK  10 active torsions:
REMARK  status: ('A' for Active; 'I' for Inactive)
REMARK    1  A    between atoms: C_1  and  C_2
REMARK    2  A    between atoms: C_2  and  C_3
REMARK    3  A    between atoms: C_3  and  C_4
REMARK    4  A    between atoms: C_4  and  O_5
REMARK    5  A    between atoms: O_5  and  C_6
REMARK    6  A    between atoms: C_6  and  C_7
REMARK    7  A    between atoms: C_7  and  N_8
REMARK    8  A    between atoms: N_8  and  C_9
REMARK    9  A    between atoms: N_8  and  C_16
REMARK   10  A    between atoms: C_9  and  C_10
REMARK                            x       y       z     vdW  Elec       q    Type
REMARK                         _______ _______ _______ _____ _____    ______ ____
ROOT
ATOM      1  N   UNL     1       3.432   5.946  18.348  0.00  0.00    +0.000 N 
ENDROOT
BRANCH   1   2
ATOM      2  C   UNL     1       2.701   7.113  18.604  0.00  0.00    +0.000 A 
ATOM      3  C   UNL     1       2.489   8.104  17.625  0.00  0.00    +0.000 A 
ATOM      4  C   UNL     1       1.783   9.286  17.886  0.00  0.00    +0.000 A 
ATOM      5  C   UNL     1       1.248   9.516  19.144  0.00  0.00    +0.000 A 
ATOM      6  C   UNL     1       1.420   8.554  20.128  0.00  0.00    +0.000 A 
ATOM      7 BR   UNL     1       0.695   8.839  21.853  0.00  0.00    +0.000 Br
ATOM      8  C   UNL     1       2.128   7.374  19.864  0.00  0.00    +0.000 A 
ENDBRANCH   1   2
BRANCH   1   9
ATOM      9  C   UNL     1       2.793   4.804  17.684  0.00  0.00    +0.000 C 
BRANCH   9  10
ATOM     10  C   UNL     1       3.400   3.457  18.123  0.00  0.00    +0.000 C 
BRANCH  10  11
ATOM     11  O   UNL     1       2.512   2.349  17.902  0.00  0.00    +0.000 OA
BRANCH  11  12
ATOM     12  C   UNL     1       1.872   1.940  19.106  0.00  0.00    +0.000 C 
BRANCH  12  13
ATOM     13  C   UNL     1       0.707   2.859  19.445  0.00  0.00    +0.000 C 
BRANCH  13  15
ATOM     14  C   UNL     1       2.123   2.892  21.547  0.00  0.00    +0.000 C 
ATOM     15  C   UNL     1       1.003   3.555  20.771  0.00  0.00    +0.000 C 
ENDBRANCH  13  15
ENDBRANCH  12  13
ENDBRANCH  11  12
ENDBRANCH  10  11
ENDBRANCH   9  10
ENDBRANCH   1   9
BRANCH   1  16
ATOM     16  C   UNL     1       4.885   5.905  18.642  0.00  0.00    +0.000 C 
BRANCH  16  17
ATOM     17  C   UNL     1       5.936   5.410  17.679  0.00  0.00    +0.000 A 
ATOM     18  N   UNL     1       7.031   4.670  18.131  0.00  0.00    +0.000 NA
ATOM     19  N   UNL     1       7.860   4.342  17.152  0.00  0.00    +0.000 NA
ATOM     20  S   UNL     1       7.387   4.965  15.671  0.00  0.00    +0.000 S 
ATOM     21  C   UNL     1       5.997   5.689  16.326  0.00  0.00    +0.000 A 
ATOM     22 CL   UNL     1       4.949   6.620  15.348  0.00  0.00    +0.000 Cl
ENDBRANCH  16  17
ENDBRANCH   1  16
TORSDOF 9
ENDMDL
MODEL 3
REMARK VINA RESULT:      -6.5      2.020      3.242
REMARK  Name = 
REMARK  10 active torsions:
REMARK  status: ('A' for Active; 'I' for Inactive)
REMARK    1  A    between atoms: C_1  and  C_2
REMARK    2  A    between atoms: C_2  and  C_3
REMARK    3  A    between atoms: C_3  and  C_4
REMARK    4  A    between atoms: C_4  and  O_5
REMARK    5  A    between atoms: O_5  and  C_6
REMARK    6  A    between atoms: C_6  and  C_7
REMARK    7  A    between atoms: C_7  and  N_8
REMARK    8  A    between atoms: N_8  and  C_9
REMARK    9  A    between atoms: N_8  and  C_16
REMARK   10  A    between atoms: C_9  and  C_10
REMARK                            x       y       z     vdW  Elec       q    Type
REMARK                         _______ _______ _______ _____ _____    ______ ____
ROOT
ATOM      1  N   UNL     1       3.975   6.439  18.113  0.00  0.00    +0.000 N 
ENDROOT
BRANCH   1   2
ATOM      2  C   UNL     1       3.026   7.423  18.419  0.00  0.00    +0.000 A 
ATOM      3  C   UNL     1       2.643   8.418  17.498  0.00  0.00    +0.000 A 
ATOM      4  C   UNL     1       1.716   9.421  17.810  0.00  0.00    +0.000 A 
ATOM      5  C   UNL     1       1.123   9.457  19.063  0.00  0.00    +0.000 A 
ATOM      6  C   UNL     1       1.460   8.482  19.989  0.00  0.00    +0.000 A 
ATOM      7 BR   UNL     1       0.661   8.504  21.704  0.00  0.00    +0.000 Br
ATOM      8  C   UNL     1       2.389   7.482  19.674  0.00  0.00    +0.000 A 
ENDBRANCH   1   2
BRANCH   1   9
ATOM      9  C   UNL     1       5.002   6.694  17.097  0.00  0.00    +0.000 C 
BRANCH   9  10
ATOM     10  C   UNL     1       6.182   5.707  17.197  0.00  0.00    +0.000 C 
BRANCH  10  11
ATOM     11  O   UNL     1       7.458   6.344  17.013  0.00  0.00    +0.000 OA
BRANCH  11  12
ATOM     12  C   UNL     1       7.790   7.181  18.115  0.00  0.00    +0.000 C 
BRANCH  12  13
ATOM     13  C   UNL     1       7.944   8.629  17.675  0.00  0.00    +0.000 C 
BRANCH  13  15
ATOM     14  C   UNL     1       9.231  10.735  18.254  0.00  0.00    +0.000 C 
ATOM     15  C   UNL     1       8.748   9.381  18.734  0.00  0.00    +0.000 C 
ENDBRANCH  13  15
ENDBRANCH  12  13
ENDBRANCH  11  12
ENDBRANCH  10  11
ENDBRANCH   9  10
ENDBRANCH   1   9
BRANCH   1  16
ATOM     16  C   UNL     1       4.016   5.182  18.899  0.00  0.00    +0.000 C 
BRANCH  16  17
ATOM     17  C   UNL     1       3.088   4.011  18.683  0.00  0.00    +0.000 A 
ATOM     18  N   UNL     1       3.115   3.288  17.488  0.00  0.00    +0.000 NA
ATOM     19  N   UNL     1       2.218   2.314  17.466  0.00  0.00    +0.000 NA
ATOM     20  S   UNL     1       1.272   2.277  18.848  0.00  0.00    +0.000 S 
ATOM     21  C   UNL     1       2.091   3.592  19.543  0.00  0.00    +0.000 A 
ATOM     22 CL   UNL     1       1.618   4.216  21.063  0.00  0.00    +0.000 Cl
ENDBRANCH  16  17
ENDBRANCH   1  16
TORSDOF 9
ENDMDL
MODEL 4
REMARK VINA RESULT:      -6.5      2.167      3.167
REMARK  Name = 
REMARK  10 active torsions:
REMARK  status: ('A' for Active; 'I' for Inactive)
REMARK    1  A    between atoms: C_1  and  C_2
REMARK    2  A    between atoms: C_2  and  C_3
REMARK    3  A    between atoms: C_3  and  C_4
REMARK    4  A    between atoms: C_4  and  O_5
REMARK    5  A    between atoms: O_5  and  C_6
REMARK    6  A    between atoms: C_6  and  C_7
REMARK    7  A    between atoms: C_7  and  N_8
REMARK    8  A    between atoms: N_8  and  C_9
REMARK    9  A    between atoms: N_8  and  C_16
REMARK   10  A    between atoms: C_9  and  C_10
REMARK                            x       y       z     vdW  Elec       q    Type
REMARK                         _______ _______ _______ _____ _____    ______ ____
ROOT
ATOM      1  N   UNL     1       3.540   6.468  18.597  0.00  0.00    +0.000 N 
ENDROOT
BRANCH   1   2
ATOM      2  C   UNL     1       2.642   7.527  18.780  0.00  0.00    +0.000 A 
ATOM      3  C   UNL     1       2.344   8.452  17.760  0.00  0.00    +0.000 A 
ATOM      4  C   UNL     1       1.470   9.530  17.947  0.00  0.00    +0.000 A 
ATOM      5  C   UNL     1       0.846   9.717  19.171  0.00  0.00    +0.000 A 
ATOM      6  C   UNL     1       1.100   8.817  20.194  0.00  0.00    +0.000 A 
ATOM      7 BR   UNL     1       0.257   9.044  21.873  0.00  0.00    +0.000 Br
ATOM      8  C   UNL     1       1.977   7.740  20.003  0.00  0.00    +0.000 A 
ENDBRANCH   1   2
BRANCH   1   9
ATOM      9  C   UNL     1       4.519   6.508  17.506  0.00  0.00    +0.000 C 
BRANCH   9  10
ATOM     10  C   UNL     1       5.747   5.620  17.787  0.00  0.00    +0.000 C 
BRANCH  10  11
ATOM     11  O   UNL     1       6.934   6.085  17.123  0.00  0.00    +0.000 OA
BRANCH  11  12
ATOM     12  C   UNL     1       7.050   7.502  17.186  0.00  0.00    +0.000 C 
BRANCH  12  13
ATOM     13  C   UNL     1       8.125   7.919  18.179  0.00  0.00    +0.000 C 
BRANCH  13  15
ATOM     14  C   UNL     1       9.217   9.984  19.164  0.00  0.00    +0.000 C 
ATOM     15  C   UNL     1       8.351   9.424  18.053  0.00  0.00    +0.000 C 
ENDBRANCH  13  15
ENDBRANCH  12  13
ENDBRANCH  11  12
ENDBRANCH  10  11
ENDBRANCH   9  10
ENDBRANCH   1   9
BRANCH   1  16
ATOM     16  C   UNL     1       3.580   5.356  19.578  0.00  0.00    +0.000 C 
BRANCH  16  17
ATOM     17  C   UNL     1       2.532   4.274  19.683  0.00  0.00    +0.000 A 
ATOM     18  N   UNL     1       1.977   3.932  20.918  0.00  0.00    +0.000 NA
ATOM     19  N   UNL     1       1.095   2.950  20.822  0.00  0.00    +0.000 NA
ATOM     20  S   UNL     1       0.951   2.363  19.260  0.00  0.00    +0.000 S 
ATOM     21  C   UNL     1       2.086   3.469  18.652  0.00  0.00    +0.000 A 
ATOM     22 CL   UNL     1       2.537   3.447  17.002  0.00  0.00    +0.000 Cl
ENDBRANCH  16  17
ENDBRANCH   1  16
TORSDOF 9
ENDMDL
MODEL 5
REMARK VINA RESULT:      -6.5      1.409      1.437
REMARK  Name = 
REMARK  10 active torsions:
REMARK  status: ('A' for Active; 'I' for Inactive)
REMARK    1  A    between atoms: C_1  and  C_2
REMARK    2  A    between atoms: C_2  and  C_3
REMARK    3  A    between atoms: C_3  and  C_4
REMARK    4  A    between atoms: C_4  and  O_5
REMARK    5  A    between atoms: O_5  and  C_6
REMARK    6  A    between atoms: C_6  and  C_7
REMARK    7  A    between atoms: C_7  and  N_8
REMARK    8  A    between atoms: N_8  and  C_9
REMARK    9  A    between atoms: N_8  and  C_16
REMARK   10  A    between atoms: C_9  and  C_10
REMARK                            x       y       z     vdW  Elec       q    Type
REMARK                         _______ _______ _______ _____ _____    ______ ____
ROOT
ATOM      1  N   UNL     1       3.453   6.479  18.570  0.00  0.00    +0.000 N 
ENDROOT
BRANCH   1   2
ATOM      2  C   UNL     1       2.570   7.542  18.793  0.00  0.00    +0.000 A 
ATOM      3  C   UNL     1       2.224   8.464  17.785  0.00  0.00    +0.000 A 
ATOM      4  C   UNL     1       1.363   9.546  18.012  0.00  0.00    +0.000 A 
ATOM      5  C   UNL     1       0.802   9.740  19.265  0.00  0.00    +0.000 A 
ATOM      6  C   UNL     1       1.104   8.841  20.277  0.00  0.00    +0.000 A 
ATOM      7 BR   UNL     1       0.346   9.078  21.995  0.00  0.00    +0.000 Br
ATOM      8  C   UNL     1       1.966   7.762  20.047  0.00  0.00    +0.000 A 
ENDBRANCH   1   2
BRANCH   1   9
ATOM      9  C   UNL     1       4.352   6.496  17.411  0.00  0.00    +0.000 C 
BRANCH   9  10
ATOM     10  C   UNL     1       5.426   5.392  17.486  0.00  0.00    +0.000 C 
BRANCH  10  11
ATOM     11  O   UNL     1       6.698   5.817  16.971  0.00  0.00    +0.000 OA
BRANCH  11  12
ATOM     12  C   UNL     1       7.020   5.154  15.753  0.00  0.00    +0.000 C 
BRANCH  12  13
ATOM     13  C   UNL     1       6.086   3.978  15.507  0.00  0.00    +0.000 C 
BRANCH  13  15
ATOM     14  C   UNL     1       6.273   3.675  12.997  0.00  0.00    +0.000 C 
ATOM     15  C   UNL     1       5.414   4.162  14.148  0.00  0.00    +0.000 C 
ENDBRANCH  13  15
ENDBRANCH  12  13
ENDBRANCH  11  12
ENDBRANCH  10  11
ENDBRANCH   9  10
ENDBRANCH   1   9
BRANCH   1  16
ATOM     16  C   UNL     1       3.565   5.388  19.569  0.00  0.00    +0.000 C 
BRANCH  16  17
ATOM     17  C   UNL     1       2.551   4.283  19.740  0.00  0.00    +0.000 A 
ATOM     18  N   UNL     1       2.042   3.967  21.002  0.00  0.00    +0.000 NA
ATOM     19  N   UNL     1       1.186   2.959  20.964  0.00  0.00    +0.000 NA
ATOM     20  S   UNL     1       1.012   2.317  19.427  0.00  0.00    +0.000 S 
ATOM     21  C   UNL     1       2.097   3.433  18.749  0.00  0.00    +0.000 A 
ATOM     22 CL   UNL     1       2.499   3.369  17.088  0.00  0.00    +0.000 Cl
ENDBRANCH  16  17
ENDBRANCH   1  16
TORSDOF 9
ENDMDL
MODEL 6
REMARK VINA RESULT:      -6.4      1.511      1.630
REMARK  Name = 
REMARK  10 active torsions:
REMARK  status: ('A' for Active; 'I' for Inactive)
REMARK    1  A    between atoms: C_1  and  C_2
REMARK    2  A    between atoms: C_2  and  C_3
REMARK    3  A    between atoms: C_3  and  C_4
REMARK    4  A    between atoms: C_4  and  O_5
REMARK    5  A    between atoms: O_5  and  C_6
REMARK    6  A    between atoms: C_6  and  C_7
REMARK    7  A    between atoms: C_7  and  N_8
REMARK    8  A    between atoms: N_8  and  C_9
REMARK    9  A    between atoms: N_8  and  C_16
REMARK   10  A    between atoms: C_9  and  C_10
REMARK                            x       y       z     vdW  Elec       q    Type
REMARK                         _______ _______ _______ _____ _____    ______ ____
ROOT
ATOM      1  N   UNL     1       4.071   6.319  18.349  0.00  0.00    +0.000 N 
ENDROOT
BRANCH   1   2
ATOM      2  C   UNL     1       3.106   7.313  18.555  0.00  0.00    +0.000 A 
ATOM      3  C   UNL     1       2.802   8.287  17.584  0.00  0.00    +0.000 A 
ATOM      4  C   UNL     1       1.859   9.300  17.797  0.00  0.00    +0.000 A 
ATOM      5  C   UNL     1       1.170   9.370  18.999  0.00  0.00    +0.000 A 
ATOM      6  C   UNL     1       1.429   8.417  19.972  0.00  0.00    +0.000 A 
ATOM      7 BR   UNL     1       0.498   8.484  21.619  0.00  0.00    +0.000 Br
ATOM      8  C   UNL     1       2.374   7.406  19.755  0.00  0.00    +0.000 A 
ENDBRANCH   1   2
BRANCH   1   9
ATOM      9  C   UNL     1       5.225   6.578  17.481  0.00  0.00    +0.000 C 
BRANCH   9  10
ATOM     10  C   UNL     1       5.177   5.749  16.181  0.00  0.00    +0.000 C 
BRANCH  10  11
ATOM     11  O   UNL     1       5.907   4.515  16.282  0.00  0.00    +0.000 OA
BRANCH  11  12
ATOM     12  C   UNL     1       6.591   4.209  15.073  0.00  0.00    +0.000 C 
BRANCH  12  13
ATOM     13  C   UNL     1       5.635   4.204  13.889  0.00  0.00    +0.000 C 
BRANCH  13  15
ATOM     14  C   UNL     1       5.519   2.653  11.887  0.00  0.00    +0.000 C 
ATOM     15  C   UNL     1       6.363   3.637  12.672  0.00  0.00    +0.000 C 
ENDBRANCH  13  15
ENDBRANCH  12  13
ENDBRANCH  11  12
ENDBRANCH  10  11
ENDBRANCH   9  10
ENDBRANCH   1   9
BRANCH   1  16
ATOM     16  C   UNL     1       3.989   5.043  19.100  0.00  0.00    +0.000 C 
BRANCH  16  17
ATOM     17  C   UNL     1       3.027   3.925  18.779  0.00  0.00    +0.000 A 
ATOM     18  N   UNL     1       3.025   3.322  17.520  0.00  0.00    +0.000 NA
ATOM     19  N   UNL     1       2.101   2.380  17.411  0.00  0.00    +0.000 NA
ATOM     20  S   UNL     1       1.164   2.233  18.792  0.00  0.00    +0.000 S 
ATOM     21  C   UNL     1       2.024   3.451  19.604  0.00  0.00    +0.000 A 
ATOM     22 CL   UNL     1       1.580   3.935  21.183  0.00  0.00    +0.000 Cl
ENDBRANCH  16  17
ENDBRANCH   1  16
TORSDOF 9
ENDMDL
MODEL 7
REMARK VINA RESULT:      -6.4      3.478      4.695
REMARK  Name = 
REMARK  10 active torsions:
REMARK  status: ('A' for Active; 'I' for Inactive)
REMARK    1  A    between atoms: C_1  and  C_2
REMARK    2  A    between atoms: C_2  and  C_3
REMARK    3  A    between atoms: C_3  and  C_4
REMARK    4  A    between atoms: C_4  and  O_5
REMARK    5  A    between atoms: O_5  and  C_6
REMARK    6  A    between atoms: C_6  and  C_7
REMARK    7  A    between atoms: C_7  and  N_8
REMARK    8  A    between atoms: N_8  and  C_9
REMARK    9  A    between atoms: N_8  and  C_16
REMARK   10  A    between atoms: C_9  and  C_10
REMARK                            x       y       z     vdW  Elec       q    Type
REMARK                         _______ _______ _______ _____ _____    ______ ____
ROOT
ATOM      1  N   UNL     1       5.464   4.666  16.686  0.00  0.00    +0.000 N 
ENDROOT
BRANCH   1   2
ATOM      2  C   UNL     1       6.418   5.355  17.446  0.00  0.00    +0.000 A 
ATOM      3  C   UNL     1       7.129   4.748  18.500  0.00  0.00    +0.000 A 
ATOM      4  C   UNL     1       8.062   5.441  19.281  0.00  0.00    +0.000 A 
ATOM      5  C   UNL     1       8.329   6.778  19.026  0.00  0.00    +0.000 A 
ATOM      6  C   UNL     1       7.663   7.404  17.985  0.00  0.00    +0.000 A 
ATOM      7 BR   UNL     1       8.012   9.226  17.611  0.00  0.00    +0.000 Br
ATOM      8  C   UNL     1       6.728   6.708  17.206  0.00  0.00    +0.000 A 
ENDBRANCH   1   2
BRANCH   1   9
ATOM      9  C   UNL     1       5.888   3.676  15.690  0.00  0.00    +0.000 C 
BRANCH   9  10
ATOM     10  C   UNL     1       6.364   4.332  14.378  0.00  0.00    +0.000 C 
BRANCH  10  11
ATOM     11  O   UNL     1       5.490   4.059  13.271  0.00  0.00    +0.000 OA
BRANCH  11  12
ATOM     12  C   UNL     1       6.132   3.266  12.279  0.00  0.00    +0.000 C 
BRANCH  12  13
ATOM     13  C   UNL     1       5.111   2.599  11.368  0.00  0.00    +0.000 C 
BRANCH  13  15
ATOM     14  C   UNL     1       3.231   3.594   9.988  0.00  0.00    +0.000 C 
ATOM     15  C   UNL     1       3.832   3.433  11.371  0.00  0.00    +0.000 C 
ENDBRANCH  13  15
ENDBRANCH  12  13
ENDBRANCH  11  12
ENDBRANCH  10  11
ENDBRANCH   9  10
ENDBRANCH   1   9
BRANCH   1  16
ATOM     16  C   UNL     1       4.020   4.851  16.969  0.00  0.00    +0.000 C 
BRANCH  16  17
ATOM     17  C   UNL     1       3.357   4.507  18.281  0.00  0.00    +0.000 A 
ATOM     18  N   UNL     1       2.973   5.509  19.174  0.00  0.00    +0.000 NA
ATOM     19  N   UNL     1       2.432   5.022  20.279  0.00  0.00    +0.000 NA
ATOM     20  S   UNL     1       2.426   3.347  20.311  0.00  0.00    +0.000 S 
ATOM     21  C   UNL     1       3.148   3.234  18.778  0.00  0.00    +0.000 A 
ATOM     22 CL   UNL     1       3.531   1.713  18.099  0.00  0.00    +0.000 Cl
ENDBRANCH  16  17
ENDBRANCH   1  16
TORSDOF 9
ENDMDL
MODEL 8
REMARK VINA RESULT:      -6.4      1.692      1.734
REMARK  Name = 
REMARK  10 active torsions:
REMARK  status: ('A' for Active; 'I' for Inactive)
REMARK    1  A    between atoms: C_1  and  C_2
REMARK    2  A    between atoms: C_2  and  C_3
REMARK    3  A    between atoms: C_3  and  C_4
REMARK    4  A    between atoms: C_4  and  O_5
REMARK    5  A    between atoms: O_5  and  C_6
REMARK    6  A    between atoms: C_6  and  C_7
REMARK    7  A    between atoms: C_7  and  N_8
REMARK    8  A    between atoms: N_8  and  C_9
REMARK    9  A    between atoms: N_8  and  C_16
REMARK   10  A    between atoms: C_9  and  C_10
REMARK                            x       y       z     vdW  Elec       q    Type
REMARK                         _______ _______ _______ _____ _____    ______ ____
ROOT
ATOM      1  N   UNL     1       3.377   6.696  18.522  0.00  0.00    +0.000 N 
ENDROOT
BRANCH   1   2
ATOM      2  C   UNL     1       2.470   7.735  18.766  0.00  0.00    +0.000 A 
ATOM      3  C   UNL     1       2.061   8.635  17.763  0.00  0.00    +0.000 A 
ATOM      4  C   UNL     1       1.177   9.693  18.011  0.00  0.00    +0.000 A 
ATOM      5  C   UNL     1       0.655   9.883  19.282  0.00  0.00    +0.000 A 
ATOM      6  C   UNL     1       1.019   9.005  20.290  0.00  0.00    +0.000 A 
ATOM      7 BR   UNL     1       0.317   9.237  22.033  0.00  0.00    +0.000 Br
ATOM      8  C   UNL     1       1.906   7.949  20.040  0.00  0.00    +0.000 A 
ENDBRANCH   1   2
BRANCH   1   9
ATOM      9  C   UNL     1       4.436   6.860  17.520  0.00  0.00    +0.000 C 
BRANCH   9  10
ATOM     10  C   UNL     1       5.669   5.985  17.822  0.00  0.00    +0.000 C 
BRANCH  10  11
ATOM     11  O   UNL     1       6.696   6.107  16.823  0.00  0.00    +0.000 OA
BRANCH  11  12
ATOM     12  C   UNL     1       7.018   4.848  16.245  0.00  0.00    +0.000 C 
BRANCH  12  13
ATOM     13  C   UNL     1       6.990   4.920  14.725  0.00  0.00    +0.000 C 
BRANCH  13  15
ATOM     14  C   UNL     1       5.752   3.527  13.006  0.00  0.00    +0.000 C 
ATOM     15  C   UNL     1       5.637   4.408  14.235  0.00  0.00    +0.000 C 
ENDBRANCH  13  15
ENDBRANCH  12  13
ENDBRANCH  11  12
ENDBRANCH  10  11
ENDBRANCH   9  10
ENDBRANCH   1   9
BRANCH   1  16
ATOM     16  C   UNL     1       3.341   5.471  19.357  0.00  0.00    +0.000 C 
BRANCH  16  17
ATOM     17  C   UNL     1       2.446   4.284  19.092  0.00  0.00    +0.000 A 
ATOM     18  N   UNL     1       1.969   4.021  17.806  0.00  0.00    +0.000 NA
ATOM     19  N   UNL     1       1.182   2.958  17.766  0.00  0.00    +0.000 NA
ATOM     20  S   UNL     1       0.937   2.279  19.278  0.00  0.00    +0.000 S 
ATOM     21  C   UNL     1       1.939   3.418  20.042  0.00  0.00    +0.000 A 
ATOM     22 CL   UNL     1       2.160   3.395  21.737  0.00  0.00    +0.000 Cl
ENDBRANCH  16  17
ENDBRANCH   1  16
TORSDOF 9
ENDMDL
MODEL 9
REMARK VINA RESULT:      -6.4      3.251      4.987
REMARK  Name = 
REMARK  10 active torsions:
REMARK  status: ('A' for Active; 'I' for Inactive)
REMARK    1  A    between atoms: C_1  and  C_2
REMARK    2  A    between atoms: C_2  and  C_3
REMARK    3  A    between atoms: C_3  and  C_4
REMARK    4  A    between atoms: C_4  and  O_5
REMARK    5  A    between atoms: O_5  and  C_6
REMARK    6  A    between atoms: C_6  and  C_7
REMARK    7  A    between atoms: C_7  and  N_8
REMARK    8  A    between atoms: N_8  and  C_9
REMARK    9  A    between atoms: N_8  and  C_16
REMARK   10  A    between atoms: C_9  and  C_10
REMARK                            x       y       z     vdW  Elec       q    Type
REMARK                         _______ _______ _______ _____ _____    ______ ____
ROOT
ATOM      1  N   UNL     1       3.109   6.591  18.279  0.00  0.00    +0.000 N 
ENDROOT
BRANCH   1   2
ATOM      2  C   UNL     1       2.330   7.440  19.074  0.00  0.00    +0.000 A 
ATOM      3  C   UNL     1       1.970   7.120  20.398  0.00  0.00    +0.000 A 
ATOM      4  C   UNL     1       1.166   7.952  21.187  0.00  0.00    +0.000 A 
ATOM      5  C   UNL     1       0.698   9.155  20.678  0.00  0.00    +0.000 A 
ATOM      6  C   UNL     1       1.048   9.514  19.386  0.00  0.00    +0.000 A 
ATOM      7 BR   UNL     1       0.429  11.152  18.669  0.00  0.00    +0.000 Br
ATOM      8  C   UNL     1       1.851   8.677  18.599  0.00  0.00    +0.000 A 
ENDBRANCH   1   2
BRANCH   1   9
ATOM      9  C   UNL     1       2.863   5.145  18.280  0.00  0.00    +0.000 C 
BRANCH   9  10
ATOM     10  C   UNL     1       1.558   4.772  17.549  0.00  0.00    +0.000 C 
BRANCH  10  11
ATOM     11  O   UNL     1       1.024   3.508  17.976  0.00  0.00    +0.000 OA
BRANCH  11  12
ATOM     12  C   UNL     1       2.056   2.584  18.301  0.00  0.00    +0.000 C 
BRANCH  12  13
ATOM     13  C   UNL     1       1.787   1.914  19.641  0.00  0.00    +0.000 C 
BRANCH  13  15
ATOM     14  C   UNL     1       2.084   3.469  21.621  0.00  0.00    +0.000 C 
ATOM     15  C   UNL     1       1.130   2.929  20.574  0.00  0.00    +0.000 C 
ENDBRANCH  13  15
ENDBRANCH  12  13
ENDBRANCH  11  12
ENDBRANCH  10  11
ENDBRANCH   9  10
ENDBRANCH   1   9
BRANCH   1  16
ATOM     16  C   UNL     1       4.109   7.165  17.344  0.00  0.00    +0.000 C 
BRANCH  16  17
ATOM     17  C   UNL     1       5.242   6.383  16.724  0.00  0.00    +0.000 A 
ATOM     18  N   UNL     1       5.358   6.270  15.337  0.00  0.00    +0.000 NA
ATOM     19  N   UNL     1       6.395   5.530  14.975  0.00  0.00    +0.000 NA
ATOM     20  S   UNL     1       7.224   4.896  16.285  0.00  0.00    +0.000 S 
ATOM     21  C   UNL     1       6.193   5.647  17.406  0.00  0.00    +0.000 A 
ATOM     22 CL   UNL     1       6.399   5.407  19.086  0.00  0.00    +0.000 Cl
ENDBRANCH  16  17
ENDBRANCH   1  16
TORSDOF 9
ENDMDL
