MODEL 1
REMARK VINA RESULT:      -7.8      0.000      0.000
REMARK  Name = 
REMARK  6 active torsions:
REMARK  status: ('A' for Active; 'I' for Inactive)
REMARK    1  A    between atoms: C_1  and  O_2
REMARK    2  A    between atoms: O_2  and  C_3
REMARK    3  A    between atoms: C_8  and  S_9
REMARK    4  A    between atoms: S_9  and  C_11
REMARK    5  A    between atoms: C_11  and  C_12
REMARK    6  A    between atoms: C_14  and  N_15
REMARK                            x       y       z     vdW  Elec       q    Type
REMARK                         _______ _______ _______ _____ _____    ______ ____
ROOT
ATOM      1  S   UNL     1       2.235   4.065  19.272  0.00  0.00    +0.000 S 
ATOM      2  O   UNL     1       2.439   2.643  19.917  0.00  0.00    +0.000 OA
ENDROOT
BRANCH   1   8
ATOM      3  C   UNL     1       6.524   4.246  14.746  0.00  0.00    +0.000 A 
ATOM      4  C   UNL     1       7.326   4.828  15.730  0.00  0.00    +0.000 A 
ATOM      5  C   UNL     1       6.841   5.067  17.026  0.00  0.00    +0.000 A 
ATOM      6  C   UNL     1       5.519   4.691  17.281  0.00  0.00    +0.000 A 
ATOM      7  N   UNL     1       4.732   4.765  18.401  0.00  0.00    +0.000 N 
ATOM      8  C   UNL     1       3.507   4.228  18.100  0.00  0.00    +0.000 A 
ATOM      9  N   UNL     1       3.449   3.839  16.845  0.00  0.00    +0.000 NA
ATOM     10  C   UNL     1       4.693   4.115  16.322  0.00  0.00    +0.000 A 
ATOM     11  C   UNL     1       5.195   3.898  15.031  0.00  0.00    +0.000 A 
ATOM     12  H   UNL     1       4.988   5.144  19.303  0.00  0.00    +0.000 HD
BRANCH   3  14
ATOM     13  C   UNL     1       5.898   3.529  12.573  0.00  0.00    +0.000 C 
ATOM     14  O   UNL     1       6.911   4.001  13.454  0.00  0.00    +0.000 OA
ENDBRANCH   3  14
ENDBRANCH   1   8
BRANCH   1  15
ATOM     15  C   UNL     1       2.750   5.370  20.419  0.00  0.00    +0.000 C 
BRANCH  15  16
ATOM     16  C   UNL     1       2.274   6.723  19.950  0.00  0.00    +0.000 A 
ATOM     17  C   UNL     1       1.633   7.603  20.835  0.00  0.00    +0.000 A 
ATOM     18  C   UNL     1       1.193   8.860  20.396  0.00  0.00    +0.000 A 
ATOM     19  C   UNL     1       1.416   9.159  19.044  0.00  0.00    +0.000 A 
ATOM     20  F   UNL     1       0.986  10.315  18.511  0.00  0.00    +0.000 F 
ATOM     21  C   UNL     1       2.043   8.236  18.224  0.00  0.00    +0.000 A 
ATOM     22  N   UNL     1       2.482   7.029  18.645  0.00  0.00    +0.000 NA
BRANCH  18  23
ATOM     23  N   UNL     1       0.518   9.761  21.223  0.00  0.00    +0.000 N 
ATOM     24  C   UNL     1       0.160   9.389  22.602  0.00  0.00    +0.000 C 
ATOM     25  C   UNL     1      -0.947  10.336  23.101  0.00  0.00    +0.000 C 
ATOM     26  O   UNL     1      -0.538  11.714  23.027  0.00  0.00    +0.000 OA
ATOM     27  C   UNL     1      -0.220  12.065  21.667  0.00  0.00    +0.000 C 
ATOM     28  C   UNL     1       0.909  11.184  21.108  0.00  0.00    +0.000 C 
ENDBRANCH  18  23
ENDBRANCH  15  16
ENDBRANCH   1  15
TORSDOF 5
ENDMDL
MODEL 2
REMARK VINA RESULT:      -7.6      3.849      9.424
REMARK  Name = 
REMARK  6 active torsions:
REMARK  status: ('A' for Active; 'I' for Inactive)
REMARK    1  A    between atoms: C_1  and  O_2
REMARK    2  A    between atoms: O_2  and  C_3
REMARK    3  A    between atoms: C_8  and  S_9
REMARK    4  A    between atoms: S_9  and  C_11
REMARK    5  A    between atoms: C_11  and  C_12
REMARK    6  A    between atoms: C_14  and  N_15
REMARK                            x       y       z     vdW  Elec       q    Type
REMARK                         _______ _______ _______ _____ _____    ______ ____
ROOT
ATOM      1  S   UNL     1       1.442   9.478  18.024  0.00  0.00    +0.000 S 
ATOM      2  O   UNL     1       2.387  10.737  18.004  0.00  0.00    +0.000 OA
ENDROOT
BRANCH   1   8
ATOM      3  C   UNL     1      -4.258  11.906  18.750  0.00  0.00    +0.000 A 
ATOM      4  C   UNL     1      -4.569  11.137  17.627  0.00  0.00    +0.000 A 
ATOM      5  C   UNL     1      -3.600  10.350  16.984  0.00  0.00    +0.000 A 
ATOM      6  C   UNL     1      -2.312  10.374  17.525  0.00  0.00    +0.000 A 
ATOM      7  N   UNL     1      -1.145   9.745  17.175  0.00  0.00    +0.000 N 
ATOM      8  C   UNL     1      -0.174  10.113  18.071  0.00  0.00    +0.000 A 
ATOM      9  N   UNL     1      -0.639  10.964  18.960  0.00  0.00    +0.000 NA
ATOM     10  C   UNL     1      -1.968  11.133  18.638  0.00  0.00    +0.000 A 
ATOM     11  C   UNL     1      -2.949  11.921  19.256  0.00  0.00    +0.000 A 
ATOM     12  H   UNL     1      -1.000   9.115  16.398  0.00  0.00    +0.000 HD
BRANCH   3  14
ATOM     13  C   UNL     1      -6.174  13.300  18.639  0.00  0.00    +0.000 C 
ATOM     14  O   UNL     1      -5.137  12.717  19.420  0.00  0.00    +0.000 OA
ENDBRANCH   3  14
ENDBRANCH   1   8
BRANCH   1  15
ATOM     15  C   UNL     1       1.471   8.680  19.650  0.00  0.00    +0.000 C 
BRANCH  15  16
ATOM     16  C   UNL     1       2.190   7.354  19.592  0.00  0.00    +0.000 A 
ATOM     17  C   UNL     1       3.251   7.153  18.697  0.00  0.00    +0.000 A 
ATOM     18  C   UNL     1       3.918   5.920  18.647  0.00  0.00    +0.000 A 
ATOM     19  C   UNL     1       3.448   4.925  19.517  0.00  0.00    +0.000 A 
ATOM     20  F   UNL     1       3.983   3.693  19.510  0.00  0.00    +0.000 F 
ATOM     21  C   UNL     1       2.386   5.189  20.364  0.00  0.00    +0.000 A 
ATOM     22  N   UNL     1       1.750   6.380  20.428  0.00  0.00    +0.000 NA
BRANCH  18  23
ATOM     23  N   UNL     1       4.956   5.653  17.753  0.00  0.00    +0.000 N 
ATOM     24  C   UNL     1       4.948   6.234  16.400  0.00  0.00    +0.000 C 
ATOM     25  C   UNL     1       5.909   5.428  15.507  0.00  0.00    +0.000 C 
ATOM     26  O   UNL     1       7.241   5.403  16.051  0.00  0.00    +0.000 OA
ATOM     27  C   UNL     1       7.231   4.805  17.360  0.00  0.00    +0.000 C 
ATOM     28  C   UNL     1       6.319   5.579  18.326  0.00  0.00    +0.000 C 
ENDBRANCH  18  23
ENDBRANCH  15  16
ENDBRANCH   1  15
TORSDOF 5
ENDMDL
MODEL 3
REMARK VINA RESULT:      -7.6      3.890      9.422
REMARK  Name = 
REMARK  6 active torsions:
REMARK  status: ('A' for Active; 'I' for Inactive)
REMARK    1  A    between atoms: C_1  and  O_2
REMARK    2  A    between atoms: O_2  and  C_3
REMARK    3  A    between atoms: C_8  and  S_9
REMARK    4  A    between atoms: S_9  and  C_11
REMARK    5  A    between atoms: C_11  and  C_12
REMARK    6  A    between atoms: C_14  and  N_15
REMARK                            x       y       z     vdW  Elec       q    Type
REMARK                         _______ _______ _______ _____ _____    ______ ____
ROOT
ATOM      1  S   UNL     1       1.226   9.541  19.500  0.00  0.00    +0.000 S 
ATOM      2  O   UNL     1       0.832   8.627  20.719  0.00  0.00    +0.000 OA
ENDROOT
BRANCH   1   8
ATOM      3  C   UNL     1      -4.350  11.796  17.843  0.00  0.00    +0.000 A 
ATOM      4  C   UNL     1      -4.013  11.298  16.583  0.00  0.00    +0.000 A 
ATOM      5  C   UNL     1      -2.782  10.665  16.347  0.00  0.00    +0.000 A 
ATOM      6  C   UNL     1      -1.913  10.557  17.437  0.00  0.00    +0.000 A 
ATOM      7  N   UNL     1      -0.663  10.012  17.578  0.00  0.00    +0.000 N 
ATOM      8  C   UNL     1      -0.274  10.163  18.885  0.00  0.00    +0.000 A 
ATOM      9  N   UNL     1      -1.188  10.799  19.586  0.00  0.00    +0.000 NA
ATOM     10  C   UNL     1      -2.215  11.047  18.703  0.00  0.00    +0.000 A 
ATOM     11  C   UNL     1      -3.445  11.687  18.911  0.00  0.00    +0.000 A 
ATOM     12  H   UNL     1      -0.105   9.569  16.861  0.00  0.00    +0.000 HD
BRANCH   3  14
ATOM     13  C   UNL     1      -6.721  11.780  17.784  0.00  0.00    +0.000 C 
ATOM     14  O   UNL     1      -5.517  12.445  18.150  0.00  0.00    +0.000 OA
ENDBRANCH   3  14
ENDBRANCH   1   8
BRANCH   1  15
ATOM     15  C   UNL     1       1.711   8.535  18.074  0.00  0.00    +0.000 C 
BRANCH  15  16
ATOM     16  C   UNL     1       2.442   7.288  18.511  0.00  0.00    +0.000 A 
ATOM     17  C   UNL     1       3.595   6.860  17.838  0.00  0.00    +0.000 A 
ATOM     18  C   UNL     1       4.272   5.702  18.249  0.00  0.00    +0.000 A 
ATOM     19  C   UNL     1       3.717   5.012  19.337  0.00  0.00    +0.000 A 
ATOM     20  F   UNL     1       4.258   3.863  19.774  0.00  0.00    +0.000 F 
ATOM     21  C   UNL     1       2.567   5.485  19.945  0.00  0.00    +0.000 A 
ATOM     22  N   UNL     1       1.920   6.609  19.563  0.00  0.00    +0.000 NA
BRANCH  18  23
ATOM     23  N   UNL     1       5.403   5.211  17.594  0.00  0.00    +0.000 N 
ATOM     24  C   UNL     1       5.473   5.200  16.123  0.00  0.00    +0.000 C 
ATOM     25  C   UNL     1       6.568   4.210  15.685  0.00  0.00    +0.000 C 
ATOM     26  O   UNL     1       7.844   4.543  16.260  0.00  0.00    +0.000 OA
ATOM     27  C   UNL     1       7.761   4.519  17.697  0.00  0.00    +0.000 C 
ATOM     28  C   UNL     1       6.711   5.514  18.218  0.00  0.00    +0.000 C 
ENDBRANCH  18  23
ENDBRANCH  15  16
ENDBRANCH   1  15
TORSDOF 5
ENDMDL
MODEL 4
REMARK VINA RESULT:      -7.6      5.715      7.809
REMARK  Name = 
REMARK  6 active torsions:
REMARK  status: ('A' for Active; 'I' for Inactive)
REMARK    1  A    between atoms: C_1  and  O_2
REMARK    2  A    between atoms: O_2  and  C_3
REMARK    3  A    between atoms: C_8  and  S_9
REMARK    4  A    between atoms: S_9  and  C_11
REMARK    5  A    between atoms: C_11  and  C_12
REMARK    6  A    between atoms: C_14  and  N_15
REMARK                            x       y       z     vdW  Elec       q    Type
REMARK                         _______ _______ _______ _____ _____    ______ ____
ROOT
ATOM      1  S   UNL     1       7.901   7.262  17.739  0.00  0.00    +0.000 S 
ATOM      2  O   UNL     1       8.071   6.405  19.049  0.00  0.00    +0.000 OA
ENDROOT
BRANCH   1   8
ATOM      3  C   UNL     1       9.503  13.204  18.757  0.00  0.00    +0.000 A 
ATOM      4  C   UNL     1      10.058  12.700  19.935  0.00  0.00    +0.000 A 
ATOM      5  C   UNL     1       9.972  11.337  20.263  0.00  0.00    +0.000 A 
ATOM      6  C   UNL     1       9.306  10.512  19.352  0.00  0.00    +0.000 A 
ATOM      7  N   UNL     1       9.040   9.168  19.337  0.00  0.00    +0.000 N 
ATOM      8  C   UNL     1       8.365   8.877  18.180  0.00  0.00    +0.000 A 
ATOM      9  N   UNL     1       8.155   9.959  17.462  0.00  0.00    +0.000 NA
ATOM     10  C   UNL     1       8.738  10.984  18.174  0.00  0.00    +0.000 A 
ATOM     11  C   UNL     1       8.825  12.351  17.873  0.00  0.00    +0.000 A 
ATOM     12  H   UNL     1       9.289   8.489  20.043  0.00  0.00    +0.000 HD
BRANCH   3  14
ATOM     13  C   UNL     1      10.017  15.446  19.337  0.00  0.00    +0.000 C 
ATOM     14  O   UNL     1       9.523  14.520  18.376  0.00  0.00    +0.000 OA
ENDBRANCH   3  14
ENDBRANCH   1   8
BRANCH   1  15
ATOM     15  C   UNL     1       6.148   7.565  17.393  0.00  0.00    +0.000 C 
BRANCH  15  16
ATOM     16  C   UNL     1       5.392   6.267  17.242  0.00  0.00    +0.000 A 
ATOM     17  C   UNL     1       4.477   5.853  18.221  0.00  0.00    +0.000 A 
ATOM     18  C   UNL     1       3.775   4.648  18.077  0.00  0.00    +0.000 A 
ATOM     19  C   UNL     1       4.060   3.898  16.927  0.00  0.00    +0.000 A 
ATOM     20  F   UNL     1       3.482   2.703  16.720  0.00  0.00    +0.000 F 
ATOM     21  C   UNL     1       4.987   4.361  16.009  0.00  0.00    +0.000 A 
ATOM     22  N   UNL     1       5.654   5.529  16.135  0.00  0.00    +0.000 NA
BRANCH  18  23
ATOM     23  N   UNL     1       2.880   4.170  19.036  0.00  0.00    +0.000 N 
ATOM     24  C   UNL     1       2.929   4.666  20.422  0.00  0.00    +0.000 C 
ATOM     25  C   UNL     1       2.191   3.670  21.334  0.00  0.00    +0.000 C 
ATOM     26  O   UNL     1       0.832   3.467  20.906  0.00  0.00    +0.000 OA
ATOM     27  C   UNL     1       0.807   2.955  19.561  0.00  0.00    +0.000 C 
ATOM     28  C   UNL     1       1.494   3.917  18.579  0.00  0.00    +0.000 C 
ENDBRANCH  18  23
ENDBRANCH  15  16
ENDBRANCH   1  15
TORSDOF 5
ENDMDL
MODEL 5
REMARK VINA RESULT:      -7.5      4.031      9.346
REMARK  Name = 
REMARK  6 active torsions:
REMARK  status: ('A' for Active; 'I' for Inactive)
REMARK    1  A    between atoms: C_1  and  O_2
REMARK    2  A    between atoms: O_2  and  C_3
REMARK    3  A    between atoms: C_8  and  S_9
REMARK    4  A    between atoms: S_9  and  C_11
REMARK    5  A    between atoms: C_11  and  C_12
REMARK    6  A    between atoms: C_14  and  N_15
REMARK                            x       y       z     vdW  Elec       q    Type
REMARK                         _______ _______ _______ _____ _____    ______ ____
ROOT
ATOM      1  S   UNL     1       1.226   9.862  19.231  0.00  0.00    +0.000 S 
ATOM      2  O   UNL     1       0.916   9.029  20.530  0.00  0.00    +0.000 OA
ENDROOT
BRANCH   1   8
ATOM      3  C   UNL     1      -4.512  11.612  17.520  0.00  0.00    +0.000 A 
ATOM      4  C   UNL     1      -4.186  10.986  16.316  0.00  0.00    +0.000 A 
ATOM      5  C   UNL     1      -2.929  10.393  16.112  0.00  0.00    +0.000 A 
ATOM      6  C   UNL     1      -2.024  10.461  17.176  0.00  0.00    +0.000 A 
ATOM      7  N   UNL     1      -0.742  10.002  17.336  0.00  0.00    +0.000 N 
ATOM      8  C   UNL     1      -0.324  10.328  18.600  0.00  0.00    +0.000 A 
ATOM      9  N   UNL     1      -1.250  10.995  19.254  0.00  0.00    +0.000 NA
ATOM     10  C   UNL     1      -2.315  11.083  18.385  0.00  0.00    +0.000 A 
ATOM     11  C   UNL     1      -3.572  11.679  18.560  0.00  0.00    +0.000 A 
ATOM     12  H   UNL     1      -0.182   9.505  16.656  0.00  0.00    +0.000 HD
BRANCH   3  14
ATOM     13  C   UNL     1      -6.785  11.384  18.161  0.00  0.00    +0.000 C 
ATOM     14  O   UNL     1      -5.704  12.233  17.789  0.00  0.00    +0.000 OA
ENDBRANCH   3  14
ENDBRANCH   1   8
BRANCH   1  15
ATOM     15  C   UNL     1       1.755   8.774  17.882  0.00  0.00    +0.000 C 
BRANCH  15  16
ATOM     16  C   UNL     1       2.399   7.518  18.417  0.00  0.00    +0.000 A 
ATOM     17  C   UNL     1       3.676   7.129  17.987  0.00  0.00    +0.000 A 
ATOM     18  C   UNL     1       4.272   5.963  18.488  0.00  0.00    +0.000 A 
ATOM     19  C   UNL     1       3.514   5.224  19.408  0.00  0.00    +0.000 A 
ATOM     20  F   UNL     1       3.971   4.064  19.908  0.00  0.00    +0.000 F 
ATOM     21  C   UNL     1       2.253   5.661  19.777  0.00  0.00    +0.000 A 
ATOM     22  N   UNL     1       1.680   6.792  19.309  0.00  0.00    +0.000 NA
BRANCH  18  23
ATOM     23  N   UNL     1       5.524   5.509  18.070  0.00  0.00    +0.000 N 
ATOM     24  C   UNL     1       6.631   5.367  19.031  0.00  0.00    +0.000 C 
ATOM     25  C   UNL     1       7.960   5.317  18.256  0.00  0.00    +0.000 C 
ATOM     26  O   UNL     1       7.972   4.248  17.293  0.00  0.00    +0.000 OA
ATOM     27  C   UNL     1       6.902   4.421  16.346  0.00  0.00    +0.000 C 
ATOM     28  C   UNL     1       5.531   4.442  17.043  0.00  0.00    +0.000 C 
ENDBRANCH  18  23
ENDBRANCH  15  16
ENDBRANCH   1  15
TORSDOF 5
ENDMDL
MODEL 6
REMARK VINA RESULT:      -7.5      3.863      9.396
REMARK  Name = 
REMARK  6 active torsions:
REMARK  status: ('A' for Active; 'I' for Inactive)
REMARK    1  A    between atoms: C_1  and  O_2
REMARK    2  A    between atoms: O_2  and  C_3
REMARK    3  A    between atoms: C_8  and  S_9
REMARK    4  A    between atoms: S_9  and  C_11
REMARK    5  A    between atoms: C_11  and  C_12
REMARK    6  A    between atoms: C_14  and  N_15
REMARK                            x       y       z     vdW  Elec       q    Type
REMARK                         _______ _______ _______ _____ _____    ______ ____
ROOT
ATOM      1  S   UNL     1       1.407   9.490  18.102  0.00  0.00    +0.000 S 
ATOM      2  O   UNL     1       2.341  10.750  17.975  0.00  0.00    +0.000 OA
ENDROOT
BRANCH   1   8
ATOM      3  C   UNL     1      -4.338  11.862  18.629  0.00  0.00    +0.000 A 
ATOM      4  C   UNL     1      -4.593  11.119  17.475  0.00  0.00    +0.000 A 
ATOM      5  C   UNL     1      -3.590  10.355  16.857  0.00  0.00    +0.000 A 
ATOM      6  C   UNL     1      -2.327  10.373  17.456  0.00  0.00    +0.000 A 
ATOM      7  N   UNL     1      -1.141   9.761  17.144  0.00  0.00    +0.000 N 
ATOM      8  C   UNL     1      -0.214  10.113  18.092  0.00  0.00    +0.000 A 
ATOM      9  N   UNL     1      -0.726  10.938  18.980  0.00  0.00    +0.000 NA
ATOM     10  C   UNL     1      -2.040  11.107  18.602  0.00  0.00    +0.000 A 
ATOM     11  C   UNL     1      -3.054  11.873  19.194  0.00  0.00    +0.000 A 
ATOM     12  H   UNL     1      -0.957   9.151  16.359  0.00  0.00    +0.000 HD
BRANCH   3  14
ATOM     13  C   UNL     1      -6.236  13.276  18.461  0.00  0.00    +0.000 C 
ATOM     14  O   UNL     1      -5.252  12.650  19.278  0.00  0.00    +0.000 OA
ENDBRANCH   3  14
ENDBRANCH   1   8
BRANCH   1  15
ATOM     15  C   UNL     1       1.438   8.835  19.792  0.00  0.00    +0.000 C 
BRANCH  15  16
ATOM     16  C   UNL     1       2.024   7.444  19.825  0.00  0.00    +0.000 A 
ATOM     17  C   UNL     1       3.069   7.086  18.961  0.00  0.00    +0.000 A 
ATOM     18  C   UNL     1       3.611   5.793  18.996  0.00  0.00    +0.000 A 
ATOM     19  C   UNL     1       3.037   4.904  19.916  0.00  0.00    +0.000 A 
ATOM     20  F   UNL     1       3.448   3.627  19.991  0.00  0.00    +0.000 F 
ATOM     21  C   UNL     1       1.997   5.322  20.728  0.00  0.00    +0.000 A 
ATOM     22  N   UNL     1       1.481   6.571  20.710  0.00  0.00    +0.000 NA
BRANCH  18  23
ATOM     23  N   UNL     1       4.627   5.372  18.136  0.00  0.00    +0.000 N 
ATOM     24  C   UNL     1       5.974   5.076  18.652  0.00  0.00    +0.000 C 
ATOM     25  C   UNL     1       6.973   5.101  17.482  0.00  0.00    +0.000 C 
ATOM     26  O   UNL     1       6.601   4.171  16.448  0.00  0.00    +0.000 OA
ATOM     27  C   UNL     1       5.295   4.495  15.936  0.00  0.00    +0.000 C 
ATOM     28  C   UNL     1       4.230   4.453  17.044  0.00  0.00    +0.000 C 
ENDBRANCH  18  23
ENDBRANCH  15  16
ENDBRANCH   1  15
TORSDOF 5
ENDMDL
MODEL 7
REMARK VINA RESULT:      -7.5      1.253      1.666
REMARK  Name = 
REMARK  6 active torsions:
REMARK  status: ('A' for Active; 'I' for Inactive)
REMARK    1  A    between atoms: C_1  and  O_2
REMARK    2  A    between atoms: O_2  and  C_3
REMARK    3  A    between atoms: C_8  and  S_9
REMARK    4  A    between atoms: S_9  and  C_11
REMARK    5  A    between atoms: C_11  and  C_12
REMARK    6  A    between atoms: C_14  and  N_15
REMARK                            x       y       z     vdW  Elec       q    Type
REMARK                         _______ _______ _______ _____ _____    ______ ____
ROOT
ATOM      1  S   UNL     1       1.653   4.853  19.756  0.00  0.00    +0.000 S 
ATOM      2  O   UNL     1       1.664   3.468  20.504  0.00  0.00    +0.000 OA
ENDROOT
BRANCH   1   8
ATOM      3  C   UNL     1       6.890   4.865  16.366  0.00  0.00    +0.000 A 
ATOM      4  C   UNL     1       7.499   5.203  17.576  0.00  0.00    +0.000 A 
ATOM      5  C   UNL     1       6.752   5.369  18.753  0.00  0.00    +0.000 A 
ATOM      6  C   UNL     1       5.371   5.178  18.653  0.00  0.00    +0.000 A 
ATOM      7  N   UNL     1       4.353   5.249  19.569  0.00  0.00    +0.000 N 
ATOM      8  C   UNL     1       3.179   4.945  18.930  0.00  0.00    +0.000 A 
ATOM      9  N   UNL     1       3.375   4.711  17.651  0.00  0.00    +0.000 NA
ATOM     10  C   UNL     1       4.733   4.847  17.462  0.00  0.00    +0.000 A 
ATOM     11  C   UNL     1       5.498   4.699  16.297  0.00  0.00    +0.000 A 
ATOM     12  H   UNL     1       4.431   5.481  20.550  0.00  0.00    +0.000 HD
BRANCH   3  14
ATOM     13  C   UNL     1       6.724   4.416  14.043  0.00  0.00    +0.000 C 
ATOM     14  O   UNL     1       7.542   4.708  15.171  0.00  0.00    +0.000 OA
ENDBRANCH   3  14
ENDBRANCH   1   8
BRANCH   1  15
ATOM     15  C   UNL     1       1.891   6.217  20.925  0.00  0.00    +0.000 C 
BRANCH  15  16
ATOM     16  C   UNL     1       1.628   7.549  20.266  0.00  0.00    +0.000 A 
ATOM     17  C   UNL     1       0.822   8.511  20.891  0.00  0.00    +0.000 A 
ATOM     18  C   UNL     1       0.581   9.749  20.276  0.00  0.00    +0.000 A 
ATOM     19  C   UNL     1       1.171   9.942  19.019  0.00  0.00    +0.000 A 
ATOM     20  F   UNL     1       0.959  11.071  18.322  0.00  0.00    +0.000 F 
ATOM     21  C   UNL     1       1.944   8.942  18.454  0.00  0.00    +0.000 A 
ATOM     22  N   UNL     1       2.191   7.754  19.049  0.00  0.00    +0.000 NA
BRANCH  18  23
ATOM     23  N   UNL     1      -0.241  10.728  20.836  0.00  0.00    +0.000 N 
ATOM     24  C   UNL     1      -1.340  11.322  20.056  0.00  0.00    +0.000 C 
ATOM     25  C   UNL     1      -1.756  12.651  20.713  0.00  0.00    +0.000 C 
ATOM     26  O   UNL     1      -2.140  12.464  22.087  0.00  0.00    +0.000 OA
ATOM     27  C   UNL     1      -1.044  11.912  22.838  0.00  0.00    +0.000 C 
ATOM     28  C   UNL     1      -0.593  10.558  22.265  0.00  0.00    +0.000 C 
ENDBRANCH  18  23
ENDBRANCH  15  16
ENDBRANCH   1  15
TORSDOF 5
ENDMDL
MODEL 8
REMARK VINA RESULT:      -7.5      4.033      9.441
REMARK  Name = 
REMARK  6 active torsions:
REMARK  status: ('A' for Active; 'I' for Inactive)
REMARK    1  A    between atoms: C_1  and  O_2
REMARK    2  A    between atoms: O_2  and  C_3
REMARK    3  A    between atoms: C_8  and  S_9
REMARK    4  A    between atoms: S_9  and  C_11
REMARK    5  A    between atoms: C_11  and  C_12
REMARK    6  A    between atoms: C_14  and  N_15
REMARK                            x       y       z     vdW  Elec       q    Type
REMARK                         _______ _______ _______ _____ _____    ______ ____
ROOT
ATOM      1  S   UNL     1       0.927  10.311  19.088  0.00  0.00    +0.000 S 
ATOM      2  O   UNL     1      -0.606  10.308  18.732  0.00  0.00    +0.000 OA
ENDROOT
BRANCH   1   8
ATOM      3  C   UNL     1       2.252  16.357  18.312  0.00  0.00    +0.000 A 
ATOM      4  C   UNL     1       3.435  15.875  17.748  0.00  0.00    +0.000 A 
ATOM      5  C   UNL     1       3.705  14.499  17.670  0.00  0.00    +0.000 A 
ATOM      6  C   UNL     1       2.731  13.639  18.185  0.00  0.00    +0.000 A 
ATOM      7  N   UNL     1       2.651  12.273  18.274  0.00  0.00    +0.000 N 
ATOM      8  C   UNL     1       1.452  11.950  18.856  0.00  0.00    +0.000 A 
ATOM      9  N   UNL     1       0.768  13.028  19.173  0.00  0.00    +0.000 NA
ATOM     10  C   UNL     1       1.546  14.086  18.759  0.00  0.00    +0.000 A 
ATOM     11  C   UNL     1       1.304  15.465  18.836  0.00  0.00    +0.000 A 
ATOM     12  H   UNL     1       3.341  11.600  17.970  0.00  0.00    +0.000 HD
BRANCH   3  14
ATOM     13  C   UNL     1       1.356  18.064  19.695  0.00  0.00    +0.000 C 
ATOM     14  O   UNL     1       1.924  17.681  18.447  0.00  0.00    +0.000 OA
ENDBRANCH   3  14
ENDBRANCH   1   8
BRANCH   1  15
ATOM     15  C   UNL     1       1.893   9.525  17.772  0.00  0.00    +0.000 C 
BRANCH  15  16
ATOM     16  C   UNL     1       2.492   8.222  18.242  0.00  0.00    +0.000 A 
ATOM     17  C   UNL     1       3.568   7.639  17.556  0.00  0.00    +0.000 A 
ATOM     18  C   UNL     1       4.123   6.428  17.997  0.00  0.00    +0.000 A 
ATOM     19  C   UNL     1       3.529   5.849  19.129  0.00  0.00    +0.000 A 
ATOM     20  F   UNL     1       3.951   4.664  19.600  0.00  0.00    +0.000 F 
ATOM     21  C   UNL     1       2.460   6.474  19.747  0.00  0.00    +0.000 A 
ATOM     22  N   UNL     1       1.931   7.648  19.336  0.00  0.00    +0.000 NA
BRANCH  18  23
ATOM     23  N   UNL     1       5.169   5.786  17.334  0.00  0.00    +0.000 N 
ATOM     24  C   UNL     1       5.274   5.842  15.866  0.00  0.00    +0.000 C 
ATOM     25  C   UNL     1       6.195   4.704  15.389  0.00  0.00    +0.000 C 
ATOM     26  O   UNL     1       7.494   4.781  16.003  0.00  0.00    +0.000 OA
ATOM     27  C   UNL     1       7.372   4.695  17.434  0.00  0.00    +0.000 C 
ATOM     28  C   UNL     1       6.494   5.826  17.994  0.00  0.00    +0.000 C 
ENDBRANCH  18  23
ENDBRANCH  15  16
ENDBRANCH   1  15
TORSDOF 5
ENDMDL
MODEL 9
REMARK VINA RESULT:      -7.4      2.550      3.497
REMARK  Name = 
REMARK  6 active torsions:
REMARK  status: ('A' for Active; 'I' for Inactive)
REMARK    1  A    between atoms: C_1  and  O_2
REMARK    2  A    between atoms: O_2  and  C_3
REMARK    3  A    between atoms: C_8  and  S_9
REMARK    4  A    between atoms: S_9  and  C_11
REMARK    5  A    between atoms: C_11  and  C_12
REMARK    6  A    between atoms: C_14  and  N_15
REMARK                            x       y       z     vdW  Elec       q    Type
REMARK                         _______ _______ _______ _____ _____    ______ ____
ROOT
ATOM      1  S   UNL     1       6.242   6.324  17.193  0.00  0.00    +0.000 S 
ATOM      2  O   UNL     1       7.425   7.359  17.124  0.00  0.00    +0.000 OA
ENDROOT
BRANCH   1   8
ATOM      3  C   UNL     1       6.008   2.898  11.985  0.00  0.00    +0.000 A 
ATOM      4  C   UNL     1       7.173   3.590  11.652  0.00  0.00    +0.000 A 
ATOM      5  C   UNL     1       7.715   4.569  12.501  0.00  0.00    +0.000 A 
ATOM      6  C   UNL     1       7.031   4.812  13.695  0.00  0.00    +0.000 A 
ATOM      7  N   UNL     1       7.262   5.669  14.741  0.00  0.00    +0.000 N 
ATOM      8  C   UNL     1       6.276   5.480  15.675  0.00  0.00    +0.000 A 
ATOM      9  N   UNL     1       5.408   4.573  15.281  0.00  0.00    +0.000 NA
ATOM     10  C   UNL     1       5.865   4.145  14.054  0.00  0.00    +0.000 A 
ATOM     11  C   UNL     1       5.335   3.181  13.184  0.00  0.00    +0.000 A 
ATOM     12  H   UNL     1       8.020   6.331  14.831  0.00  0.00    +0.000 HD
BRANCH   3  14
ATOM     13  C   UNL     1       6.090   0.708  11.077  0.00  0.00    +0.000 C 
ATOM     14  O   UNL     1       5.403   1.948  11.204  0.00  0.00    +0.000 OA
ENDBRANCH   3  14
ENDBRANCH   1   8
BRANCH   1  15
ATOM     15  C   UNL     1       4.645   7.160  17.005  0.00  0.00    +0.000 C 
BRANCH  15  16
ATOM     16  C   UNL     1       3.712   6.809  18.139  0.00  0.00    +0.000 A 
ATOM     17  C   UNL     1       2.872   7.781  18.703  0.00  0.00    +0.000 A 
ATOM     18  C   UNL     1       2.006   7.451  19.755  0.00  0.00    +0.000 A 
ATOM     19  C   UNL     1       2.052   6.123  20.203  0.00  0.00    +0.000 A 
ATOM     20  F   UNL     1       1.301   5.718  21.241  0.00  0.00    +0.000 F 
ATOM     21  C   UNL     1       2.917   5.220  19.610  0.00  0.00    +0.000 A 
ATOM     22  N   UNL     1       3.742   5.529  18.585  0.00  0.00    +0.000 NA
BRANCH  18  23
ATOM     23  N   UNL     1       1.175   8.385  20.376  0.00  0.00    +0.000 N 
ATOM     24  C   UNL     1       1.330   8.692  21.808  0.00  0.00    +0.000 C 
ATOM     25  C   UNL     1       0.039   9.359  22.317  0.00  0.00    +0.000 C 
ATOM     26  O   UNL     1      -0.276  10.545  21.565  0.00  0.00    +0.000 OA
ATOM     27  C   UNL     1      -0.453  10.218  20.175  0.00  0.00    +0.000 C 
ATOM     28  C   UNL     1       0.813   9.581  19.580  0.00  0.00    +0.000 C 
ENDBRANCH  18  23
ENDBRANCH  15  16
ENDBRANCH   1  15
TORSDOF 5
ENDMDL
