MODEL 1
REMARK VINA RESULT:      -6.8      0.000      0.000
REMARK  Name = 
REMARK  18 active torsions:
REMARK  status: ('A' for Active; 'I' for Inactive)
REMARK    1  A    between atoms: C_1  and  C_2
REMARK    2  A    between atoms: C_2  and  C_3
REMARK    3  A    between atoms: C_3  and  C_4
REMARK    4  A    between atoms: C_4  and  C_5
REMARK    5  A    between atoms: C_5  and  C_6
REMARK    6  A    between atoms: C_5  and  C_8
REMARK    7  A    between atoms: C_6  and  C_7
REMARK    8  A    between atoms: C_8  and  O_9
REMARK    9  A    between atoms: C_8  and  C_10
REMARK   10  A    between atoms: C_11  and  C_12
REMARK   11  A    between atoms: C_17  and  C_18
REMARK   12  A    between atoms: C_18  and  C_19
REMARK   13  A    between atoms: C_19  and  C_20
REMARK   14  A    between atoms: C_20  and  C_21
REMARK   15  A    between atoms: C_21  and  C_22
REMARK   16  A    between atoms: C_22  and  C_23
REMARK   17  A    between atoms: C_23  and  C_24
REMARK   18  A    between atoms: C_24  and  O_26
REMARK                            x       y       z     vdW  Elec       q    Type
REMARK                         _______ _______ _______ _____ _____    ______ ____
ROOT
ATOM      1  C   UNL     1       4.616   5.312  17.102  0.00  0.00    +0.000 C 
ATOM      2  C   UNL     1       4.558   4.217  16.028  0.00  0.00    +0.000 C 
ATOM      3  C   UNL     1       5.970   4.010  15.514  0.00  0.00    +0.000 C 
ATOM      4  C   UNL     1       6.635   5.319  15.802  0.00  0.00    +0.000 C 
ATOM      5  O   UNL     1       7.683   5.655  15.263  0.00  0.00    +0.000 OA
ATOM      6  C   UNL     1       5.882   6.170  16.805  0.00  0.00    +0.000 C 
ENDROOT
BRANCH   1   8
ATOM      7  C   UNL     1       4.506   3.440  18.771  0.00  0.00    +0.000 C 
ATOM      8  C   UNL     1       4.513   4.758  18.504  0.00  0.00    +0.000 C 
BRANCH   7   9
ATOM      9  C   UNL     1       4.170   2.866  20.122  0.00  0.00    +0.000 C 
BRANCH   9  10
ATOM     10  O   UNL     1       5.177   1.913  20.450  0.00  0.00    +0.000 OA
ATOM     11  H   UNL     1       5.669   2.250  21.216  0.00  0.00    +0.000 HD
ENDBRANCH   9  10
BRANCH   9  12
ATOM     12  C   UNL     1       2.769   2.200  20.192  0.00  0.00    +0.000 C 
BRANCH  12  13
ATOM     13  C   UNL     1       2.133   1.941  18.801  0.00  0.00    +0.000 C 
ATOM     14  C   UNL     1       0.764   2.565  18.560  0.00  0.00    +0.000 C 
ENDBRANCH  12  13
BRANCH  12  15
ATOM     15  C   UNL     1       1.846   3.017  21.140  0.00  0.00    +0.000 C 
BRANCH  15  16
ATOM     16  C   UNL     1       2.264   4.481  21.275  0.00  0.00    +0.000 C 
BRANCH  16  18
ATOM     17  C   UNL     1       2.103   6.771  20.306  0.00  0.00    +0.000 C 
ATOM     18  C   UNL     1       1.398   5.428  20.447  0.00  0.00    +0.000 C 
ENDBRANCH  16  18
ENDBRANCH  15  16
ENDBRANCH  12  15
ENDBRANCH   9  12
ENDBRANCH   7   9
ENDBRANCH   1   8
BRANCH   6  19
ATOM     19  C   UNL     1       6.729   6.554  18.033  0.00  0.00    +0.000 C 
BRANCH  19  20
ATOM     20  C   UNL     1       8.030   7.299  17.714  0.00  0.00    +0.000 C 
BRANCH  20  21
ATOM     21  C   UNL     1       7.826   8.818  17.802  0.00  0.00    +0.000 C 
BRANCH  21  22
ATOM     22  C   UNL     1       8.770   9.450  18.825  0.00  0.00    +0.000 C 
BRANCH  22  23
ATOM     23  C   UNL     1       9.443  10.700  18.256  0.00  0.00    +0.000 C 
BRANCH  23  24
ATOM     24  C   UNL     1       8.402  11.701  17.756  0.00  0.00    +0.000 C 
BRANCH  24  25
ATOM     25  C   UNL     1       8.991  13.081  17.576  0.00  0.00    +0.000 C 
ATOM     26  O   UNL     1      10.162  13.376  17.713  0.00  0.00    +0.000 OA
BRANCH  25  27
ATOM     27  O   UNL     1       8.048  13.996  17.235  0.00  0.00    +0.000 OA
ATOM     28  H   UNL     1       7.143  13.633  17.212  0.00  0.00    +0.000 HD
ENDBRANCH  25  27
ENDBRANCH  24  25
ENDBRANCH  23  24
ENDBRANCH  22  23
ENDBRANCH  21  22
ENDBRANCH  20  21
ENDBRANCH  19  20
ENDBRANCH   6  19
TORSDOF 16
ENDMDL
MODEL 2
REMARK VINA RESULT:      -6.8      3.895      8.471
REMARK  Name = 
REMARK  18 active torsions:
REMARK  status: ('A' for Active; 'I' for Inactive)
REMARK    1  A    between atoms: C_1  and  C_2
REMARK    2  A    between atoms: C_2  and  C_3
REMARK    3  A    between atoms: C_3  and  C_4
REMARK    4  A    between atoms: C_4  and  C_5
REMARK    5  A    between atoms: C_5  and  C_6
REMARK    6  A    between atoms: C_5  and  C_8
REMARK    7  A    between atoms: C_6  and  C_7
REMARK    8  A    between atoms: C_8  and  O_9
REMARK    9  A    between atoms: C_8  and  C_10
REMARK   10  A    between atoms: C_11  and  C_12
REMARK   11  A    between atoms: C_17  and  C_18
REMARK   12  A    between atoms: C_18  and  C_19
REMARK   13  A    between atoms: C_19  and  C_20
REMARK   14  A    between atoms: C_20  and  C_21
REMARK   15  A    between atoms: C_21  and  C_22
REMARK   16  A    between atoms: C_22  and  C_23
REMARK   17  A    between atoms: C_23  and  C_24
REMARK   18  A    between atoms: C_24  and  O_26
REMARK                            x       y       z     vdW  Elec       q    Type
REMARK                         _______ _______ _______ _____ _____    ______ ____
ROOT
ATOM      1  C   UNL     1       5.511   5.509  15.959  0.00  0.00    +0.000 C 
ATOM      2  C   UNL     1       6.600   6.376  16.605  0.00  0.00    +0.000 C 
ATOM      3  C   UNL     1       6.786   5.887  18.029  0.00  0.00    +0.000 C 
ATOM      4  C   UNL     1       5.470   5.250  18.347  0.00  0.00    +0.000 C 
ATOM      5  O   UNL     1       5.118   5.011  19.496  0.00  0.00    +0.000 OA
ATOM      6  C   UNL     1       4.635   4.947  17.119  0.00  0.00    +0.000 C 
ENDROOT
BRANCH   1   8
ATOM      7  C   UNL     1       6.621   4.805  13.820  0.00  0.00    +0.000 C 
ATOM      8  C   UNL     1       6.074   4.482  15.006  0.00  0.00    +0.000 C 
BRANCH   7   9
ATOM      9  C   UNL     1       6.970   3.794  12.761  0.00  0.00    +0.000 C 
BRANCH   9  10
ATOM     10  O   UNL     1       7.492   4.503  11.641  0.00  0.00    +0.000 OA
ATOM     11  H   UNL     1       8.225   5.057  11.953  0.00  0.00    +0.000 HD
ENDBRANCH   9  10
BRANCH   9  12
ATOM     12  C   UNL     1       5.773   2.911  12.315  0.00  0.00    +0.000 C 
BRANCH  12  13
ATOM     13  C   UNL     1       6.108   1.956  11.139  0.00  0.00    +0.000 C 
ATOM     14  C   UNL     1       5.906   0.469  11.400  0.00  0.00    +0.000 C 
ENDBRANCH  12  13
BRANCH  12  15
ATOM     15  C   UNL     1       4.534   3.808  12.035  0.00  0.00    +0.000 C 
BRANCH  15  16
ATOM     16  C   UNL     1       3.612   3.242  10.954  0.00  0.00    +0.000 C 
BRANCH  16  18
ATOM     17  C   UNL     1       2.340   4.598   9.295  0.00  0.00    +0.000 C 
ATOM     18  C   UNL     1       3.701   4.004   9.634  0.00  0.00    +0.000 C 
ENDBRANCH  16  18
ENDBRANCH  15  16
ENDBRANCH  12  15
ENDBRANCH   9  12
ENDBRANCH   7   9
ENDBRANCH   1   8
BRANCH   6  19
ATOM     19  C   UNL     1       4.246   3.461  17.000  0.00  0.00    +0.000 C 
BRANCH  19  20
ATOM     20  C   UNL     1       2.740   3.192  16.911  0.00  0.00    +0.000 C 
BRANCH  20  21
ATOM     21  C   UNL     1       2.318   2.108  17.913  0.00  0.00    +0.000 C 
BRANCH  21  22
ATOM     22  C   UNL     1       0.882   2.321  18.394  0.00  0.00    +0.000 C 
BRANCH  22  23
ATOM     23  C   UNL     1       0.848   2.707  19.874  0.00  0.00    +0.000 C 
BRANCH  23  24
ATOM     24  C   UNL     1       1.084   4.206  20.052  0.00  0.00    +0.000 C 
BRANCH  24  25
ATOM     25  C   UNL     1       2.002   4.495  21.218  0.00  0.00    +0.000 C 
ATOM     26  O   UNL     1       2.344   3.695  22.067  0.00  0.00    +0.000 OA
BRANCH  25  27
ATOM     27  O   UNL     1       2.422   5.786  21.227  0.00  0.00    +0.000 OA
ATOM     28  H   UNL     1       3.068   5.990  20.525  0.00  0.00    +0.000 HD
ENDBRANCH  25  27
ENDBRANCH  24  25
ENDBRANCH  23  24
ENDBRANCH  22  23
ENDBRANCH  21  22
ENDBRANCH  20  21
ENDBRANCH  19  20
ENDBRANCH   6  19
TORSDOF 16
ENDMDL
MODEL 3
REMARK VINA RESULT:      -6.7      1.344      2.009
REMARK  Name = 
REMARK  18 active torsions:
REMARK  status: ('A' for Active; 'I' for Inactive)
REMARK    1  A    between atoms: C_1  and  C_2
REMARK    2  A    between atoms: C_2  and  C_3
REMARK    3  A    between atoms: C_3  and  C_4
REMARK    4  A    between atoms: C_4  and  C_5
REMARK    5  A    between atoms: C_5  and  C_6
REMARK    6  A    between atoms: C_5  and  C_8
REMARK    7  A    between atoms: C_6  and  C_7
REMARK    8  A    between atoms: C_8  and  O_9
REMARK    9  A    between atoms: C_8  and  C_10
REMARK   10  A    between atoms: C_11  and  C_12
REMARK   11  A    between atoms: C_17  and  C_18
REMARK   12  A    between atoms: C_18  and  C_19
REMARK   13  A    between atoms: C_19  and  C_20
REMARK   14  A    between atoms: C_20  and  C_21
REMARK   15  A    between atoms: C_21  and  C_22
REMARK   16  A    between atoms: C_22  and  C_23
REMARK   17  A    between atoms: C_23  and  C_24
REMARK   18  A    between atoms: C_24  and  O_26
REMARK                            x       y       z     vdW  Elec       q    Type
REMARK                         _______ _______ _______ _____ _____    ______ ____
ROOT
ATOM      1  C   UNL     1       4.942   5.241  16.507  0.00  0.00    +0.000 C 
ATOM      2  C   UNL     1       4.863   4.068  15.520  0.00  0.00    +0.000 C 
ATOM      3  C   UNL     1       6.259   3.841  14.971  0.00  0.00    +0.000 C 
ATOM      4  C   UNL     1       6.913   5.177  15.137  0.00  0.00    +0.000 C 
ATOM      5  O   UNL     1       7.936   5.484  14.536  0.00  0.00    +0.000 OA
ATOM      6  C   UNL     1       6.184   6.090  16.100  0.00  0.00    +0.000 C 
ENDROOT
BRANCH   1   8
ATOM      7  C   UNL     1       4.835   3.498  18.311  0.00  0.00    +0.000 C 
ATOM      8  C   UNL     1       4.898   4.792  17.948  0.00  0.00    +0.000 C 
BRANCH   7   9
ATOM      9  C   UNL     1       4.553   3.040  19.717  0.00  0.00    +0.000 C 
BRANCH   9  10
ATOM     10  O   UNL     1       5.116   1.741  19.870  0.00  0.00    +0.000 OA
ATOM     11  H   UNL     1       5.926   1.825  20.398  0.00  0.00    +0.000 HD
ENDBRANCH   9  10
BRANCH   9  12
ATOM     12  C   UNL     1       3.043   3.008  20.079  0.00  0.00    +0.000 C 
BRANCH  12  13
ATOM     13  C   UNL     1       2.765   2.613  21.553  0.00  0.00    +0.000 C 
ATOM     14  C   UNL     1       1.320   2.726  22.020  0.00  0.00    +0.000 C 
ENDBRANCH  12  13
BRANCH  12  15
ATOM     15  C   UNL     1       2.277   2.120  19.058  0.00  0.00    +0.000 C 
BRANCH  15  16
ATOM     16  C   UNL     1       1.046   2.807  18.466  0.00  0.00    +0.000 C 
BRANCH  16  18
ATOM     17  C   UNL     1       1.554   5.205  18.019  0.00  0.00    +0.000 C 
ATOM     18  C   UNL     1       1.394   3.829  17.386  0.00  0.00    +0.000 C 
ENDBRANCH  16  18
ENDBRANCH  15  16
ENDBRANCH  12  15
ENDBRANCH   9  12
ENDBRANCH   7   9
ENDBRANCH   1   8
BRANCH   6  19
ATOM     19  C   UNL     1       7.067   6.576  17.265  0.00  0.00    +0.000 C 
BRANCH  19  20
ATOM     20  C   UNL     1       7.509   8.041  17.174  0.00  0.00    +0.000 C 
BRANCH  20  21
ATOM     21  C   UNL     1       8.429   8.409  18.347  0.00  0.00    +0.000 C 
BRANCH  21  22
ATOM     22  C   UNL     1       8.730   9.908  18.371  0.00  0.00    +0.000 C 
BRANCH  22  23
ATOM     23  C   UNL     1       9.408  10.312  19.682  0.00  0.00    +0.000 C 
BRANCH  23  24
ATOM     24  C   UNL     1      10.483  11.370  19.436  0.00  0.00    +0.000 C 
BRANCH  24  25
ATOM     25  C   UNL     1       9.984  12.761  19.755  0.00  0.00    +0.000 C 
ATOM     26  O   UNL     1       9.061  13.328  19.204  0.00  0.00    +0.000 OA
BRANCH  25  27
ATOM     27  O   UNL     1      10.698  13.340  20.754  0.00  0.00    +0.000 OA
ATOM     28  H   UNL     1      11.333  12.735  21.181  0.00  0.00    +0.000 HD
ENDBRANCH  25  27
ENDBRANCH  24  25
ENDBRANCH  23  24
ENDBRANCH  22  23
ENDBRANCH  21  22
ENDBRANCH  20  21
ENDBRANCH  19  20
ENDBRANCH   6  19
TORSDOF 16
ENDMDL
MODEL 4
REMARK VINA RESULT:      -6.7      3.396      7.078
REMARK  Name = 
REMARK  18 active torsions:
REMARK  status: ('A' for Active; 'I' for Inactive)
REMARK    1  A    between atoms: C_1  and  C_2
REMARK    2  A    between atoms: C_2  and  C_3
REMARK    3  A    between atoms: C_3  and  C_4
REMARK    4  A    between atoms: C_4  and  C_5
REMARK    5  A    between atoms: C_5  and  C_6
REMARK    6  A    between atoms: C_5  and  C_8
REMARK    7  A    between atoms: C_6  and  C_7
REMARK    8  A    between atoms: C_8  and  O_9
REMARK    9  A    between atoms: C_8  and  C_10
REMARK   10  A    between atoms: C_11  and  C_12
REMARK   11  A    between atoms: C_17  and  C_18
REMARK   12  A    between atoms: C_18  and  C_19
REMARK   13  A    between atoms: C_19  and  C_20
REMARK   14  A    between atoms: C_20  and  C_21
REMARK   15  A    between atoms: C_21  and  C_22
REMARK   16  A    between atoms: C_22  and  C_23
REMARK   17  A    between atoms: C_23  and  C_24
REMARK   18  A    between atoms: C_24  and  O_26
REMARK                            x       y       z     vdW  Elec       q    Type
REMARK                         _______ _______ _______ _____ _____    ______ ____
ROOT
ATOM      1  C   UNL     1       3.942   2.720  19.376  0.00  0.00    +0.000 C 
ATOM      2  C   UNL     1       3.524   2.177  18.002  0.00  0.00    +0.000 C 
ATOM      3  C   UNL     1       2.105   2.643  17.742  0.00  0.00    +0.000 C 
ATOM      4  C   UNL     1       1.559   2.864  19.117  0.00  0.00    +0.000 C 
ATOM      5  O   UNL     1       0.356   2.946  19.340  0.00  0.00    +0.000 OA
ATOM      6  C   UNL     1       2.631   2.961  20.183  0.00  0.00    +0.000 C 
ENDROOT
BRANCH   1   8
ATOM      7  C   UNL     1       5.672   4.118  18.211  0.00  0.00    +0.000 C 
ATOM      8  C   UNL     1       4.878   3.901  19.275  0.00  0.00    +0.000 C 
BRANCH   7   9
ATOM      9  C   UNL     1       6.772   5.145  18.189  0.00  0.00    +0.000 C 
BRANCH   9  10
ATOM     10  O   UNL     1       7.330   5.209  19.498  0.00  0.00    +0.000 OA
ATOM     11  H   UNL     1       7.774   4.364  19.676  0.00  0.00    +0.000 HD
ENDBRANCH   9  10
BRANCH   9  12
ATOM     12  C   UNL     1       6.306   6.558  17.743  0.00  0.00    +0.000 C 
BRANCH  12  13
ATOM     13  C   UNL     1       5.143   6.535  16.717  0.00  0.00    +0.000 C 
ATOM     14  C   UNL     1       5.460   5.936  15.353  0.00  0.00    +0.000 C 
ENDBRANCH  12  13
BRANCH  12  15
ATOM     15  C   UNL     1       7.530   7.385  17.256  0.00  0.00    +0.000 C 
BRANCH  15  16
ATOM     16  C   UNL     1       8.249   8.121  18.387  0.00  0.00    +0.000 C 
BRANCH  16  18
ATOM     17  C   UNL     1       9.313  10.227  19.188  0.00  0.00    +0.000 C 
ATOM     18  C   UNL     1       8.430   9.611  18.110  0.00  0.00    +0.000 C 
ENDBRANCH  16  18
ENDBRANCH  15  16
ENDBRANCH  12  15
ENDBRANCH   9  12
ENDBRANCH   7   9
ENDBRANCH   1   8
BRANCH   6  19
ATOM     19  C   UNL     1       2.576   4.277  20.983  0.00  0.00    +0.000 C 
BRANCH  19  20
ATOM     20  C   UNL     1       1.644   5.347  20.403  0.00  0.00    +0.000 C 
BRANCH  20  21
ATOM     21  C   UNL     1       2.442   6.408  19.631  0.00  0.00    +0.000 C 
BRANCH  21  22
ATOM     22  C   UNL     1       1.974   7.821  19.978  0.00  0.00    +0.000 C 
BRANCH  22  23
ATOM     23  C   UNL     1       1.016   7.806  21.171  0.00  0.00    +0.000 C 
BRANCH  23  24
ATOM     24  C   UNL     1       1.310   8.967  22.121  0.00  0.00    +0.000 C 
BRANCH  24  25
ATOM     25  C   UNL     1       0.152   9.935  22.200  0.00  0.00    +0.000 C 
ATOM     26  O   UNL     1      -0.133  10.622  23.161  0.00  0.00    +0.000 OA
BRANCH  25  27
ATOM     27  O   UNL     1      -0.568   9.962  21.050  0.00  0.00    +0.000 OA
ATOM     28  H   UNL     1      -1.280   9.296  21.020  0.00  0.00    +0.000 HD
ENDBRANCH  25  27
ENDBRANCH  24  25
ENDBRANCH  23  24
ENDBRANCH  22  23
ENDBRANCH  21  22
ENDBRANCH  20  21
ENDBRANCH  19  20
ENDBRANCH   6  19
TORSDOF 16
ENDMDL
MODEL 5
REMARK VINA RESULT:      -6.7      2.930      6.309
REMARK  Name = 
REMARK  18 active torsions:
REMARK  status: ('A' for Active; 'I' for Inactive)
REMARK    1  A    between atoms: C_1  and  C_2
REMARK    2  A    between atoms: C_2  and  C_3
REMARK    3  A    between atoms: C_3  and  C_4
REMARK    4  A    between atoms: C_4  and  C_5
REMARK    5  A    between atoms: C_5  and  C_6
REMARK    6  A    between atoms: C_5  and  C_8
REMARK    7  A    between atoms: C_6  and  C_7
REMARK    8  A    between atoms: C_8  and  O_9
REMARK    9  A    between atoms: C_8  and  C_10
REMARK   10  A    between atoms: C_11  and  C_12
REMARK   11  A    between atoms: C_17  and  C_18
REMARK   12  A    between atoms: C_18  and  C_19
REMARK   13  A    between atoms: C_19  and  C_20
REMARK   14  A    between atoms: C_20  and  C_21
REMARK   15  A    between atoms: C_21  and  C_22
REMARK   16  A    between atoms: C_22  and  C_23
REMARK   17  A    between atoms: C_23  and  C_24
REMARK   18  A    between atoms: C_24  and  O_26
REMARK                            x       y       z     vdW  Elec       q    Type
REMARK                         _______ _______ _______ _____ _____    ______ ____
ROOT
ATOM      1  C   UNL     1       6.773   4.830  17.895  0.00  0.00    +0.000 C 
ATOM      2  C   UNL     1       7.804   5.095  19.002  0.00  0.00    +0.000 C 
ATOM      3  C   UNL     1       8.027   6.594  19.066  0.00  0.00    +0.000 C 
ATOM      4  C   UNL     1       7.656   7.054  17.691  0.00  0.00    +0.000 C 
ATOM      5  O   UNL     1       7.992   8.149  17.253  0.00  0.00    +0.000 OA
ATOM      6  C   UNL     1       6.846   6.038  16.913  0.00  0.00    +0.000 C 
ENDROOT
BRANCH   1   8
ATOM      7  C   UNL     1       4.562   3.643  17.850  0.00  0.00    +0.000 C 
ATOM      8  C   UNL     1       5.402   4.511  18.442  0.00  0.00    +0.000 C 
BRANCH   7   9
ATOM      9  C   UNL     1       3.116   3.488  18.239  0.00  0.00    +0.000 C 
BRANCH   9  10
ATOM     10  O   UNL     1       2.351   3.411  17.040  0.00  0.00    +0.000 OA
ATOM     11  H   UNL     1       2.920   3.686  16.303  0.00  0.00    +0.000 HD
ENDBRANCH   9  10
BRANCH   9  12
ATOM     12  C   UNL     1       2.578   4.636  19.136  0.00  0.00    +0.000 C 
BRANCH  12  13
ATOM     13  C   UNL     1       1.469   4.187  20.123  0.00  0.00    +0.000 C 
ATOM     14  C   UNL     1       1.938   3.459  21.377  0.00  0.00    +0.000 C 
ENDBRANCH  12  13
BRANCH  12  15
ATOM     15  C   UNL     1       2.150   5.839  18.249  0.00  0.00    +0.000 C 
BRANCH  15  16
ATOM     16  C   UNL     1       2.411   7.195  18.905  0.00  0.00    +0.000 C 
BRANCH  16  18
ATOM     17  C   UNL     1       1.394   9.264  17.960  0.00  0.00    +0.000 C 
ATOM     18  C   UNL     1       2.591   8.324  17.894  0.00  0.00    +0.000 C 
ENDBRANCH  16  18
ENDBRANCH  15  16
ENDBRANCH  12  15
ENDBRANCH   9  12
ENDBRANCH   7   9
ENDBRANCH   1   8
BRANCH   6  19
ATOM     19  C   UNL     1       5.489   6.583  16.429  0.00  0.00    +0.000 C 
BRANCH  19  20
ATOM     20  C   UNL     1       5.147   6.264  14.969  0.00  0.00    +0.000 C 
BRANCH  20  21
ATOM     21  C   UNL     1       5.395   4.780  14.661  0.00  0.00    +0.000 C 
BRANCH  21  22
ATOM     22  C   UNL     1       6.749   4.569  13.982  0.00  0.00    +0.000 C 
BRANCH  22  23
ATOM     23  C   UNL     1       6.643   3.546  12.850  0.00  0.00    +0.000 C 
BRANCH  23  24
ATOM     24  C   UNL     1       5.520   3.917  11.882  0.00  0.00    +0.000 C 
BRANCH  24  25
ATOM     25  C   UNL     1       4.763   2.698  11.406  0.00  0.00    +0.000 C 
ATOM     26  O   UNL     1       3.611   2.686  11.019  0.00  0.00    +0.000 OA
BRANCH  25  27
ATOM     27  O   UNL     1       5.523   1.575  11.460  0.00  0.00    +0.000 OA
ATOM     28  H   UNL     1       6.482   1.750  11.419  0.00  0.00    +0.000 HD
ENDBRANCH  25  27
ENDBRANCH  24  25
ENDBRANCH  23  24
ENDBRANCH  22  23
ENDBRANCH  21  22
ENDBRANCH  20  21
ENDBRANCH  19  20
ENDBRANCH   6  19
TORSDOF 16
ENDMDL
MODEL 6
REMARK VINA RESULT:      -6.6      3.380      6.590
REMARK  Name = 
REMARK  18 active torsions:
REMARK  status: ('A' for Active; 'I' for Inactive)
REMARK    1  A    between atoms: C_1  and  C_2
REMARK    2  A    between atoms: C_2  and  C_3
REMARK    3  A    between atoms: C_3  and  C_4
REMARK    4  A    between atoms: C_4  and  C_5
REMARK    5  A    between atoms: C_5  and  C_6
REMARK    6  A    between atoms: C_5  and  C_8
REMARK    7  A    between atoms: C_6  and  C_7
REMARK    8  A    between atoms: C_8  and  O_9
REMARK    9  A    between atoms: C_8  and  C_10
REMARK   10  A    between atoms: C_11  and  C_12
REMARK   11  A    between atoms: C_17  and  C_18
REMARK   12  A    between atoms: C_18  and  C_19
REMARK   13  A    between atoms: C_19  and  C_20
REMARK   14  A    between atoms: C_20  and  C_21
REMARK   15  A    between atoms: C_21  and  C_22
REMARK   16  A    between atoms: C_22  and  C_23
REMARK   17  A    between atoms: C_23  and  C_24
REMARK   18  A    between atoms: C_24  and  O_26
REMARK                            x       y       z     vdW  Elec       q    Type
REMARK                         _______ _______ _______ _____ _____    ______ ____
ROOT
ATOM      1  C   UNL     1       1.413   4.468  20.354  0.00  0.00    +0.000 C 
ATOM      2  C   UNL     1       1.944   3.488  21.409  0.00  0.00    +0.000 C 
ATOM      3  C   UNL     1       3.045   2.672  20.760  0.00  0.00    +0.000 C 
ATOM      4  C   UNL     1       2.707   2.738  19.304  0.00  0.00    +0.000 C 
ATOM      5  O   UNL     1       3.178   1.955  18.486  0.00  0.00    +0.000 OA
ATOM      6  C   UNL     1       1.733   3.846  18.961  0.00  0.00    +0.000 C 
ENDROOT
BRANCH   1   8
ATOM      7  C   UNL     1       1.097   6.886  20.947  0.00  0.00    +0.000 C 
ATOM      8  C   UNL     1       1.905   5.879  20.571  0.00  0.00    +0.000 C 
BRANCH   7   9
ATOM      9  C   UNL     1       1.512   8.333  20.940  0.00  0.00    +0.000 C 
BRANCH   9  10
ATOM     10  O   UNL     1       1.627   8.758  22.295  0.00  0.00    +0.000 OA
ATOM     11  H   UNL     1       0.938   8.308  22.809  0.00  0.00    +0.000 HD
ENDBRANCH   9  10
BRANCH   9  12
ATOM     12  C   UNL     1       0.533   9.266  20.176  0.00  0.00    +0.000 C 
BRANCH  12  13
ATOM     13  C   UNL     1       1.210  10.089  19.048  0.00  0.00    +0.000 C 
ATOM     14  C   UNL     1       1.665   9.306  17.823  0.00  0.00    +0.000 C 
ENDBRANCH  12  13
BRANCH  12  15
ATOM     15  C   UNL     1      -0.248  10.150  21.188  0.00  0.00    +0.000 C 
BRANCH  15  16
ATOM     16  C   UNL     1      -0.977  11.321  20.529  0.00  0.00    +0.000 C 
BRANCH  16  18
ATOM     17  C   UNL     1      -1.317  11.792  22.952  0.00  0.00    +0.000 C 
ATOM     18  C   UNL     1      -1.632  12.262  21.538  0.00  0.00    +0.000 C 
ENDBRANCH  16  18
ENDBRANCH  15  16
ENDBRANCH  12  15
ENDBRANCH   9  12
ENDBRANCH   7   9
ENDBRANCH   1   8
BRANCH   6  19
ATOM     19  C   UNL     1       2.275   4.826  17.904  0.00  0.00    +0.000 C 
BRANCH  19  20
ATOM     20  C   UNL     1       3.788   5.068  17.962  0.00  0.00    +0.000 C 
BRANCH  20  21
ATOM     21  C   UNL     1       4.417   4.943  16.567  0.00  0.00    +0.000 C 
BRANCH  21  22
ATOM     22  C   UNL     1       5.590   3.962  16.569  0.00  0.00    +0.000 C 
BRANCH  22  23
ATOM     23  C   UNL     1       6.926   4.701  16.477  0.00  0.00    +0.000 C 
BRANCH  23  24
ATOM     24  C   UNL     1       7.726   4.545  17.769  0.00  0.00    +0.000 C 
BRANCH  24  25
ATOM     25  C   UNL     1       7.564   5.742  18.678  0.00  0.00    +0.000 C 
ATOM     26  O   UNL     1       7.882   6.884  18.410  0.00  0.00    +0.000 OA
BRANCH  25  27
ATOM     27  O   UNL     1       7.012   5.403  19.871  0.00  0.00    +0.000 OA
ATOM     28  H   UNL     1       6.821   6.170  20.443  0.00  0.00    +0.000 HD
ENDBRANCH  25  27
ENDBRANCH  24  25
ENDBRANCH  23  24
ENDBRANCH  22  23
ENDBRANCH  21  22
ENDBRANCH  20  21
ENDBRANCH  19  20
ENDBRANCH   6  19
TORSDOF 16
ENDMDL
MODEL 7
REMARK VINA RESULT:      -6.6      3.654      6.792
REMARK  Name = 
REMARK  18 active torsions:
REMARK  status: ('A' for Active; 'I' for Inactive)
REMARK    1  A    between atoms: C_1  and  C_2
REMARK    2  A    between atoms: C_2  and  C_3
REMARK    3  A    between atoms: C_3  and  C_4
REMARK    4  A    between atoms: C_4  and  C_5
REMARK    5  A    between atoms: C_5  and  C_6
REMARK    6  A    between atoms: C_5  and  C_8
REMARK    7  A    between atoms: C_6  and  C_7
REMARK    8  A    between atoms: C_8  and  O_9
REMARK    9  A    between atoms: C_8  and  C_10
REMARK   10  A    between atoms: C_11  and  C_12
REMARK   11  A    between atoms: C_17  and  C_18
REMARK   12  A    between atoms: C_18  and  C_19
REMARK   13  A    between atoms: C_19  and  C_20
REMARK   14  A    between atoms: C_20  and  C_21
REMARK   15  A    between atoms: C_21  and  C_22
REMARK   16  A    between atoms: C_22  and  C_23
REMARK   17  A    between atoms: C_23  and  C_24
REMARK   18  A    between atoms: C_24  and  O_26
REMARK                            x       y       z     vdW  Elec       q    Type
REMARK                         _______ _______ _______ _____ _____    ______ ____
ROOT
ATOM      1  C   UNL     1       1.271   4.560  20.400  0.00  0.00    +0.000 C 
ATOM      2  C   UNL     1       1.844   3.582  21.435  0.00  0.00    +0.000 C 
ATOM      3  C   UNL     1       2.852   2.702  20.721  0.00  0.00    +0.000 C 
ATOM      4  C   UNL     1       2.399   2.749  19.296  0.00  0.00    +0.000 C 
ATOM      5  O   UNL     1       2.767   1.928  18.464  0.00  0.00    +0.000 OA
ATOM      6  C   UNL     1       1.448   3.892  19.003  0.00  0.00    +0.000 C 
ENDROOT
BRANCH   1   8
ATOM      7  C   UNL     1       1.099   7.012  20.909  0.00  0.00    +0.000 C 
ATOM      8  C   UNL     1       1.840   5.952  20.538  0.00  0.00    +0.000 C 
BRANCH   7   9
ATOM      9  C   UNL     1       1.582   8.435  20.825  0.00  0.00    +0.000 C 
BRANCH   9  10
ATOM     10  O   UNL     1       1.893   8.866  22.147  0.00  0.00    +0.000 OA
ATOM     11  H   UNL     1       1.833   8.096  22.734  0.00  0.00    +0.000 HD
ENDBRANCH   9  10
BRANCH   9  12
ATOM     12  C   UNL     1       0.561   9.411  20.179  0.00  0.00    +0.000 C 
BRANCH  12  13
ATOM     13  C   UNL     1       0.656   9.477  18.632  0.00  0.00    +0.000 C 
ATOM     14  C   UNL     1       2.051   9.335  18.036  0.00  0.00    +0.000 C 
ENDBRANCH  12  13
BRANCH  12  15
ATOM     15  C   UNL     1       0.668  10.807  20.854  0.00  0.00    +0.000 C 
BRANCH  15  16
ATOM     16  C   UNL     1       0.014  11.923  20.039  0.00  0.00    +0.000 C 
BRANCH  16  18
ATOM     17  C   UNL     1      -2.248  11.866  18.995  0.00  0.00    +0.000 C 
ATOM     18  C   UNL     1      -1.484  12.054  20.300  0.00  0.00    +0.000 C 
ENDBRANCH  16  18
ENDBRANCH  15  16
ENDBRANCH  12  15
ENDBRANCH   9  12
ENDBRANCH   7   9
ENDBRANCH   1   8
BRANCH   6  19
ATOM     19  C   UNL     1       1.944   4.822  17.879  0.00  0.00    +0.000 C 
BRANCH  19  20
ATOM     20  C   UNL     1       3.463   4.831  17.670  0.00  0.00    +0.000 C 
BRANCH  20  21
ATOM     21  C   UNL     1       3.997   6.268  17.592  0.00  0.00    +0.000 C 
BRANCH  21  22
ATOM     22  C   UNL     1       5.263   6.348  16.738  0.00  0.00    +0.000 C 
BRANCH  22  23
ATOM     23  C   UNL     1       6.506   6.018  17.565  0.00  0.00    +0.000 C 
BRANCH  23  24
ATOM     24  C   UNL     1       7.195   4.761  17.037  0.00  0.00    +0.000 C 
BRANCH  24  25
ATOM     25  C   UNL     1       6.937   4.557  15.562  0.00  0.00    +0.000 C 
ATOM     26  O   UNL     1       6.168   3.748  15.082  0.00  0.00    +0.000 OA
BRANCH  25  27
ATOM     27  O   UNL     1       7.681   5.395  14.795  0.00  0.00    +0.000 OA
ATOM     28  H   UNL     1       7.215   5.709  13.997  0.00  0.00    +0.000 HD
ENDBRANCH  25  27
ENDBRANCH  24  25
ENDBRANCH  23  24
ENDBRANCH  22  23
ENDBRANCH  21  22
ENDBRANCH  20  21
ENDBRANCH  19  20
ENDBRANCH   6  19
TORSDOF 16
ENDMDL
MODEL 8
REMARK VINA RESULT:      -6.6      3.067      8.042
REMARK  Name = 
REMARK  18 active torsions:
REMARK  status: ('A' for Active; 'I' for Inactive)
REMARK    1  A    between atoms: C_1  and  C_2
REMARK    2  A    between atoms: C_2  and  C_3
REMARK    3  A    between atoms: C_3  and  C_4
REMARK    4  A    between atoms: C_4  and  C_5
REMARK    5  A    between atoms: C_5  and  C_6
REMARK    6  A    between atoms: C_5  and  C_8
REMARK    7  A    between atoms: C_6  and  C_7
REMARK    8  A    between atoms: C_8  and  O_9
REMARK    9  A    between atoms: C_8  and  C_10
REMARK   10  A    between atoms: C_11  and  C_12
REMARK   11  A    between atoms: C_17  and  C_18
REMARK   12  A    between atoms: C_18  and  C_19
REMARK   13  A    between atoms: C_19  and  C_20
REMARK   14  A    between atoms: C_20  and  C_21
REMARK   15  A    between atoms: C_21  and  C_22
REMARK   16  A    between atoms: C_22  and  C_23
REMARK   17  A    between atoms: C_23  and  C_24
REMARK   18  A    between atoms: C_24  and  O_26
REMARK                            x       y       z     vdW  Elec       q    Type
REMARK                         _______ _______ _______ _____ _____    ______ ____
ROOT
ATOM      1  C   UNL     1       1.810   8.491  18.178  0.00  0.00    +0.000 C 
ATOM      2  C   UNL     1       1.937   9.908  17.601  0.00  0.00    +0.000 C 
ATOM      3  C   UNL     1       1.917  10.878  18.768  0.00  0.00    +0.000 C 
ATOM      4  C   UNL     1       1.188  10.119  19.831  0.00  0.00    +0.000 C 
ATOM      5  O   UNL     1       0.701  10.669  20.812  0.00  0.00    +0.000 OA
ATOM      6  C   UNL     1       1.109   8.629  19.563  0.00  0.00    +0.000 C 
ENDROOT
BRANCH   1   8
ATOM      7  C   UNL     1       3.279   6.538  17.602  0.00  0.00    +0.000 C 
ATOM      8  C   UNL     1       3.122   7.743  18.179  0.00  0.00    +0.000 C 
BRANCH   7   9
ATOM      9  C   UNL     1       4.498   5.677  17.792  0.00  0.00    +0.000 C 
BRANCH   9  10
ATOM     10  O   UNL     1       4.806   5.662  19.183  0.00  0.00    +0.000 OA
ATOM     11  H   UNL     1       4.482   6.492  19.570  0.00  0.00    +0.000 HD
ENDBRANCH   9  10
BRANCH   9  12
ATOM     12  C   UNL     1       5.737   6.149  16.983  0.00  0.00    +0.000 C 
BRANCH  12  13
ATOM     13  C   UNL     1       5.695   5.741  15.487  0.00  0.00    +0.000 C 
ATOM     14  C   UNL     1       6.864   4.903  14.985  0.00  0.00    +0.000 C 
ENDBRANCH  12  13
BRANCH  12  15
ATOM     15  C   UNL     1       7.039   5.694  17.701  0.00  0.00    +0.000 C 
BRANCH  15  16
ATOM     16  C   UNL     1       7.855   6.858  18.263  0.00  0.00    +0.000 C 
BRANCH  16  18
ATOM     17  C   UNL     1       8.421   9.283  18.180  0.00  0.00    +0.000 C 
ATOM     18  C   UNL     1       7.610   8.172  17.526  0.00  0.00    +0.000 C 
ENDBRANCH  16  18
ENDBRANCH  15  16
ENDBRANCH  12  15
ENDBRANCH   9  12
ENDBRANCH   7   9
ENDBRANCH   1   8
BRANCH   6  19
ATOM     19  C   UNL     1       1.705   7.775  20.698  0.00  0.00    +0.000 C 
BRANCH  19  20
ATOM     20  C   UNL     1       1.015   6.425  20.921  0.00  0.00    +0.000 C 
BRANCH  20  21
ATOM     21  C   UNL     1       2.023   5.271  20.820  0.00  0.00    +0.000 C 
BRANCH  21  22
ATOM     22  C   UNL     1       1.444   4.089  20.042  0.00  0.00    +0.000 C 
BRANCH  22  23
ATOM     23  C   UNL     1       1.679   2.773  20.785  0.00  0.00    +0.000 C 
BRANCH  23  24
ATOM     24  C   UNL     1       3.174   2.483  20.920  0.00  0.00    +0.000 C 
BRANCH  24  25
ATOM     25  C   UNL     1       3.824   2.250  19.575  0.00  0.00    +0.000 C 
ATOM     26  O   UNL     1       3.313   1.687  18.628  0.00  0.00    +0.000 OA
BRANCH  25  27
ATOM     27  O   UNL     1       5.086   2.748  19.528  0.00  0.00    +0.000 OA
ATOM     28  H   UNL     1       5.622   2.385  18.797  0.00  0.00    +0.000 HD
ENDBRANCH  25  27
ENDBRANCH  24  25
ENDBRANCH  23  24
ENDBRANCH  22  23
ENDBRANCH  21  22
ENDBRANCH  20  21
ENDBRANCH  19  20
ENDBRANCH   6  19
TORSDOF 16
ENDMDL
MODEL 9
REMARK VINA RESULT:      -6.5      3.645      7.103
REMARK  Name = 
REMARK  18 active torsions:
REMARK  status: ('A' for Active; 'I' for Inactive)
REMARK    1  A    between atoms: C_1  and  C_2
REMARK    2  A    between atoms: C_2  and  C_3
REMARK    3  A    between atoms: C_3  and  C_4
REMARK    4  A    between atoms: C_4  and  C_5
REMARK    5  A    between atoms: C_5  and  C_6
REMARK    6  A    between atoms: C_5  and  C_8
REMARK    7  A    between atoms: C_6  and  C_7
REMARK    8  A    between atoms: C_8  and  O_9
REMARK    9  A    between atoms: C_8  and  C_10
REMARK   10  A    between atoms: C_11  and  C_12
REMARK   11  A    between atoms: C_17  and  C_18
REMARK   12  A    between atoms: C_18  and  C_19
REMARK   13  A    between atoms: C_19  and  C_20
REMARK   14  A    between atoms: C_20  and  C_21
REMARK   15  A    between atoms: C_21  and  C_22
REMARK   16  A    between atoms: C_22  and  C_23
REMARK   17  A    between atoms: C_23  and  C_24
REMARK   18  A    between atoms: C_24  and  O_26
REMARK                            x       y       z     vdW  Elec       q    Type
REMARK                         _______ _______ _______ _____ _____    ______ ____
ROOT
ATOM      1  C   UNL     1       3.664   2.219  19.761  0.00  0.00    +0.000 C 
ATOM      2  C   UNL     1       3.359   1.574  18.401  0.00  0.00    +0.000 C 
ATOM      3  C   UNL     1       2.004   2.084  17.950  0.00  0.00    +0.000 C 
ATOM      4  C   UNL     1       1.333   2.456  19.235  0.00  0.00    +0.000 C 
ATOM      5  O   UNL     1       0.121   2.617  19.318  0.00  0.00    +0.000 OA
ATOM      6  C   UNL     1       2.293   2.597  20.398  0.00  0.00    +0.000 C 
ENDROOT
BRANCH   1   8
ATOM      7  C   UNL     1       5.098   3.838  18.487  0.00  0.00    +0.000 C 
ATOM      8  C   UNL     1       4.673   3.339  19.661  0.00  0.00    +0.000 C 
BRANCH   7   9
ATOM      9  C   UNL     1       6.265   4.781  18.357  0.00  0.00    +0.000 C 
BRANCH   9  10
ATOM     10  O   UNL     1       6.309   5.579  19.536  0.00  0.00    +0.000 OA
ATOM     11  H   UNL     1       5.700   6.325  19.416  0.00  0.00    +0.000 HD
ENDBRANCH   9  10
BRANCH   9  12
ATOM     12  C   UNL     1       6.201   5.694  17.103  0.00  0.00    +0.000 C 
BRANCH  12  13
ATOM     13  C   UNL     1       5.590   7.093  17.383  0.00  0.00    +0.000 C 
ATOM     14  C   UNL     1       4.115   7.264  17.044  0.00  0.00    +0.000 C 
ENDBRANCH  12  13
BRANCH  12  15
ATOM     15  C   UNL     1       5.491   4.943  15.941  0.00  0.00    +0.000 C 
BRANCH  15  16
ATOM     16  C   UNL     1       6.426   4.020  15.160  0.00  0.00    +0.000 C 
BRANCH  16  18
ATOM     17  C   UNL     1       6.027   3.486  12.759  0.00  0.00    +0.000 C 
ATOM     18  C   UNL     1       6.658   4.482  13.723  0.00  0.00    +0.000 C 
ENDBRANCH  16  18
ENDBRANCH  15  16
ENDBRANCH  12  15
ENDBRANCH   9  12
ENDBRANCH   7   9
ENDBRANCH   1   8
BRANCH   6  19
ATOM     19  C   UNL     1       2.232   3.981  21.071  0.00  0.00    +0.000 C 
BRANCH  19  20
ATOM     20  C   UNL     1       1.581   5.083  20.227  0.00  0.00    +0.000 C 
BRANCH  20  21
ATOM     21  C   UNL     1       2.549   6.257  20.020  0.00  0.00    +0.000 C 
BRANCH  21  22
ATOM     22  C   UNL     1       1.808   7.595  20.004  0.00  0.00    +0.000 C 
BRANCH  22  23
ATOM     23  C   UNL     1       1.557   8.102  21.425  0.00  0.00    +0.000 C 
BRANCH  23  24
ATOM     24  C   UNL     1       0.190   8.777  21.530  0.00  0.00    +0.000 C 
BRANCH  24  25
ATOM     25  C   UNL     1       0.253  10.049  22.344  0.00  0.00    +0.000 C 
ATOM     26  O   UNL     1      -0.173  10.190  23.473  0.00  0.00    +0.000 OA
BRANCH  25  27
ATOM     27  O   UNL     1       0.853  11.059  21.664  0.00  0.00    +0.000 OA
ATOM     28  H   UNL     1       0.223  11.699  21.281  0.00  0.00    +0.000 HD
ENDBRANCH  25  27
ENDBRANCH  24  25
ENDBRANCH  23  24
ENDBRANCH  22  23
ENDBRANCH  21  22
ENDBRANCH  20  21
ENDBRANCH  19  20
ENDBRANCH   6  19
TORSDOF 16
ENDMDL
