MODEL 1
REMARK VINA RESULT:      -7.4      0.000      0.000
REMARK  Name = 
REMARK  7 active torsions:
REMARK  status: ('A' for Active; 'I' for Inactive)
REMARK    1  A    between atoms: C_1  and  C_2
REMARK    2  A    between atoms: C_2  and  C_3
REMARK    3  A    between atoms: C_2  and  C_4
REMARK    4  A    between atoms: C_2  and  C_5
REMARK    5  A    between atoms: C_13  and  C_14
REMARK    6  A    between atoms: N_23  and  C_24
REMARK    7  A    between atoms: C_24  and  C_25
REMARK                            x       y       z     vdW  Elec       q    Type
REMARK                         _______ _______ _______ _____ _____    ______ ____
ROOT
ATOM      1  C   UNL     1       1.403   2.312  19.870  0.00  0.00    +0.000 C 
ATOM      2  C   UNL     1       0.402   3.339  19.272  0.00  0.00    +0.000 C 
ATOM      3  C   UNL     1       1.040   4.638  18.745  0.00  0.00    +0.000 C 
ATOM      4  C   UNL     1       2.446   4.467  18.222  0.00  0.00    +0.000 A 
ATOM      5  C   UNL     1       3.006   3.195  18.176  0.00  0.00    +0.000 A 
ATOM      6  S   UNL     1       4.545   3.162  17.480  0.00  0.00    +0.000 S 
ATOM      7  C   UNL     1       4.552   4.842  17.324  0.00  0.00    +0.000 A 
ATOM      8  C   UNL     1       3.428   5.464  17.822  0.00  0.00    +0.000 A 
ATOM      9  C   UNL     1       3.475   6.928  17.821  0.00  0.00    +0.000 A 
ATOM     10  N   UNL     1       4.444   7.540  17.214  0.00  0.00    +0.000 NA
ATOM     11  C   UNL     1       5.493   6.881  16.615  0.00  0.00    +0.000 A 
ATOM     12  O   UNL     1       6.335   7.526  15.991  0.00  0.00    +0.000 OA
ATOM     13  N   UNL     1       5.628   5.495  16.750  0.00  0.00    +0.000 N 
ATOM     14  C   UNL     1       2.379   1.950  18.720  0.00  0.00    +0.000 C 
ENDROOT
BRANCH   9  15
ATOM     15  C   UNL     1       2.482   7.770  18.547  0.00  0.00    +0.000 A 
ATOM     16  C   UNL     1       1.744   8.744  17.877  0.00  0.00    +0.000 A 
ATOM     17  C   UNL     1       0.921   9.632  18.570  0.00  0.00    +0.000 A 
ATOM     18  C   UNL     1       0.708   9.446  19.930  0.00  0.00    +0.000 A 
ATOM     19  C   UNL     1       1.299   8.361  20.578  0.00  0.00    +0.000 A 
ATOM     20  C   UNL     1       2.194   7.531  19.893  0.00  0.00    +0.000 A 
ENDBRANCH   9  15
BRANCH   1  22
ATOM     21  C   UNL     1       1.243   2.068  22.426  0.00  0.00    +0.000 C 
ATOM     22  C   UNL     1       2.082   2.657  21.268  0.00  0.00    +0.000 C 
ATOM     23  C   UNL     1       2.268   4.145  21.602  0.00  0.00    +0.000 C 
ATOM     24  C   UNL     1       3.488   2.023  21.338  0.00  0.00    +0.000 C 
ENDBRANCH   1  22
BRANCH  13  25
ATOM     25  C   UNL     1       6.862   4.869  16.279  0.00  0.00    +0.000 C 
BRANCH  25  26
ATOM     26  C   UNL     1       6.819   4.561  14.814  0.00  0.00    +0.000 A 
ATOM     27  C   UNL     1       7.618   5.036  13.788  0.00  0.00    +0.000 A 
ATOM     28  N   UNL     1       7.373   4.499  12.536  0.00  0.00    +0.000 NA
ATOM     29  C   UNL     1       6.404   3.628  12.644  0.00  0.00    +0.000 A 
ATOM     30 CL   UNL     1       5.849   2.709  11.302  0.00  0.00    +0.000 Cl
ATOM     31  S   UNL     1       5.718   3.403  14.173  0.00  0.00    +0.000 S 
ENDBRANCH  25  26
ENDBRANCH  13  25
TORSDOF 4
ENDMDL
MODEL 2
REMARK VINA RESULT:      -7.3      4.431      7.584
REMARK  Name = 
REMARK  7 active torsions:
REMARK  status: ('A' for Active; 'I' for Inactive)
REMARK    1  A    between atoms: C_1  and  C_2
REMARK    2  A    between atoms: C_2  and  C_3
REMARK    3  A    between atoms: C_2  and  C_4
REMARK    4  A    between atoms: C_2  and  C_5
REMARK    5  A    between atoms: C_13  and  C_14
REMARK    6  A    between atoms: N_23  and  C_24
REMARK    7  A    between atoms: C_24  and  C_25
REMARK                            x       y       z     vdW  Elec       q    Type
REMARK                         _______ _______ _______ _____ _____    ______ ____
ROOT
ATOM      1  C   UNL     1       5.612   5.631  16.305  0.00  0.00    +0.000 C 
ATOM      2  C   UNL     1       4.621   4.438  16.404  0.00  0.00    +0.000 C 
ATOM      3  C   UNL     1       3.609   4.527  17.561  0.00  0.00    +0.000 C 
ATOM      4  C   UNL     1       3.230   5.938  17.942  0.00  0.00    +0.000 A 
ATOM      5  C   UNL     1       3.732   7.002  17.201  0.00  0.00    +0.000 A 
ATOM      6  S   UNL     1       3.141   8.505  17.696  0.00  0.00    +0.000 S 
ATOM      7  C   UNL     1       2.295   7.795  18.971  0.00  0.00    +0.000 A 
ATOM      8  C   UNL     1       2.466   6.432  19.079  0.00  0.00    +0.000 A 
ATOM      9  C   UNL     1       1.851   5.819  20.258  0.00  0.00    +0.000 A 
ATOM     10  N   UNL     1       1.061   6.520  21.010  0.00  0.00    +0.000 NA
ATOM     11  C   UNL     1       0.812   7.857  20.800  0.00  0.00    +0.000 A 
ATOM     12  O   UNL     1      -0.010   8.437  21.508  0.00  0.00    +0.000 OA
ATOM     13  N   UNL     1       1.518   8.563  19.820  0.00  0.00    +0.000 N 
ATOM     14  C   UNL     1       4.737   6.895  16.098  0.00  0.00    +0.000 C 
ENDROOT
BRANCH   9  15
ATOM     15  C   UNL     1       2.140   4.420  20.685  0.00  0.00    +0.000 A 
ATOM     16  C   UNL     1       1.122   3.588  21.146  0.00  0.00    +0.000 A 
ATOM     17  C   UNL     1       1.401   2.331  21.683  0.00  0.00    +0.000 A 
ATOM     18  C   UNL     1       2.695   1.832  21.613  0.00  0.00    +0.000 A 
ATOM     19  C   UNL     1       3.691   2.582  20.987  0.00  0.00    +0.000 A 
ATOM     20  C   UNL     1       3.419   3.879  20.535  0.00  0.00    +0.000 A 
ENDBRANCH   9  15
BRANCH   1  22
ATOM     21  C   UNL     1       7.776   4.610  17.249  0.00  0.00    +0.000 C 
ATOM     22  C   UNL     1       6.748   5.753  17.414  0.00  0.00    +0.000 C 
ATOM     23  C   UNL     1       6.295   5.698  18.881  0.00  0.00    +0.000 C 
ATOM     24  C   UNL     1       7.501   7.089  17.247  0.00  0.00    +0.000 C 
ENDBRANCH   1  22
BRANCH  13  25
ATOM     25  C   UNL     1       1.376  10.018  19.775  0.00  0.00    +0.000 C 
BRANCH  25  26
ATOM     26  C   UNL     1       0.071  10.441  19.173  0.00  0.00    +0.000 A 
ATOM     27  C   UNL     1      -0.502  10.077  17.966  0.00  0.00    +0.000 A 
ATOM     28  N   UNL     1      -1.766  10.586  17.722  0.00  0.00    +0.000 NA
ATOM     29  C   UNL     1      -2.123  11.311  18.750  0.00  0.00    +0.000 A 
ATOM     30 CL   UNL     1      -3.661  12.071  18.841  0.00  0.00    +0.000 Cl
ATOM     31  S   UNL     1      -1.021  11.462  20.023  0.00  0.00    +0.000 S 
ENDBRANCH  25  26
ENDBRANCH  13  25
TORSDOF 4
ENDMDL
MODEL 3
REMARK VINA RESULT:      -7.3      4.271      7.456
REMARK  Name = 
REMARK  7 active torsions:
REMARK  status: ('A' for Active; 'I' for Inactive)
REMARK    1  A    between atoms: C_1  and  C_2
REMARK    2  A    between atoms: C_2  and  C_3
REMARK    3  A    between atoms: C_2  and  C_4
REMARK    4  A    between atoms: C_2  and  C_5
REMARK    5  A    between atoms: C_13  and  C_14
REMARK    6  A    between atoms: N_23  and  C_24
REMARK    7  A    between atoms: C_24  and  C_25
REMARK                            x       y       z     vdW  Elec       q    Type
REMARK                         _______ _______ _______ _____ _____    ______ ____
ROOT
ATOM      1  C   UNL     1       5.483   5.696  16.474  0.00  0.00    +0.000 C 
ATOM      2  C   UNL     1       4.390   4.592  16.461  0.00  0.00    +0.000 C 
ATOM      3  C   UNL     1       3.311   4.731  17.552  0.00  0.00    +0.000 C 
ATOM      4  C   UNL     1       3.030   6.157  17.963  0.00  0.00    +0.000 A 
ATOM      5  C   UNL     1       3.670   7.197  17.299  0.00  0.00    +0.000 A 
ATOM      6  S   UNL     1       3.177   8.728  17.813  0.00  0.00    +0.000 S 
ATOM      7  C   UNL     1       2.188   8.053  19.001  0.00  0.00    +0.000 A 
ATOM      8  C   UNL     1       2.234   6.677  19.066  0.00  0.00    +0.000 A 
ATOM      9  C   UNL     1       1.490   6.081  20.177  0.00  0.00    +0.000 A 
ATOM     10  N   UNL     1       0.712   6.823  20.903  0.00  0.00    +0.000 NA
ATOM     11  C   UNL     1       0.594   8.183  20.729  0.00  0.00    +0.000 A 
ATOM     12  O   UNL     1      -0.223   8.809  21.405  0.00  0.00    +0.000 OA
ATOM     13  N   UNL     1       1.423   8.857  19.827  0.00  0.00    +0.000 N 
ATOM     14  C   UNL     1       4.735   7.038  16.261  0.00  0.00    +0.000 C 
ENDROOT
BRANCH   9  15
ATOM     15  C   UNL     1       1.628   4.648  20.567  0.00  0.00    +0.000 A 
ATOM     16  C   UNL     1       2.471   4.268  21.608  0.00  0.00    +0.000 A 
ATOM     17  C   UNL     1       2.719   2.923  21.884  0.00  0.00    +0.000 A 
ATOM     18  C   UNL     1       1.993   1.945  21.218  0.00  0.00    +0.000 A 
ATOM     19  C   UNL     1       1.012   2.320  20.299  0.00  0.00    +0.000 A 
ATOM     20  C   UNL     1       0.836   3.667  19.964  0.00  0.00    +0.000 A 
ENDBRANCH   9  15
BRANCH   1  22
ATOM     21  C   UNL     1       7.596   4.572  17.416  0.00  0.00    +0.000 C 
ATOM     22  C   UNL     1       6.547   5.680  17.659  0.00  0.00    +0.000 C 
ATOM     23  C   UNL     1       6.005   5.438  19.076  0.00  0.00    +0.000 C 
ATOM     24  C   UNL     1       7.293   7.031  17.711  0.00  0.00    +0.000 C 
ENDBRANCH   1  22
BRANCH  13  25
ATOM     25  C   UNL     1       1.409  10.319  19.830  0.00  0.00    +0.000 C 
BRANCH  25  26
ATOM     26  C   UNL     1       0.162  10.874  19.212  0.00  0.00    +0.000 A 
ATOM     27  C   UNL     1      -0.481  12.077  19.450  0.00  0.00    +0.000 A 
ATOM     28  N   UNL     1      -1.584  12.338  18.656  0.00  0.00    +0.000 NA
ATOM     29  C   UNL     1      -1.744  11.336  17.832  0.00  0.00    +0.000 A 
ATOM     30 CL   UNL     1      -2.988  11.318  16.646  0.00  0.00    +0.000 Cl
ATOM     31  S   UNL     1      -0.658  10.045  17.947  0.00  0.00    +0.000 S 
ENDBRANCH  25  26
ENDBRANCH  13  25
TORSDOF 4
ENDMDL
MODEL 4
REMARK VINA RESULT:      -7.1      9.670     12.935
REMARK  Name = 
REMARK  7 active torsions:
REMARK  status: ('A' for Active; 'I' for Inactive)
REMARK    1  A    between atoms: C_1  and  C_2
REMARK    2  A    between atoms: C_2  and  C_3
REMARK    3  A    between atoms: C_2  and  C_4
REMARK    4  A    between atoms: C_2  and  C_5
REMARK    5  A    between atoms: C_13  and  C_14
REMARK    6  A    between atoms: N_23  and  C_24
REMARK    7  A    between atoms: C_24  and  C_25
REMARK                            x       y       z     vdW  Elec       q    Type
REMARK                         _______ _______ _______ _____ _____    ______ ____
ROOT
ATOM      1  C   UNL     1       0.392  11.710  21.390  0.00  0.00    +0.000 C 
ATOM      2  C   UNL     1       0.392  12.199  19.915  0.00  0.00    +0.000 C 
ATOM      3  C   UNL     1      -0.983  12.171  19.221  0.00  0.00    +0.000 C 
ATOM      4  C   UNL     1      -2.150  12.386  20.154  0.00  0.00    +0.000 A 
ATOM      5  C   UNL     1      -1.909  12.666  21.494  0.00  0.00    +0.000 A 
ATOM      6  S   UNL     1      -3.313  12.973  22.382  0.00  0.00    +0.000 S 
ATOM      7  C   UNL     1      -4.280  12.633  21.041  0.00  0.00    +0.000 A 
ATOM      8  C   UNL     1      -3.580  12.247  19.919  0.00  0.00    +0.000 A 
ATOM      9  C   UNL     1      -4.406  11.817  18.788  0.00  0.00    +0.000 A 
ATOM     10  N   UNL     1      -5.691  11.985  18.830  0.00  0.00    +0.000 NA
ATOM     11  C   UNL     1      -6.349  12.493  19.927  0.00  0.00    +0.000 A 
ATOM     12  O   UNL     1      -7.561  12.696  19.864  0.00  0.00    +0.000 OA
ATOM     13  N   UNL     1      -5.657  12.735  21.118  0.00  0.00    +0.000 N 
ATOM     14  C   UNL     1      -0.566  12.661  22.154  0.00  0.00    +0.000 C 
ENDROOT
BRANCH   9  15
ATOM     15  C   UNL     1      -3.844  11.127  17.592  0.00  0.00    +0.000 A 
ATOM     16  C   UNL     1      -3.001  10.026  17.732  0.00  0.00    +0.000 A 
ATOM     17  C   UNL     1      -2.356   9.465  16.630  0.00  0.00    +0.000 A 
ATOM     18  C   UNL     1      -2.678   9.905  15.353  0.00  0.00    +0.000 A 
ATOM     19  C   UNL     1      -3.658  10.883  15.188  0.00  0.00    +0.000 A 
ATOM     20  C   UNL     1      -4.233  11.503  16.304  0.00  0.00    +0.000 A 
ENDBRANCH   9  15
BRANCH   1  22
ATOM     21  C   UNL     1       1.540   9.480  21.959  0.00  0.00    +0.000 C 
ATOM     22  C   UNL     1       0.182  10.155  21.662  0.00  0.00    +0.000 C 
ATOM     23  C   UNL     1      -0.455   9.332  20.532  0.00  0.00    +0.000 C 
ATOM     24  C   UNL     1      -0.722   9.957  22.897  0.00  0.00    +0.000 C 
ENDBRANCH   1  22
BRANCH  13  25
ATOM     25  C   UNL     1      -6.430  13.071  22.313  0.00  0.00    +0.000 C 
BRANCH  25  26
ATOM     26  C   UNL     1      -6.578  14.550  22.494  0.00  0.00    +0.000 A 
ATOM     27  C   UNL     1      -7.309  15.461  21.750  0.00  0.00    +0.000 A 
ATOM     28  N   UNL     1      -7.304  16.763  22.219  0.00  0.00    +0.000 NA
ATOM     29  C   UNL     1      -6.582  16.805  23.308  0.00  0.00    +0.000 A 
ATOM     30 CL   UNL     1      -6.382  18.252  24.215  0.00  0.00    +0.000 Cl
ATOM     31  S   UNL     1      -5.859  15.368  23.826  0.00  0.00    +0.000 S 
ENDBRANCH  25  26
ENDBRANCH  13  25
TORSDOF 4
ENDMDL
MODEL 5
REMARK VINA RESULT:      -6.9      8.357     11.372
REMARK  Name = 
REMARK  7 active torsions:
REMARK  status: ('A' for Active; 'I' for Inactive)
REMARK    1  A    between atoms: C_1  and  C_2
REMARK    2  A    between atoms: C_2  and  C_3
REMARK    3  A    between atoms: C_2  and  C_4
REMARK    4  A    between atoms: C_2  and  C_5
REMARK    5  A    between atoms: C_13  and  C_14
REMARK    6  A    between atoms: N_23  and  C_24
REMARK    7  A    between atoms: C_24  and  C_25
REMARK                            x       y       z     vdW  Elec       q    Type
REMARK                         _______ _______ _______ _____ _____    ______ ____
ROOT
ATOM      1  C   UNL     1       8.044  14.195  23.869  0.00  0.00    +0.000 C 
ATOM      2  C   UNL     1       9.032  15.022  23.002  0.00  0.00    +0.000 C 
ATOM      3  C   UNL     1       8.645  15.147  21.516  0.00  0.00    +0.000 C 
ATOM      4  C   UNL     1       7.157  15.121  21.262  0.00  0.00    +0.000 A 
ATOM      5  C   UNL     1       6.282  15.076  22.340  0.00  0.00    +0.000 A 
ATOM      6  S   UNL     1       4.655  15.147  21.891  0.00  0.00    +0.000 S 
ATOM      7  C   UNL     1       5.067  15.128  20.255  0.00  0.00    +0.000 A 
ATOM      8  C   UNL     1       6.419  15.028  20.010  0.00  0.00    +0.000 A 
ATOM      9  C   UNL     1       6.786  14.873  18.600  0.00  0.00    +0.000 A 
ATOM     10  N   UNL     1       5.883  15.013  17.681  0.00  0.00    +0.000 NA
ATOM     11  C   UNL     1       4.554  15.237  17.960  0.00  0.00    +0.000 A 
ATOM     12  O   UNL     1       3.768  15.438  17.034  0.00  0.00    +0.000 OA
ATOM     13  N   UNL     1       4.090  15.195  19.279  0.00  0.00    +0.000 N 
ATOM     14  C   UNL     1       6.679  14.926  23.775  0.00  0.00    +0.000 C 
ENDROOT
BRANCH   9  15
ATOM     15  C   UNL     1       8.159  14.493  18.160  0.00  0.00    +0.000 A 
ATOM     16  C   UNL     1       8.481  13.166  17.885  0.00  0.00    +0.000 A 
ATOM     17  C   UNL     1       9.794  12.781  17.614  0.00  0.00    +0.000 A 
ATOM     18  C   UNL     1      10.772  13.755  17.458  0.00  0.00    +0.000 A 
ATOM     19  C   UNL     1      10.424  15.103  17.550  0.00  0.00    +0.000 A 
ATOM     20  C   UNL     1       9.124  15.473  17.913  0.00  0.00    +0.000 A 
ENDBRANCH   9  15
BRANCH   1  22
ATOM     21  C   UNL     1       8.935  12.214  22.491  0.00  0.00    +0.000 C 
ATOM     22  C   UNL     1       7.997  12.618  23.652  0.00  0.00    +0.000 C 
ATOM     23  C   UNL     1       6.630  12.003  23.319  0.00  0.00    +0.000 C 
ATOM     24  C   UNL     1       8.491  11.900  24.926  0.00  0.00    +0.000 C 
ENDBRANCH   1  22
BRANCH  13  25
ATOM     25  C   UNL     1       2.646  15.228  19.507  0.00  0.00    +0.000 C 
BRANCH  25  26
ATOM     26  C   UNL     1       2.076  13.860  19.727  0.00  0.00    +0.000 A 
ATOM     27  C   UNL     1       1.522  13.308  20.869  0.00  0.00    +0.000 A 
ATOM     28  N   UNL     1       1.010  12.029  20.732  0.00  0.00    +0.000 NA
ATOM     29  C   UNL     1       1.179  11.649  19.493  0.00  0.00    +0.000 A 
ATOM     30 CL   UNL     1       0.620  10.128  18.921  0.00  0.00    +0.000 Cl
ATOM     31  S   UNL     1       1.950  12.724  18.440  0.00  0.00    +0.000 S 
ENDBRANCH  25  26
ENDBRANCH  13  25
TORSDOF 4
ENDMDL
MODEL 6
REMARK VINA RESULT:      -6.9      0.818      1.227
REMARK  Name = 
REMARK  7 active torsions:
REMARK  status: ('A' for Active; 'I' for Inactive)
REMARK    1  A    between atoms: C_1  and  C_2
REMARK    2  A    between atoms: C_2  and  C_3
REMARK    3  A    between atoms: C_2  and  C_4
REMARK    4  A    between atoms: C_2  and  C_5
REMARK    5  A    between atoms: C_13  and  C_14
REMARK    6  A    between atoms: N_23  and  C_24
REMARK    7  A    between atoms: C_24  and  C_25
REMARK                            x       y       z     vdW  Elec       q    Type
REMARK                         _______ _______ _______ _____ _____    ______ ____
ROOT
ATOM      1  C   UNL     1       1.368   2.298  19.885  0.00  0.00    +0.000 C 
ATOM      2  C   UNL     1       0.383   3.341  19.289  0.00  0.00    +0.000 C 
ATOM      3  C   UNL     1       1.041   4.631  18.764  0.00  0.00    +0.000 C 
ATOM      4  C   UNL     1       2.445   4.440  18.242  0.00  0.00    +0.000 A 
ATOM      5  C   UNL     1       2.985   3.160  18.194  0.00  0.00    +0.000 A 
ATOM      6  S   UNL     1       4.524   3.105  17.499  0.00  0.00    +0.000 S 
ATOM      7  C   UNL     1       4.557   4.785  17.347  0.00  0.00    +0.000 A 
ATOM      8  C   UNL     1       3.443   5.423  17.845  0.00  0.00    +0.000 A 
ATOM      9  C   UNL     1       3.512   6.886  17.847  0.00  0.00    +0.000 A 
ATOM     10  N   UNL     1       4.491   7.484  17.242  0.00  0.00    +0.000 NA
ATOM     11  C   UNL     1       5.530   6.810  16.642  0.00  0.00    +0.000 A 
ATOM     12  O   UNL     1       6.382   7.443  16.020  0.00  0.00    +0.000 OA
ATOM     13  N   UNL     1       5.643   5.422  16.774  0.00  0.00    +0.000 N 
ATOM     14  C   UNL     1       2.339   1.924  18.735  0.00  0.00    +0.000 C 
ENDROOT
BRANCH   9  15
ATOM     15  C   UNL     1       2.531   7.742  18.574  0.00  0.00    +0.000 A 
ATOM     16  C   UNL     1       2.295   7.562  19.935  0.00  0.00    +0.000 A 
ATOM     17  C   UNL     1       1.278   8.255  20.591  0.00  0.00    +0.000 A 
ATOM     18  C   UNL     1       0.592   9.258  19.919  0.00  0.00    +0.000 A 
ATOM     19  C   UNL     1       0.944   9.573  18.606  0.00  0.00    +0.000 A 
ATOM     20  C   UNL     1       1.903   8.810  17.929  0.00  0.00    +0.000 A 
ENDBRANCH   9  15
BRANCH   1  22
ATOM     21  C   UNL     1       1.182   2.087  22.442  0.00  0.00    +0.000 C 
ATOM     22  C   UNL     1       2.051   2.629  21.284  0.00  0.00    +0.000 C 
ATOM     23  C   UNL     1       2.295   4.112  21.604  0.00  0.00    +0.000 C 
ATOM     24  C   UNL     1       3.430   1.941  21.370  0.00  0.00    +0.000 C 
ENDBRANCH   1  22
BRANCH  13  25
ATOM     25  C   UNL     1       6.869   4.778  16.303  0.00  0.00    +0.000 C 
BRANCH  25  26
ATOM     26  C   UNL     1       6.811   4.449  14.843  0.00  0.00    +0.000 A 
ATOM     27  C   UNL     1       6.002   3.547  14.173  0.00  0.00    +0.000 A 
ATOM     28  N   UNL     1       6.136   3.525  12.796  0.00  0.00    +0.000 NA
ATOM     29  C   UNL     1       7.032   4.414  12.456  0.00  0.00    +0.000 A 
ATOM     30 CL   UNL     1       7.438   4.719  10.814  0.00  0.00    +0.000 Cl
ATOM     31  S   UNL     1       7.775   5.293  13.694  0.00  0.00    +0.000 S 
ENDBRANCH  25  26
ENDBRANCH  13  25
TORSDOF 4
ENDMDL
MODEL 7
REMARK VINA RESULT:      -6.8      8.407     11.337
REMARK  Name = 
REMARK  7 active torsions:
REMARK  status: ('A' for Active; 'I' for Inactive)
REMARK    1  A    between atoms: C_1  and  C_2
REMARK    2  A    between atoms: C_2  and  C_3
REMARK    3  A    between atoms: C_2  and  C_4
REMARK    4  A    between atoms: C_2  and  C_5
REMARK    5  A    between atoms: C_13  and  C_14
REMARK    6  A    between atoms: N_23  and  C_24
REMARK    7  A    between atoms: C_24  and  C_25
REMARK                            x       y       z     vdW  Elec       q    Type
REMARK                         _______ _______ _______ _____ _____    ______ ____
ROOT
ATOM      1  C   UNL     1       7.883  14.164  23.910  0.00  0.00    +0.000 C 
ATOM      2  C   UNL     1       8.881  15.018  23.080  0.00  0.00    +0.000 C 
ATOM      3  C   UNL     1       8.533  15.155  21.586  0.00  0.00    +0.000 C 
ATOM      4  C   UNL     1       7.053  15.108  21.290  0.00  0.00    +0.000 A 
ATOM      5  C   UNL     1       6.149  15.034  22.343  0.00  0.00    +0.000 A 
ATOM      6  S   UNL     1       4.535  15.084  21.850  0.00  0.00    +0.000 S 
ATOM      7  C   UNL     1       4.992  15.092  20.226  0.00  0.00    +0.000 A 
ATOM      8  C   UNL     1       6.352  15.018  20.017  0.00  0.00    +0.000 A 
ATOM      9  C   UNL     1       6.760  14.886  18.617  0.00  0.00    +0.000 A 
ATOM     10  N   UNL     1       5.880  15.023  17.674  0.00  0.00    +0.000 NA
ATOM     11  C   UNL     1       4.540  15.221  17.918  0.00  0.00    +0.000 A 
ATOM     12  O   UNL     1       3.777  15.420  16.974  0.00  0.00    +0.000 OA
ATOM     13  N   UNL     1       4.041  15.155  19.223  0.00  0.00    +0.000 N 
ATOM     14  C   UNL     1       6.509  14.873  23.787  0.00  0.00    +0.000 C 
ENDROOT
BRANCH   9  15
ATOM     15  C   UNL     1       8.151  14.535  18.210  0.00  0.00    +0.000 A 
ATOM     16  C   UNL     1       9.109  15.526  18.008  0.00  0.00    +0.000 A 
ATOM     17  C   UNL     1      10.367  15.221  17.488  0.00  0.00    +0.000 A 
ATOM     18  C   UNL     1      10.731  13.892  17.317  0.00  0.00    +0.000 A 
ATOM     19  C   UNL     1       9.844  12.881  17.689  0.00  0.00    +0.000 A 
ATOM     20  C   UNL     1       8.552  13.199  18.123  0.00  0.00    +0.000 A 
ENDBRANCH   9  15
BRANCH   1  22
ATOM     21  C   UNL     1       8.776  12.225  22.475  0.00  0.00    +0.000 C 
ATOM     22  C   UNL     1       7.870  12.589  23.673  0.00  0.00    +0.000 C 
ATOM     23  C   UNL     1       6.508  11.943  23.378  0.00  0.00    +0.000 C 
ATOM     24  C   UNL     1       8.425  11.868  24.919  0.00  0.00    +0.000 C 
ENDBRANCH   1  22
BRANCH  13  25
ATOM     25  C   UNL     1       2.591  15.161  19.412  0.00  0.00    +0.000 C 
BRANCH  25  26
ATOM     26  C   UNL     1       2.019  13.777  19.450  0.00  0.00    +0.000 A 
ATOM     27  C   UNL     1       2.123  12.754  18.522  0.00  0.00    +0.000 A 
ATOM     28  N   UNL     1       1.538  11.552  18.883  0.00  0.00    +0.000 NA
ATOM     29  C   UNL     1       1.016  11.690  20.074  0.00  0.00    +0.000 A 
ATOM     30 CL   UNL     1       0.242  10.389  20.887  0.00  0.00    +0.000 Cl
ATOM     31  S   UNL     1       1.150  13.201  20.819  0.00  0.00    +0.000 S 
ENDBRANCH  25  26
ENDBRANCH  13  25
TORSDOF 4
ENDMDL
MODEL 8
REMARK VINA RESULT:      -6.7      7.090     10.978
REMARK  Name = 
REMARK  7 active torsions:
REMARK  status: ('A' for Active; 'I' for Inactive)
REMARK    1  A    between atoms: C_1  and  C_2
REMARK    2  A    between atoms: C_2  and  C_3
REMARK    3  A    between atoms: C_2  and  C_4
REMARK    4  A    between atoms: C_2  and  C_5
REMARK    5  A    between atoms: C_13  and  C_14
REMARK    6  A    between atoms: N_23  and  C_24
REMARK    7  A    between atoms: C_24  and  C_25
REMARK                            x       y       z     vdW  Elec       q    Type
REMARK                         _______ _______ _______ _____ _____    ______ ____
ROOT
ATOM      1  C   UNL     1      -2.619  15.044  24.288  0.00  0.00    +0.000 C 
ATOM      2  C   UNL     1      -3.842  14.086  24.314  0.00  0.00    +0.000 C 
ATOM      3  C   UNL     1      -4.123  13.354  22.988  0.00  0.00    +0.000 C 
ATOM      4  C   UNL     1      -2.891  13.085  22.159  0.00  0.00    +0.000 A 
ATOM      5  C   UNL     1      -1.641  13.424  22.665  0.00  0.00    +0.000 A 
ATOM      6  S   UNL     1      -0.362  12.973  21.657  0.00  0.00    +0.000 S 
ATOM      7  C   UNL     1      -1.435  12.421  20.479  0.00  0.00    +0.000 A 
ATOM      8  C   UNL     1      -2.765  12.596  20.793  0.00  0.00    +0.000 A 
ATOM      9  C   UNL     1      -3.707  12.249  19.726  0.00  0.00    +0.000 A 
ATOM     10  N   UNL     1      -3.279  11.651  18.659  0.00  0.00    +0.000 NA
ATOM     11  C   UNL     1      -1.949  11.378  18.431  0.00  0.00    +0.000 A 
ATOM     12  O   UNL     1      -1.627  10.738  17.430  0.00  0.00    +0.000 OA
ATOM     13  N   UNL     1      -0.968  11.859  19.304  0.00  0.00    +0.000 N 
ATOM     14  C   UNL     1      -1.392  14.160  23.943  0.00  0.00    +0.000 C 
ENDROOT
BRANCH   9  15
ATOM     15  C   UNL     1      -5.153  12.608  19.777  0.00  0.00    +0.000 A 
ATOM     16  C   UNL     1      -5.564  13.938  19.699  0.00  0.00    +0.000 A 
ATOM     17  C   UNL     1      -6.898  14.295  19.891  0.00  0.00    +0.000 A 
ATOM     18  C   UNL     1      -7.862  13.302  20.003  0.00  0.00    +0.000 A 
ATOM     19  C   UNL     1      -7.486  11.962  19.899  0.00  0.00    +0.000 A 
ATOM     20  C   UNL     1      -6.134  11.613  19.799  0.00  0.00    +0.000 A 
ENDBRANCH   9  15
BRANCH   1  22
ATOM     21  C   UNL     1      -3.037  17.579  24.414  0.00  0.00    +0.000 C 
ATOM     22  C   UNL     1      -2.747  16.398  23.460  0.00  0.00    +0.000 C 
ATOM     23  C   UNL     1      -3.842  16.453  22.384  0.00  0.00    +0.000 C 
ATOM     24  C   UNL     1      -1.418  16.696  22.734  0.00  0.00    +0.000 C 
ENDBRANCH   1  22
BRANCH  13  25
ATOM     25  C   UNL     1       0.435  11.726  18.912  0.00  0.00    +0.000 C 
BRANCH  25  26
ATOM     26  C   UNL     1       0.977  10.361  19.204  0.00  0.00    +0.000 A 
ATOM     27  C   UNL     1       0.870   9.596  20.352  0.00  0.00    +0.000 A 
ATOM     28  N   UNL     1       1.424   8.328  20.286  0.00  0.00    +0.000 NA
ATOM     29  C   UNL     1       1.927   8.162  19.091  0.00  0.00    +0.000 A 
ATOM     30 CL   UNL     1       2.660   6.685  18.607  0.00  0.00    +0.000 Cl
ATOM     31  S   UNL     1       1.810   9.451  18.004  0.00  0.00    +0.000 S 
ENDBRANCH  25  26
ENDBRANCH  13  25
TORSDOF 4
ENDMDL
MODEL 9
REMARK VINA RESULT:      -6.7      8.591     11.446
REMARK  Name = 
REMARK  7 active torsions:
REMARK  status: ('A' for Active; 'I' for Inactive)
REMARK    1  A    between atoms: C_1  and  C_2
REMARK    2  A    between atoms: C_2  and  C_3
REMARK    3  A    between atoms: C_2  and  C_4
REMARK    4  A    between atoms: C_2  and  C_5
REMARK    5  A    between atoms: C_13  and  C_14
REMARK    6  A    between atoms: N_23  and  C_24
REMARK    7  A    between atoms: C_24  and  C_25
REMARK                            x       y       z     vdW  Elec       q    Type
REMARK                         _______ _______ _______ _____ _____    ______ ____
ROOT
ATOM      1  C   UNL     1       7.538  14.050  25.322  0.00  0.00    +0.000 C 
ATOM      2  C   UNL     1       8.834  14.641  24.702  0.00  0.00    +0.000 C 
ATOM      3  C   UNL     1       8.869  14.659  23.162  0.00  0.00    +0.000 C 
ATOM      4  C   UNL     1       7.512  14.807  22.516  0.00  0.00    +0.000 A 
ATOM      5  C   UNL     1       6.392  14.993  23.318  0.00  0.00    +0.000 A 
ATOM      6  S   UNL     1       4.968  15.234  22.441  0.00  0.00    +0.000 S 
ATOM      7  C   UNL     1       5.780  14.987  20.983  0.00  0.00    +0.000 A 
ATOM      8  C   UNL     1       7.117  14.682  21.120  0.00  0.00    +0.000 A 
ATOM      9  C   UNL     1       7.806  14.330  19.877  0.00  0.00    +0.000 A 
ATOM     10  N   UNL     1       7.204  14.493  18.740  0.00  0.00    +0.000 NA
ATOM     11  C   UNL     1       5.901  14.921  18.632  0.00  0.00    +0.000 A 
ATOM     12  O   UNL     1       5.422  15.127  17.517  0.00  0.00    +0.000 OA
ATOM     13  N   UNL     1       5.111  15.081  19.776  0.00  0.00    +0.000 N 
ATOM     14  C   UNL     1       6.377  14.944  24.813  0.00  0.00    +0.000 C 
ENDROOT
BRANCH   9  15
ATOM     15  C   UNL     1       9.169  13.726  19.850  0.00  0.00    +0.000 A 
ATOM     16  C   UNL     1       9.346  12.354  20.011  0.00  0.00    +0.000 A 
ATOM     17  C   UNL     1      10.620  11.798  20.133  0.00  0.00    +0.000 A 
ATOM     18  C   UNL     1      11.736  12.600  19.934  0.00  0.00    +0.000 A 
ATOM     19  C   UNL     1      11.569  13.942  19.591  0.00  0.00    +0.000 A 
ATOM     20  C   UNL     1      10.289  14.509  19.561  0.00  0.00    +0.000 A 
ENDBRANCH   9  15
BRANCH   1  22
ATOM     21  C   UNL     1       8.518  11.809  24.526  0.00  0.00    +0.000 C 
ATOM     22  C   UNL     1       7.302  12.480  25.205  0.00  0.00    +0.000 C 
ATOM     23  C   UNL     1       6.072  12.020  24.408  0.00  0.00    +0.000 C 
ATOM     24  C   UNL     1       7.153  11.866  26.614  0.00  0.00    +0.000 C 
ENDBRANCH   1  22
BRANCH  13  25
ATOM     25  C   UNL     1       3.681  15.331  19.602  0.00  0.00    +0.000 C 
BRANCH  25  26
ATOM     26  C   UNL     1       2.871  14.075  19.699  0.00  0.00    +0.000 A 
ATOM     27  C   UNL     1       2.237  13.516  20.796  0.00  0.00    +0.000 A 
ATOM     28  N   UNL     1       1.496  12.374  20.546  0.00  0.00    +0.000 NA
ATOM     29  C   UNL     1       1.579  12.101  19.270  0.00  0.00    +0.000 A 
ATOM     30 CL   UNL     1       0.743  10.776  18.564  0.00  0.00    +0.000 Cl
ATOM     31  S   UNL     1       2.524  13.122  18.309  0.00  0.00    +0.000 S 
ENDBRANCH  25  26
ENDBRANCH  13  25
TORSDOF 4
ENDMDL
