MODEL 1
REMARK VINA RESULT:      -6.9      0.000      0.000
REMARK  Name = 
REMARK  7 active torsions:
REMARK  status: ('A' for Active; 'I' for Inactive)
REMARK    1  A    between atoms: C_1  and  C_2
REMARK    2  A    between atoms: C_2  and  O_3
REMARK    3  A    between atoms: O_3  and  C_4
REMARK    4  A    between atoms: C_9  and  C_10
REMARK    5  A    between atoms: C_12  and  C_13
REMARK    6  A    between atoms: C_20  and  C_21
REMARK    7  A    between atoms: C_21  and  C_22
REMARK                            x       y       z     vdW  Elec       q    Type
REMARK                         _______ _______ _______ _____ _____    ______ ____
ROOT
ATOM      1  C   UNL     1       3.347   4.766  19.286  0.00  0.00    +0.000 A 
ATOM      2  C   UNL     1       3.412   5.811  18.350  0.00  0.00    +0.000 A 
ATOM      3  C   UNL     1       2.741   7.009  18.562  0.00  0.00    +0.000 A 
ATOM      4  O   UNL     1       2.866   7.957  17.585  0.00  0.00    +0.000 OA
ATOM      5  C   UNL     1       2.213   9.154  17.775  0.00  0.00    +0.000 A 
ATOM      6  C   UNL     1       1.467   9.491  18.840  0.00  0.00    +0.000 A 
ATOM      7  C   UNL     1       1.281   8.468  19.904  0.00  0.00    +0.000 A 
ATOM      8  O   UNL     1       0.566   8.627  20.886  0.00  0.00    +0.000 OA
ATOM      9  C   UNL     1       1.991   7.192  19.712  0.00  0.00    +0.000 A 
ATOM     10  C   UNL     1       1.902   6.164  20.654  0.00  0.00    +0.000 A 
ATOM     11  C   UNL     1       2.564   4.935  20.449  0.00  0.00    +0.000 A 
ENDROOT
BRANCH   6  12
ATOM     12  C   UNL     1       0.838  10.769  18.868  0.00  0.00    +0.000 A 
ATOM     13  N   UNL     1       1.441  11.909  19.173  0.00  0.00    +0.000 NA
ATOM     14  C   UNL     1       0.572  12.980  19.074  0.00  0.00    +0.000 A 
ATOM     15  C   UNL     1       1.088  14.351  19.307  0.00  0.00    +0.000 C 
ATOM     16  C   UNL     1      -0.724  12.639  18.753  0.00  0.00    +0.000 A 
ATOM     17  S   UNL     1      -0.864  10.947  18.588  0.00  0.00    +0.000 S 
ENDBRANCH   6  12
BRANCH  11  18
ATOM     18  C   UNL     1       2.381   3.853  21.490  0.00  0.00    +0.000 C 
ATOM     19  C   UNL     1       1.235   2.901  21.176  0.00  0.00    +0.000 C 
ENDBRANCH  11  18
BRANCH   1  20
ATOM     20  O   UNL     1       4.010   3.570  19.118  0.00  0.00    +0.000 OA
BRANCH  20  22
ATOM     21  C   UNL     1       2.537   2.195  17.747  0.00  0.00    +0.000 C 
ATOM     22  C   UNL     1       3.843   2.957  17.832  0.00  0.00    +0.000 C 
ENDBRANCH  20  22
ENDBRANCH   1  20
TORSDOF 4
ENDMDL
MODEL 2
REMARK VINA RESULT:      -6.9      1.546      3.015
REMARK  Name = 
REMARK  7 active torsions:
REMARK  status: ('A' for Active; 'I' for Inactive)
REMARK    1  A    between atoms: C_1  and  C_2
REMARK    2  A    between atoms: C_2  and  O_3
REMARK    3  A    between atoms: O_3  and  C_4
REMARK    4  A    between atoms: C_9  and  C_10
REMARK    5  A    between atoms: C_12  and  C_13
REMARK    6  A    between atoms: C_20  and  C_21
REMARK    7  A    between atoms: C_21  and  C_22
REMARK                            x       y       z     vdW  Elec       q    Type
REMARK                         _______ _______ _______ _____ _____    ______ ____
ROOT
ATOM      1  C   UNL     1       3.679   5.009  18.973  0.00  0.00    +0.000 A 
ATOM      2  C   UNL     1       2.903   5.584  19.992  0.00  0.00    +0.000 A 
ATOM      3  C   UNL     1       2.305   6.828  19.825  0.00  0.00    +0.000 A 
ATOM      4  O   UNL     1       1.576   7.299  20.880  0.00  0.00    +0.000 OA
ATOM      5  C   UNL     1       0.971   8.527  20.737  0.00  0.00    +0.000 A 
ATOM      6  C   UNL     1       1.017   9.311  19.647  0.00  0.00    +0.000 A 
ATOM      7  C   UNL     1       1.831   8.843  18.493  0.00  0.00    +0.000 A 
ATOM      8  O   UNL     1       2.010   9.500  17.474  0.00  0.00    +0.000 OA
ATOM      9  C   UNL     1       2.466   7.523  18.638  0.00  0.00    +0.000 A 
ATOM     10  C   UNL     1       3.243   6.977  17.612  0.00  0.00    +0.000 A 
ATOM     11  C   UNL     1       3.870   5.722  17.770  0.00  0.00    +0.000 A 
ENDROOT
BRANCH   6  12
ATOM     12  C   UNL     1       0.350  10.570  19.672  0.00  0.00    +0.000 A 
ATOM     13  N   UNL     1      -0.964  10.738  19.630  0.00  0.00    +0.000 NA
ATOM     14  C   UNL     1      -1.303  12.077  19.709  0.00  0.00    +0.000 A 
ATOM     15  C   UNL     1      -2.736  12.456  19.750  0.00  0.00    +0.000 C 
ATOM     16  C   UNL     1      -0.229  12.940  19.747  0.00  0.00    +0.000 A 
ATOM     17  S   UNL     1       1.233  12.063  19.664  0.00  0.00    +0.000 S 
ENDBRANCH   6  12
BRANCH  11  18
ATOM     18  C   UNL     1       4.733   5.218  16.634  0.00  0.00    +0.000 C 
ATOM     19  C   UNL     1       5.249   6.329  15.730  0.00  0.00    +0.000 C 
ENDBRANCH  11  18
BRANCH   1  20
ATOM     20  O   UNL     1       4.275   3.773  19.096  0.00  0.00    +0.000 OA
BRANCH  20  22
ATOM     21  C   UNL     1       3.056   2.049  17.879  0.00  0.00    +0.000 C 
ATOM     22  C   UNL     1       3.367   2.669  19.225  0.00  0.00    +0.000 C 
ENDBRANCH  20  22
ENDBRANCH   1  20
TORSDOF 4
ENDMDL
MODEL 3
REMARK VINA RESULT:      -6.9      1.230      2.719
REMARK  Name = 
REMARK  7 active torsions:
REMARK  status: ('A' for Active; 'I' for Inactive)
REMARK    1  A    between atoms: C_1  and  C_2
REMARK    2  A    between atoms: C_2  and  O_3
REMARK    3  A    between atoms: O_3  and  C_4
REMARK    4  A    between atoms: C_9  and  C_10
REMARK    5  A    between atoms: C_12  and  C_13
REMARK    6  A    between atoms: C_20  and  C_21
REMARK    7  A    between atoms: C_21  and  C_22
REMARK                            x       y       z     vdW  Elec       q    Type
REMARK                         _______ _______ _______ _____ _____    ______ ____
ROOT
ATOM      1  C   UNL     1       3.696   4.918  19.022  0.00  0.00    +0.000 A 
ATOM      2  C   UNL     1       2.910   5.542  20.003  0.00  0.00    +0.000 A 
ATOM      3  C   UNL     1       2.344   6.792  19.783  0.00  0.00    +0.000 A 
ATOM      4  O   UNL     1       1.602   7.312  20.806  0.00  0.00    +0.000 OA
ATOM      5  C   UNL     1       1.027   8.547  20.610  0.00  0.00    +0.000 A 
ATOM      6  C   UNL     1       1.115   9.296  19.498  0.00  0.00    +0.000 A 
ATOM      7  C   UNL     1       1.945   8.774  18.378  0.00  0.00    +0.000 A 
ATOM      8  O   UNL     1       2.162   9.394  17.344  0.00  0.00    +0.000 OA
ATOM      9  C   UNL     1       2.548   7.446  18.580  0.00  0.00    +0.000 A 
ATOM     10  C   UNL     1       3.336   6.850  17.590  0.00  0.00    +0.000 A 
ATOM     11  C   UNL     1       3.931   5.588  17.802  0.00  0.00    +0.000 A 
ENDROOT
BRANCH   6  12
ATOM     12  C   UNL     1       0.476  10.568  19.467  0.00  0.00    +0.000 A 
ATOM     13  N   UNL     1       0.946  11.672  20.030  0.00  0.00    +0.000 NA
ATOM     14  C   UNL     1       0.115  12.752  19.791  0.00  0.00    +0.000 A 
ATOM     15  C   UNL     1       0.516  14.092  20.283  0.00  0.00    +0.000 C 
ATOM     16  C   UNL     1      -1.034  12.448  19.091  0.00  0.00    +0.000 A 
ATOM     17  S   UNL     1      -1.085  10.779  18.741  0.00  0.00    +0.000 S 
ENDBRANCH   6  12
BRANCH  11  18
ATOM     18  C   UNL     1       4.809   5.030  16.703  0.00  0.00    +0.000 C 
ATOM     19  C   UNL     1       5.263   6.081  15.701  0.00  0.00    +0.000 C 
ENDBRANCH  11  18
BRANCH   1  20
ATOM     20  O   UNL     1       4.262   3.674  19.197  0.00  0.00    +0.000 OA
BRANCH  20  22
ATOM     21  C   UNL     1       2.792   2.137  18.007  0.00  0.00    +0.000 C 
ATOM     22  C   UNL     1       3.327   2.596  19.347  0.00  0.00    +0.000 C 
ENDBRANCH  20  22
ENDBRANCH   1  20
TORSDOF 4
ENDMDL
MODEL 4
REMARK VINA RESULT:      -6.7      1.036      1.325
REMARK  Name = 
REMARK  7 active torsions:
REMARK  status: ('A' for Active; 'I' for Inactive)
REMARK    1  A    between atoms: C_1  and  C_2
REMARK    2  A    between atoms: C_2  and  O_3
REMARK    3  A    between atoms: O_3  and  C_4
REMARK    4  A    between atoms: C_9  and  C_10
REMARK    5  A    between atoms: C_12  and  C_13
REMARK    6  A    between atoms: C_20  and  C_21
REMARK    7  A    between atoms: C_21  and  C_22
REMARK                            x       y       z     vdW  Elec       q    Type
REMARK                         _______ _______ _______ _____ _____    ______ ____
ROOT
ATOM      1  C   UNL     1       3.268   4.952  19.111  0.00  0.00    +0.000 A 
ATOM      2  C   UNL     1       3.215   6.080  18.276  0.00  0.00    +0.000 A 
ATOM      3  C   UNL     1       2.524   7.224  18.656  0.00  0.00    +0.000 A 
ATOM      4  O   UNL     1       2.530   8.262  17.768  0.00  0.00    +0.000 OA
ATOM      5  C   UNL     1       1.855   9.407  18.124  0.00  0.00    +0.000 A 
ATOM      6  C   UNL     1       1.193   9.613  19.274  0.00  0.00    +0.000 A 
ATOM      7  C   UNL     1       1.137   8.489  20.249  0.00  0.00    +0.000 A 
ATOM      8  O   UNL     1       0.505   8.527  21.297  0.00  0.00    +0.000 OA
ATOM      9  C   UNL     1       1.871   7.268  19.877  0.00  0.00    +0.000 A 
ATOM     10  C   UNL     1       1.900   6.155  20.721  0.00  0.00    +0.000 A 
ATOM     11  C   UNL     1       2.585   4.979  20.345  0.00  0.00    +0.000 A 
ENDROOT
BRANCH   6  12
ATOM     12  C   UNL     1       0.526  10.855  19.477  0.00  0.00    +0.000 A 
ATOM     13  N   UNL     1      -0.788  11.011  19.553  0.00  0.00    +0.000 NA
ATOM     14  C   UNL     1      -1.124  12.331  19.793  0.00  0.00    +0.000 A 
ATOM     15  C   UNL     1      -2.551  12.688  19.983  0.00  0.00    +0.000 C 
ATOM     16  C   UNL     1      -0.053  13.198  19.835  0.00  0.00    +0.000 A 
ATOM     17  S   UNL     1       1.400  12.350  19.552  0.00  0.00    +0.000 S 
ENDBRANCH   6  12
BRANCH  11  18
ATOM     18  C   UNL     1       2.530   3.799  21.291  0.00  0.00    +0.000 C 
ATOM     19  C   UNL     1       1.266   2.966  21.143  0.00  0.00    +0.000 C 
ENDBRANCH  11  18
BRANCH   1  20
ATOM     20  O   UNL     1       3.955   3.805  18.775  0.00  0.00    +0.000 OA
BRANCH  20  22
ATOM     21  C   UNL     1       2.469   2.213  17.682  0.00  0.00    +0.000 C 
ATOM     22  C   UNL     1       3.587   3.221  17.518  0.00  0.00    +0.000 C 
ENDBRANCH  20  22
ENDBRANCH   1  20
TORSDOF 4
ENDMDL
MODEL 5
REMARK VINA RESULT:      -6.7      4.126      7.135
REMARK  Name = 
REMARK  7 active torsions:
REMARK  status: ('A' for Active; 'I' for Inactive)
REMARK    1  A    between atoms: C_1  and  C_2
REMARK    2  A    between atoms: C_2  and  O_3
REMARK    3  A    between atoms: O_3  and  C_4
REMARK    4  A    between atoms: C_9  and  C_10
REMARK    5  A    between atoms: C_12  and  C_13
REMARK    6  A    between atoms: C_20  and  C_21
REMARK    7  A    between atoms: C_21  and  C_22
REMARK                            x       y       z     vdW  Elec       q    Type
REMARK                         _______ _______ _______ _____ _____    ______ ____
ROOT
ATOM      1  C   UNL     1       1.929   6.185  20.167  0.00  0.00    +0.000 A 
ATOM      2  C   UNL     1       2.672   6.943  19.248  0.00  0.00    +0.000 A 
ATOM      3  C   UNL     1       3.380   6.333  18.219  0.00  0.00    +0.000 A 
ATOM      4  O   UNL     1       4.074   7.163  17.384  0.00  0.00    +0.000 OA
ATOM      5  C   UNL     1       4.780   6.582  16.355  0.00  0.00    +0.000 A 
ATOM      6  C   UNL     1       4.847   5.270  16.080  0.00  0.00    +0.000 A 
ATOM      7  C   UNL     1       4.131   4.336  16.991  0.00  0.00    +0.000 A 
ATOM      8  O   UNL     1       4.176   3.116  16.890  0.00  0.00    +0.000 OA
ATOM      9  C   UNL     1       3.362   4.956  18.084  0.00  0.00    +0.000 A 
ATOM     10  C   UNL     1       2.639   4.177  18.992  0.00  0.00    +0.000 A 
ATOM     11  C   UNL     1       1.926   4.778  20.052  0.00  0.00    +0.000 A 
ENDROOT
BRANCH   6  12
ATOM     12  C   UNL     1       5.646   4.831  14.985  0.00  0.00    +0.000 A 
ATOM     13  N   UNL     1       5.236   4.024  14.017  0.00  0.00    +0.000 NA
ATOM     14  C   UNL     1       6.232   3.816  13.080  0.00  0.00    +0.000 A 
ATOM     15  C   UNL     1       5.933   2.997  11.880  0.00  0.00    +0.000 C 
ATOM     16  C   UNL     1       7.434   4.421  13.376  0.00  0.00    +0.000 A 
ATOM     17  S   UNL     1       7.324   5.252  14.862  0.00  0.00    +0.000 S 
ENDBRANCH   6  12
BRANCH  11  18
ATOM     18  C   UNL     1       1.207   3.867  21.023  0.00  0.00    +0.000 C 
ATOM     19  C   UNL     1       2.093   2.765  21.585  0.00  0.00    +0.000 C 
ENDBRANCH  11  18
BRANCH   1  20
ATOM     20  O   UNL     1       1.203   6.753  21.191  0.00  0.00    +0.000 OA
BRANCH  20  22
ATOM     21  C   UNL     1      -0.170   8.754  21.420  0.00  0.00    +0.000 C 
ATOM     22  C   UNL     1       1.221   8.188  21.226  0.00  0.00    +0.000 C 
ENDBRANCH  20  22
ENDBRANCH   1  20
TORSDOF 4
ENDMDL
MODEL 6
REMARK VINA RESULT:      -6.7      0.925      2.518
REMARK  Name = 
REMARK  7 active torsions:
REMARK  status: ('A' for Active; 'I' for Inactive)
REMARK    1  A    between atoms: C_1  and  C_2
REMARK    2  A    between atoms: C_2  and  O_3
REMARK    3  A    between atoms: O_3  and  C_4
REMARK    4  A    between atoms: C_9  and  C_10
REMARK    5  A    between atoms: C_12  and  C_13
REMARK    6  A    between atoms: C_20  and  C_21
REMARK    7  A    between atoms: C_21  and  C_22
REMARK                            x       y       z     vdW  Elec       q    Type
REMARK                         _______ _______ _______ _____ _____    ______ ____
ROOT
ATOM      1  C   UNL     1       2.840   5.070  19.852  0.00  0.00    +0.000 A 
ATOM      2  C   UNL     1       2.097   5.972  20.630  0.00  0.00    +0.000 A 
ATOM      3  C   UNL     1       1.781   7.240  20.155  0.00  0.00    +0.000 A 
ATOM      4  O   UNL     1       1.060   8.041  20.995  0.00  0.00    +0.000 OA
ATOM      5  C   UNL     1       0.732   9.300  20.545  0.00  0.00    +0.000 A 
ATOM      6  C   UNL     1       1.043   9.820  19.347  0.00  0.00    +0.000 A 
ATOM      7  C   UNL     1       1.858   8.987  18.423  0.00  0.00    +0.000 A 
ATOM      8  O   UNL     1       2.267   9.375  17.335  0.00  0.00    +0.000 OA
ATOM      9  C   UNL     1       2.197   7.634  18.895  0.00  0.00    +0.000 A 
ATOM     10  C   UNL     1       2.947   6.758  18.105  0.00  0.00    +0.000 A 
ATOM     11  C   UNL     1       3.290   5.472  18.576  0.00  0.00    +0.000 A 
ENDROOT
BRANCH   6  12
ATOM     12  C   UNL     1       0.643  11.154  19.047  0.00  0.00    +0.000 A 
ATOM     13  N   UNL     1       1.403  12.230  19.194  0.00  0.00    +0.000 NA
ATOM     14  C   UNL     1       0.743  13.373  18.780  0.00  0.00    +0.000 A 
ATOM     15  C   UNL     1       1.464  14.669  18.802  0.00  0.00    +0.000 C 
ATOM     16  C   UNL     1      -0.558  13.169  18.374  0.00  0.00    +0.000 A 
ATOM     17  S   UNL     1      -0.971  11.520  18.528  0.00  0.00    +0.000 S 
ENDBRANCH   6  12
BRANCH  11  18
ATOM     18  C   UNL     1       4.144   4.599  17.683  0.00  0.00    +0.000 C 
ATOM     19  C   UNL     1       3.344   3.557  16.915  0.00  0.00    +0.000 C 
ENDBRANCH  11  18
BRANCH   1  20
ATOM     20  O   UNL     1       3.160   3.800  20.282  0.00  0.00    +0.000 OA
BRANCH  20  22
ATOM     21  C   UNL     1       1.556   2.617  21.683  0.00  0.00    +0.000 C 
ATOM     22  C   UNL     1       2.072   2.865  20.282  0.00  0.00    +0.000 C 
ENDBRANCH  20  22
ENDBRANCH   1  20
TORSDOF 4
ENDMDL
MODEL 7
REMARK VINA RESULT:      -6.5      2.155      2.729
REMARK  Name = 
REMARK  7 active torsions:
REMARK  status: ('A' for Active; 'I' for Inactive)
REMARK    1  A    between atoms: C_1  and  C_2
REMARK    2  A    between atoms: C_2  and  O_3
REMARK    3  A    between atoms: O_3  and  C_4
REMARK    4  A    between atoms: C_9  and  C_10
REMARK    5  A    between atoms: C_12  and  C_13
REMARK    6  A    between atoms: C_20  and  C_21
REMARK    7  A    between atoms: C_21  and  C_22
REMARK                            x       y       z     vdW  Elec       q    Type
REMARK                         _______ _______ _______ _____ _____    ______ ____
ROOT
ATOM      1  C   UNL     1       4.678   4.764  17.493  0.00  0.00    +0.000 A 
ATOM      2  C   UNL     1       4.311   6.057  17.090  0.00  0.00    +0.000 A 
ATOM      3  C   UNL     1       3.444   6.829  17.854  0.00  0.00    +0.000 A 
ATOM      4  O   UNL     1       3.147   8.072  17.368  0.00  0.00    +0.000 OA
ATOM      5  C   UNL     1       2.293   8.856  18.110  0.00  0.00    +0.000 A 
ATOM      6  C   UNL     1       1.725   8.523  19.281  0.00  0.00    +0.000 A 
ATOM      7  C   UNL     1       2.000   7.163  19.819  0.00  0.00    +0.000 A 
ATOM      8  O   UNL     1       1.484   6.716  20.837  0.00  0.00    +0.000 OA
ATOM      9  C   UNL     1       2.925   6.328  19.036  0.00  0.00    +0.000 A 
ATOM     10  C   UNL     1       3.267   5.039  19.453  0.00  0.00    +0.000 A 
ATOM     11  C   UNL     1       4.135   4.235  18.683  0.00  0.00    +0.000 A 
ENDROOT
BRANCH   6  12
ATOM     12  C   UNL     1       0.843   9.448  19.910  0.00  0.00    +0.000 A 
ATOM     13  N   UNL     1       0.525   9.444  21.197  0.00  0.00    +0.000 NA
ATOM     14  C   UNL     1      -0.323  10.492  21.508  0.00  0.00    +0.000 A 
ATOM     15  C   UNL     1      -0.729  10.694  22.920  0.00  0.00    +0.000 C 
ATOM     16  C   UNL     1      -0.705  11.261  20.430  0.00  0.00    +0.000 A 
ATOM     17  S   UNL     1      -0.005  10.654  18.997  0.00  0.00    +0.000 S 
ENDBRANCH   6  12
BRANCH  11  18
ATOM     18  C   UNL     1       4.419   2.833  19.175  0.00  0.00    +0.000 C 
ATOM     19  C   UNL     1       3.472   1.789  18.604  0.00  0.00    +0.000 C 
ENDBRANCH  11  18
BRANCH   1  20
ATOM     20  O   UNL     1       5.547   3.974  16.770  0.00  0.00    +0.000 OA
BRANCH  20  22
ATOM     21  C   UNL     1       6.098   4.078  14.398  0.00  0.00    +0.000 C 
ATOM     22  C   UNL     1       6.315   4.668  15.776  0.00  0.00    +0.000 C 
ENDBRANCH  20  22
ENDBRANCH   1  20
TORSDOF 4
ENDMDL
MODEL 8
REMARK VINA RESULT:      -6.5      3.508      7.292
REMARK  Name = 
REMARK  7 active torsions:
REMARK  status: ('A' for Active; 'I' for Inactive)
REMARK    1  A    between atoms: C_1  and  C_2
REMARK    2  A    between atoms: C_2  and  O_3
REMARK    3  A    between atoms: O_3  and  C_4
REMARK    4  A    between atoms: C_9  and  C_10
REMARK    5  A    between atoms: C_12  and  C_13
REMARK    6  A    between atoms: C_20  and  C_21
REMARK    7  A    between atoms: C_21  and  C_22
REMARK                            x       y       z     vdW  Elec       q    Type
REMARK                         _______ _______ _______ _____ _____    ______ ____
ROOT
ATOM      1  C   UNL     1       0.663   8.922  20.228  0.00  0.00    +0.000 A 
ATOM      2  C   UNL     1       1.406   7.773  20.541  0.00  0.00    +0.000 A 
ATOM      3  C   UNL     1       2.342   7.258  19.652  0.00  0.00    +0.000 A 
ATOM      4  O   UNL     1       3.006   6.132  20.052  0.00  0.00    +0.000 OA
ATOM      5  C   UNL     1       3.941   5.606  19.189  0.00  0.00    +0.000 A 
ATOM      6  C   UNL     1       4.277   6.099  17.986  0.00  0.00    +0.000 A 
ATOM      7  C   UNL     1       3.547   7.304  17.506  0.00  0.00    +0.000 A 
ATOM      8  O   UNL     1       3.711   7.804  16.399  0.00  0.00    +0.000 OA
ATOM      9  C   UNL     1       2.558   7.878  18.433  0.00  0.00    +0.000 A 
ATOM     10  C   UNL     1       1.823   9.018  18.094  0.00  0.00    +0.000 A 
ATOM     11  C   UNL     1       0.858   9.547  18.978  0.00  0.00    +0.000 A 
ENDROOT
BRANCH   6  12
ATOM     12  C   UNL     1       5.254   5.416  17.206  0.00  0.00    +0.000 A 
ATOM     13  N   UNL     1       5.058   4.940  15.985  0.00  0.00    +0.000 NA
ATOM     14  C   UNL     1       6.210   4.365  15.479  0.00  0.00    +0.000 A 
ATOM     15  C   UNL     1       6.203   3.841  14.091  0.00  0.00    +0.000 C 
ATOM     16  C   UNL     1       7.275   4.347  16.354  0.00  0.00    +0.000 A 
ATOM     17  S   UNL     1       6.824   5.047  17.843  0.00  0.00    +0.000 S 
ENDBRANCH   6  12
BRANCH  11  18
ATOM     18  C   UNL     1       0.070  10.754  18.520  0.00  0.00    +0.000 C 
ATOM     19  C   UNL     1      -1.295  10.401  17.946  0.00  0.00    +0.000 C 
ENDBRANCH  11  18
BRANCH   1  20
ATOM     20  O   UNL     1      -0.263   9.471  21.090  0.00  0.00    +0.000 OA
BRANCH  20  22
ATOM     21  C   UNL     1      -0.066   9.570  23.517  0.00  0.00    +0.000 C 
ATOM     22  C   UNL     1      -0.463   8.744  22.311  0.00  0.00    +0.000 C 
ENDBRANCH  20  22
ENDBRANCH   1  20
TORSDOF 4
ENDMDL
MODEL 9
REMARK VINA RESULT:      -6.4      0.899      1.051
REMARK  Name = 
REMARK  7 active torsions:
REMARK  status: ('A' for Active; 'I' for Inactive)
REMARK    1  A    between atoms: C_1  and  C_2
REMARK    2  A    between atoms: C_2  and  O_3
REMARK    3  A    between atoms: O_3  and  C_4
REMARK    4  A    between atoms: C_9  and  C_10
REMARK    5  A    between atoms: C_12  and  C_13
REMARK    6  A    between atoms: C_20  and  C_21
REMARK    7  A    between atoms: C_21  and  C_22
REMARK                            x       y       z     vdW  Elec       q    Type
REMARK                         _______ _______ _______ _____ _____    ______ ____
ROOT
ATOM      1  C   UNL     1       3.076   5.435  18.891  0.00  0.00    +0.000 A 
ATOM      2  C   UNL     1       3.073   6.554  18.043  0.00  0.00    +0.000 A 
ATOM      3  C   UNL     1       2.437   7.733  18.411  0.00  0.00    +0.000 A 
ATOM      4  O   UNL     1       2.489   8.760  17.510  0.00  0.00    +0.000 OA
ATOM      5  C   UNL     1       1.870   9.939  17.855  0.00  0.00    +0.000 A 
ATOM      6  C   UNL     1       1.223  10.189  19.005  0.00  0.00    +0.000 A 
ATOM      7  C   UNL     1       1.118   9.082  19.993  0.00  0.00    +0.000 A 
ATOM      8  O   UNL     1       0.493   9.162  21.044  0.00  0.00    +0.000 OA
ATOM      9  C   UNL     1       1.793   7.823  19.634  0.00  0.00    +0.000 A 
ATOM     10  C   UNL     1       1.773   6.720  20.491  0.00  0.00    +0.000 A 
ATOM     11  C   UNL     1       2.400   5.509  20.127  0.00  0.00    +0.000 A 
ENDROOT
BRANCH   6  12
ATOM     12  C   UNL     1       0.615  11.464  19.195  0.00  0.00    +0.000 A 
ATOM     13  N   UNL     1       1.232  12.541  19.659  0.00  0.00    +0.000 NA
ATOM     14  C   UNL     1       0.382  13.632  19.691  0.00  0.00    +0.000 A 
ATOM     15  C   UNL     1       0.917  14.949  20.113  0.00  0.00    +0.000 C 
ATOM     16  C   UNL     1      -0.914  13.362  19.307  0.00  0.00    +0.000 A 
ATOM     17  S   UNL     1      -1.078  11.709  18.915  0.00  0.00    +0.000 S 
ENDBRANCH   6  12
BRANCH  11  18
ATOM     18  C   UNL     1       2.294   4.344  21.087  0.00  0.00    +0.000 C 
ATOM     19  C   UNL     1       1.146   3.399  20.764  0.00  0.00    +0.000 C 
ENDBRANCH  11  18
BRANCH   1  20
ATOM     20  O   UNL     1       3.707   4.253  18.566  0.00  0.00    +0.000 OA
BRANCH  20  22
ATOM     21  C   UNL     1       4.939   3.923  16.490  0.00  0.00    +0.000 C 
ATOM     22  C   UNL     1       3.598   3.863  17.190  0.00  0.00    +0.000 C 
ENDBRANCH  20  22
ENDBRANCH   1  20
TORSDOF 4
ENDMDL
