MODEL 1
REMARK VINA RESULT:      -7.1      0.000      0.000
REMARK  Name = 
REMARK  5 active torsions:
REMARK  status: ('A' for Active; 'I' for Inactive)
REMARK    1  A    between atoms: C_1  and  C_2
REMARK    2  A    between atoms: C_11  and  C_12
REMARK    3  A    between atoms: C_18  and  C_19
REMARK    4  A    between atoms: N_21  and  C_22
REMARK    5  A    between atoms: N_21  and  C_23
REMARK                            x       y       z     vdW  Elec       q    Type
REMARK                         _______ _______ _______ _____ _____    ______ ____
ROOT
ATOM      1  C   UNL     1       1.838   3.322  21.651  0.00  0.00    +0.000 C 
ATOM      2  C   UNL     1       2.241   4.436  20.716  0.00  0.00    +0.000 A 
ATOM      3  N   UNL     1       1.592   5.594  20.932  0.00  0.00    +0.000 NA
ATOM      4  C   UNL     1       1.790   6.709  20.218  0.00  0.00    +0.000 A 
ATOM      5  C   UNL     1       1.033   7.838  20.553  0.00  0.00    +0.000 A 
ATOM      6  C   UNL     1       1.171   9.020  19.838  0.00  0.00    +0.000 A 
ATOM      7  C   UNL     1       2.041   9.069  18.757  0.00  0.00    +0.000 A 
ATOM      8 CL   UNL     1       2.203  10.557  17.841  0.00  0.00    +0.000 Cl
ATOM      9  C   UNL     1       2.774   7.940  18.388  0.00  0.00    +0.000 A 
ATOM     10  C   UNL     1       2.704   6.714  19.141  0.00  0.00    +0.000 A 
ATOM     11  C   UNL     1       3.456   5.509  18.847  0.00  0.00    +0.000 A 
ATOM     12  C   UNL     1       3.242   4.331  19.682  0.00  0.00    +0.000 A 
ENDROOT
BRANCH  11  13
ATOM     13  C   UNL     1       4.349   5.476  17.623  0.00  0.00    +0.000 A 
ATOM     14  C   UNL     1       4.113   4.589  16.544  0.00  0.00    +0.000 A 
ATOM     15  C   UNL     1       4.994   4.508  15.465  0.00  0.00    +0.000 A 
ATOM     16  C   UNL     1       6.111   5.336  15.412  0.00  0.00    +0.000 A 
ATOM     17  C   UNL     1       6.339   6.259  16.433  0.00  0.00    +0.000 A 
ATOM     18  C   UNL     1       5.470   6.331  17.531  0.00  0.00    +0.000 A 
ENDBRANCH  11  13
BRANCH  12  19
ATOM     19  C   UNL     1       3.971   2.980  19.585  0.00  0.00    +0.000 C 
ATOM     20  O   UNL     1       5.062   2.930  20.131  0.00  0.00    +0.000 OA
ATOM     21  N   UNL     1       3.562   1.843  18.900  0.00  0.00    +0.000 N 
ATOM     22  C   UNL     1       2.348   1.728  18.113  0.00  0.00    +0.000 C 
ATOM     23  C   UNL     1       4.432   0.663  18.843  0.00  0.00    +0.000 C 
ENDBRANCH  12  19
TORSDOF 2
ENDMDL
MODEL 2
REMARK VINA RESULT:      -6.9      0.263      1.021
REMARK  Name = 
REMARK  5 active torsions:
REMARK  status: ('A' for Active; 'I' for Inactive)
REMARK    1  A    between atoms: C_1  and  C_2
REMARK    2  A    between atoms: C_11  and  C_12
REMARK    3  A    between atoms: C_18  and  C_19
REMARK    4  A    between atoms: N_21  and  C_22
REMARK    5  A    between atoms: N_21  and  C_23
REMARK                            x       y       z     vdW  Elec       q    Type
REMARK                         _______ _______ _______ _____ _____    ______ ____
ROOT
ATOM      1  C   UNL     1       1.949   3.365  21.726  0.00  0.00    +0.000 C 
ATOM      2  C   UNL     1       2.290   4.480  20.767  0.00  0.00    +0.000 A 
ATOM      3  N   UNL     1       1.642   5.632  21.015  0.00  0.00    +0.000 NA
ATOM      4  C   UNL     1       1.790   6.747  20.289  0.00  0.00    +0.000 A 
ATOM      5  C   UNL     1       1.041   7.870  20.662  0.00  0.00    +0.000 A 
ATOM      6  C   UNL     1       1.127   9.050  19.937  0.00  0.00    +0.000 A 
ATOM      7  C   UNL     1       1.937   9.105  18.811  0.00  0.00    +0.000 A 
ATOM      8 CL   UNL     1       2.034  10.591  17.882  0.00  0.00    +0.000 Cl
ATOM      9  C   UNL     1       2.660   7.981  18.405  0.00  0.00    +0.000 A 
ATOM     10  C   UNL     1       2.643   6.757  19.164  0.00  0.00    +0.000 A 
ATOM     11  C   UNL     1       3.390   5.559  18.832  0.00  0.00    +0.000 A 
ATOM     12  C   UNL     1       3.234   4.382  19.680  0.00  0.00    +0.000 A 
ENDROOT
BRANCH  11  13
ATOM     13  C   UNL     1       4.216   5.531  17.561  0.00  0.00    +0.000 A 
ATOM     14  C   UNL     1       5.098   6.584  17.214  0.00  0.00    +0.000 A 
ATOM     15  C   UNL     1       5.783   6.586  15.999  0.00  0.00    +0.000 A 
ATOM     16  C   UNL     1       5.639   5.521  15.115  0.00  0.00    +0.000 A 
ATOM     17  C   UNL     1       4.820   4.444  15.454  0.00  0.00    +0.000 A 
ATOM     18  C   UNL     1       4.112   4.445  16.664  0.00  0.00    +0.000 A 
ENDBRANCH  11  13
BRANCH  12  19
ATOM     19  C   UNL     1       3.969   3.037  19.548  0.00  0.00    +0.000 C 
ATOM     20  O   UNL     1       5.113   3.018  19.976  0.00  0.00    +0.000 OA
ATOM     21  N   UNL     1       3.508   1.874  18.944  0.00  0.00    +0.000 N 
ATOM     22  C   UNL     1       2.221   1.719  18.295  0.00  0.00    +0.000 C 
ATOM     23  C   UNL     1       4.387   0.704  18.830  0.00  0.00    +0.000 C 
ENDBRANCH  12  19
TORSDOF 2
ENDMDL
MODEL 3
REMARK VINA RESULT:      -6.8      2.176      4.839
REMARK  Name = 
REMARK  5 active torsions:
REMARK  status: ('A' for Active; 'I' for Inactive)
REMARK    1  A    between atoms: C_1  and  C_2
REMARK    2  A    between atoms: C_11  and  C_12
REMARK    3  A    between atoms: C_18  and  C_19
REMARK    4  A    between atoms: N_21  and  C_22
REMARK    5  A    between atoms: N_21  and  C_23
REMARK                            x       y       z     vdW  Elec       q    Type
REMARK                         _______ _______ _______ _____ _____    ______ ____
ROOT
ATOM      1  C   UNL     1       3.934   1.912  17.830  0.00  0.00    +0.000 C 
ATOM      2  C   UNL     1       4.201   3.397  17.858  0.00  0.00    +0.000 A 
ATOM      3  N   UNL     1       5.472   3.730  17.567  0.00  0.00    +0.000 NA
ATOM      4  C   UNL     1       5.929   4.989  17.537  0.00  0.00    +0.000 A 
ATOM      5  C   UNL     1       7.280   5.181  17.226  0.00  0.00    +0.000 A 
ATOM      6  C   UNL     1       7.825   6.457  17.204  0.00  0.00    +0.000 A 
ATOM      7  C   UNL     1       7.030   7.548  17.528  0.00  0.00    +0.000 A 
ATOM      8 CL   UNL     1       7.722   9.161  17.517  0.00  0.00    +0.000 Cl
ATOM      9  C   UNL     1       5.690   7.367  17.877  0.00  0.00    +0.000 A 
ATOM     10  C   UNL     1       5.073   6.066  17.855  0.00  0.00    +0.000 A 
ATOM     11  C   UNL     1       3.682   5.796  18.169  0.00  0.00    +0.000 A 
ATOM     12  C   UNL     1       3.217   4.413  18.142  0.00  0.00    +0.000 A 
ENDROOT
BRANCH  11  13
ATOM     13  C   UNL     1       2.792   6.936  18.622  0.00  0.00    +0.000 A 
ATOM     14  C   UNL     1       2.387   7.969  17.741  0.00  0.00    +0.000 A 
ATOM     15  C   UNL     1       1.642   9.058  18.193  0.00  0.00    +0.000 A 
ATOM     16  C   UNL     1       1.247   9.128  19.525  0.00  0.00    +0.000 A 
ATOM     17  C   UNL     1       1.584   8.098  20.404  0.00  0.00    +0.000 A 
ATOM     18  C   UNL     1       2.351   7.011  19.962  0.00  0.00    +0.000 A 
ENDBRANCH  11  13
BRANCH  12  19
ATOM     19  C   UNL     1       1.782   3.912  18.381  0.00  0.00    +0.000 C 
ATOM     20  O   UNL     1       1.021   4.020  17.432  0.00  0.00    +0.000 OA
ATOM     21  N   UNL     1       1.243   3.414  19.560  0.00  0.00    +0.000 N 
ATOM     22  C   UNL     1       1.951   3.293  20.821  0.00  0.00    +0.000 C 
ATOM     23  C   UNL     1      -0.180   3.063  19.631  0.00  0.00    +0.000 C 
ENDBRANCH  12  19
TORSDOF 2
ENDMDL
MODEL 4
REMARK VINA RESULT:      -6.7      2.164      4.876
REMARK  Name = 
REMARK  5 active torsions:
REMARK  status: ('A' for Active; 'I' for Inactive)
REMARK    1  A    between atoms: C_1  and  C_2
REMARK    2  A    between atoms: C_11  and  C_12
REMARK    3  A    between atoms: C_18  and  C_19
REMARK    4  A    between atoms: N_21  and  C_22
REMARK    5  A    between atoms: N_21  and  C_23
REMARK                            x       y       z     vdW  Elec       q    Type
REMARK                         _______ _______ _______ _____ _____    ______ ____
ROOT
ATOM      1  C   UNL     1       3.788   1.845  17.820  0.00  0.00    +0.000 C 
ATOM      2  C   UNL     1       4.106   3.320  17.853  0.00  0.00    +0.000 A 
ATOM      3  N   UNL     1       5.377   3.613  17.521  0.00  0.00    +0.000 NA
ATOM      4  C   UNL     1       5.875   4.855  17.489  0.00  0.00    +0.000 A 
ATOM      5  C   UNL     1       7.221   5.006  17.133  0.00  0.00    +0.000 A 
ATOM      6  C   UNL     1       7.808   6.263  17.104  0.00  0.00    +0.000 A 
ATOM      7  C   UNL     1       7.063   7.376  17.467  0.00  0.00    +0.000 A 
ATOM      8 CL   UNL     1       7.808   8.965  17.447  0.00  0.00    +0.000 Cl
ATOM      9  C   UNL     1       5.730   7.237  17.860  0.00  0.00    +0.000 A 
ATOM     10  C   UNL     1       5.068   5.958  17.846  0.00  0.00    +0.000 A 
ATOM     11  C   UNL     1       3.681   5.731  18.205  0.00  0.00    +0.000 A 
ATOM     12  C   UNL     1       3.167   4.365  18.181  0.00  0.00    +0.000 A 
ENDROOT
BRANCH  11  13
ATOM     13  C   UNL     1       2.846   6.896  18.700  0.00  0.00    +0.000 A 
ATOM     14  C   UNL     1       2.390   6.979  20.038  0.00  0.00    +0.000 A 
ATOM     15  C   UNL     1       1.549   8.011  20.456  0.00  0.00    +0.000 A 
ATOM     16  C   UNL     1       1.173   9.009  19.563  0.00  0.00    +0.000 A 
ATOM     17  C   UNL     1       1.652   8.984  18.252  0.00  0.00    +0.000 A 
ATOM     18  C   UNL     1       2.479   7.938  17.820  0.00  0.00    +0.000 A 
ENDBRANCH  11  13
BRANCH  12  19
ATOM     19  C   UNL     1       1.726   3.910  18.464  0.00  0.00    +0.000 C 
ATOM     20  O   UNL     1       0.942   4.034  17.535  0.00  0.00    +0.000 OA
ATOM     21  N   UNL     1       1.205   3.440  19.663  0.00  0.00    +0.000 N 
ATOM     22  C   UNL     1       1.944   3.308  20.905  0.00  0.00    +0.000 C 
ATOM     23  C   UNL     1      -0.226   3.133  19.776  0.00  0.00    +0.000 C 
ENDBRANCH  12  19
TORSDOF 2
ENDMDL
MODEL 5
REMARK VINA RESULT:      -6.7      2.975      5.874
REMARK  Name = 
REMARK  5 active torsions:
REMARK  status: ('A' for Active; 'I' for Inactive)
REMARK    1  A    between atoms: C_1  and  C_2
REMARK    2  A    between atoms: C_11  and  C_12
REMARK    3  A    between atoms: C_18  and  C_19
REMARK    4  A    between atoms: N_21  and  C_22
REMARK    5  A    between atoms: N_21  and  C_23
REMARK                            x       y       z     vdW  Elec       q    Type
REMARK                         _______ _______ _______ _____ _____    ______ ____
ROOT
ATOM      1  C   UNL     1       7.136   4.354  16.069  0.00  0.00    +0.000 C 
ATOM      2  C   UNL     1       5.816   4.456  16.795  0.00  0.00    +0.000 A 
ATOM      3  N   UNL     1       5.183   3.279  16.950  0.00  0.00    +0.000 NA
ATOM      4  C   UNL     1       4.000   3.139  17.560  0.00  0.00    +0.000 A 
ATOM      5  C   UNL     1       3.459   1.850  17.638  0.00  0.00    +0.000 A 
ATOM      6  C   UNL     1       2.223   1.637  18.234  0.00  0.00    +0.000 A 
ATOM      7  C   UNL     1       1.504   2.718  18.725  0.00  0.00    +0.000 A 
ATOM      8 CL   UNL     1      -0.066   2.453  19.464  0.00  0.00    +0.000 Cl
ATOM      9  C   UNL     1       2.014   4.013  18.619  0.00  0.00    +0.000 A 
ATOM     10  C   UNL     1       3.317   4.269  18.062  0.00  0.00    +0.000 A 
ATOM     11  C   UNL     1       3.935   5.576  17.947  0.00  0.00    +0.000 A 
ATOM     12  C   UNL     1       5.248   5.675  17.317  0.00  0.00    +0.000 A 
ENDROOT
BRANCH  11  13
ATOM     13  C   UNL     1       3.155   6.802  18.379  0.00  0.00    +0.000 A 
ATOM     14  C   UNL     1       2.675   6.960  19.703  0.00  0.00    +0.000 A 
ATOM     15  C   UNL     1       1.883   8.050  20.063  0.00  0.00    +0.000 A 
ATOM     16  C   UNL     1       1.582   9.033  19.125  0.00  0.00    +0.000 A 
ATOM     17  C   UNL     1       2.087   8.933  17.828  0.00  0.00    +0.000 A 
ATOM     18  C   UNL     1       2.865   7.829  17.454  0.00  0.00    +0.000 A 
ENDBRANCH  11  13
BRANCH  12  19
ATOM     19  C   UNL     1       6.103   6.943  17.148  0.00  0.00    +0.000 C 
ATOM     20  O   UNL     1       5.775   7.682  16.233  0.00  0.00    +0.000 OA
ATOM     21  N   UNL     1       7.234   7.305  17.869  0.00  0.00    +0.000 N 
ATOM     22  C   UNL     1       7.840   6.521  18.929  0.00  0.00    +0.000 C 
ATOM     23  C   UNL     1       7.982   8.515  17.510  0.00  0.00    +0.000 C 
ENDBRANCH  12  19
TORSDOF 2
ENDMDL
MODEL 6
REMARK VINA RESULT:      -6.5      2.983      5.874
REMARK  Name = 
REMARK  5 active torsions:
REMARK  status: ('A' for Active; 'I' for Inactive)
REMARK    1  A    between atoms: C_1  and  C_2
REMARK    2  A    between atoms: C_11  and  C_12
REMARK    3  A    between atoms: C_18  and  C_19
REMARK    4  A    between atoms: N_21  and  C_22
REMARK    5  A    between atoms: N_21  and  C_23
REMARK                            x       y       z     vdW  Elec       q    Type
REMARK                         _______ _______ _______ _____ _____    ______ ____
ROOT
ATOM      1  C   UNL     1       7.173   4.364  16.153  0.00  0.00    +0.000 C 
ATOM      2  C   UNL     1       5.838   4.452  16.852  0.00  0.00    +0.000 A 
ATOM      3  N   UNL     1       5.228   3.265  17.018  0.00  0.00    +0.000 NA
ATOM      4  C   UNL     1       4.035   3.111  17.608  0.00  0.00    +0.000 A 
ATOM      5  C   UNL     1       3.520   1.813  17.702  0.00  0.00    +0.000 A 
ATOM      6  C   UNL     1       2.278   1.585  18.278  0.00  0.00    +0.000 A 
ATOM      7  C   UNL     1       1.526   2.660  18.732  0.00  0.00    +0.000 A 
ATOM      8 CL   UNL     1      -0.052   2.376  19.446  0.00  0.00    +0.000 Cl
ATOM      9  C   UNL     1       2.011   3.963  18.611  0.00  0.00    +0.000 A 
ATOM     10  C   UNL     1       3.319   4.236  18.073  0.00  0.00    +0.000 A 
ATOM     11  C   UNL     1       3.911   5.554  17.944  0.00  0.00    +0.000 A 
ATOM     12  C   UNL     1       5.233   5.669  17.337  0.00  0.00    +0.000 A 
ENDROOT
BRANCH  11  13
ATOM     13  C   UNL     1       3.097   6.771  18.336  0.00  0.00    +0.000 A 
ATOM     14  C   UNL     1       2.800   7.806  17.414  0.00  0.00    +0.000 A 
ATOM     15  C   UNL     1       2.126   8.961  17.811  0.00  0.00    +0.000 A 
ATOM     16  C   UNL     1       1.695   9.098  19.127  0.00  0.00    +0.000 A 
ATOM     17  C   UNL     1       1.924   8.072  20.044  0.00  0.00    +0.000 A 
ATOM     18  C   UNL     1       2.620   6.918  19.657  0.00  0.00    +0.000 A 
ENDBRANCH  11  13
BRANCH  12  19
ATOM     19  C   UNL     1       6.065   6.951  17.159  0.00  0.00    +0.000 C 
ATOM     20  O   UNL     1       5.711   7.687  16.250  0.00  0.00    +0.000 OA
ATOM     21  N   UNL     1       7.199   7.331  17.865  0.00  0.00    +0.000 N 
ATOM     22  C   UNL     1       7.834   6.556  18.915  0.00  0.00    +0.000 C 
ATOM     23  C   UNL     1       7.922   8.554  17.498  0.00  0.00    +0.000 C 
ENDBRANCH  12  19
TORSDOF 2
ENDMDL
MODEL 7
REMARK VINA RESULT:      -6.3      8.368     11.682
REMARK  Name = 
REMARK  5 active torsions:
REMARK  status: ('A' for Active; 'I' for Inactive)
REMARK    1  A    between atoms: C_1  and  C_2
REMARK    2  A    between atoms: C_11  and  C_12
REMARK    3  A    between atoms: C_18  and  C_19
REMARK    4  A    between atoms: N_21  and  C_22
REMARK    5  A    between atoms: N_21  and  C_23
REMARK                            x       y       z     vdW  Elec       q    Type
REMARK                         _______ _______ _______ _____ _____    ______ ____
ROOT
ATOM      1  C   UNL     1      -7.271  12.615  18.092  0.00  0.00    +0.000 C 
ATOM      2  C   UNL     1      -5.824  12.387  18.458  0.00  0.00    +0.000 A 
ATOM      3  N   UNL     1      -5.175  11.549  17.629  0.00  0.00    +0.000 NA
ATOM      4  C   UNL     1      -3.889  11.204  17.768  0.00  0.00    +0.000 A 
ATOM      5  C   UNL     1      -3.351  10.313  16.832  0.00  0.00    +0.000 A 
ATOM      6  C   UNL     1      -2.032   9.894  16.932  0.00  0.00    +0.000 A 
ATOM      7  C   UNL     1      -1.251  10.334  17.991  0.00  0.00    +0.000 A 
ATOM      8 CL   UNL     1       0.412   9.792  18.129  0.00  0.00    +0.000 Cl
ATOM      9  C   UNL     1      -1.786  11.193  18.954  0.00  0.00    +0.000 A 
ATOM     10  C   UNL     1      -3.131  11.698  18.853  0.00  0.00    +0.000 A 
ATOM     11  C   UNL     1      -3.751  12.618  19.788  0.00  0.00    +0.000 A 
ATOM     12  C   UNL     1      -5.141  13.003  19.570  0.00  0.00    +0.000 A 
ENDROOT
BRANCH  11  13
ATOM     13  C   UNL     1      -2.977  13.057  21.015  0.00  0.00    +0.000 A 
ATOM     14  C   UNL     1      -2.078  14.151  20.985  0.00  0.00    +0.000 A 
ATOM     15  C   UNL     1      -1.306  14.488  22.097  0.00  0.00    +0.000 A 
ATOM     16  C   UNL     1      -1.438  13.769  23.281  0.00  0.00    +0.000 A 
ATOM     17  C   UNL     1      -2.356  12.721  23.357  0.00  0.00    +0.000 A 
ATOM     18  C   UNL     1      -3.119  12.363  22.237  0.00  0.00    +0.000 A 
ENDBRANCH  11  13
BRANCH  12  19
ATOM     19  C   UNL     1      -5.968  14.003  20.396  0.00  0.00    +0.000 C 
ATOM     20  O   UNL     1      -5.854  15.176  20.072  0.00  0.00    +0.000 OA
ATOM     21  N   UNL     1      -6.770  13.734  21.498  0.00  0.00    +0.000 N 
ATOM     22  C   UNL     1      -6.963  12.427  22.097  0.00  0.00    +0.000 C 
ATOM     23  C   UNL     1      -7.420  14.832  22.223  0.00  0.00    +0.000 C 
ENDBRANCH  12  19
TORSDOF 2
ENDMDL
MODEL 8
REMARK VINA RESULT:      -6.0      7.326     10.686
REMARK  Name = 
REMARK  5 active torsions:
REMARK  status: ('A' for Active; 'I' for Inactive)
REMARK    1  A    between atoms: C_1  and  C_2
REMARK    2  A    between atoms: C_11  and  C_12
REMARK    3  A    between atoms: C_18  and  C_19
REMARK    4  A    between atoms: N_21  and  C_22
REMARK    5  A    between atoms: N_21  and  C_23
REMARK                            x       y       z     vdW  Elec       q    Type
REMARK                         _______ _______ _______ _____ _____    ______ ____
ROOT
ATOM      1  C   UNL     1      -2.781  10.784  16.549  0.00  0.00    +0.000 C 
ATOM      2  C   UNL     1      -3.320  11.343  17.843  0.00  0.00    +0.000 A 
ATOM      3  N   UNL     1      -4.643  11.163  18.009  0.00  0.00    +0.000 NA
ATOM      4  C   UNL     1      -5.328  11.582  19.080  0.00  0.00    +0.000 A 
ATOM      5  C   UNL     1      -6.705  11.331  19.108  0.00  0.00    +0.000 A 
ATOM      6  C   UNL     1      -7.480  11.760  20.177  0.00  0.00    +0.000 A 
ATOM      7  C   UNL     1      -6.888  12.477  21.208  0.00  0.00    +0.000 A 
ATOM      8 CL   UNL     1      -7.870  13.036  22.552  0.00  0.00    +0.000 Cl
ATOM      9  C   UNL     1      -5.523  12.767  21.174  0.00  0.00    +0.000 A 
ATOM     10  C   UNL     1      -4.675  12.288  20.114  0.00  0.00    +0.000 A 
ATOM     11  C   UNL     1      -3.245  12.515  20.020  0.00  0.00    +0.000 A 
ATOM     12  C   UNL     1      -2.530  11.999  18.858  0.00  0.00    +0.000 A 
ENDROOT
BRANCH  11  13
ATOM     13  C   UNL     1      -2.563  13.372  21.069  0.00  0.00    +0.000 A 
ATOM     14  C   UNL     1      -2.427  14.774  20.922  0.00  0.00    +0.000 A 
ATOM     15  C   UNL     1      -1.720  15.537  21.851  0.00  0.00    +0.000 A 
ATOM     16  C   UNL     1      -1.164  14.929  22.973  0.00  0.00    +0.000 A 
ATOM     17  C   UNL     1      -1.329  13.558  23.174  0.00  0.00    +0.000 A 
ATOM     18  C   UNL     1      -2.020  12.782  22.232  0.00  0.00    +0.000 A 
ENDBRANCH  11  13
BRANCH  12  19
ATOM     19  C   UNL     1      -1.018  12.073  18.589  0.00  0.00    +0.000 C 
ATOM     20  O   UNL     1      -0.653  12.995  17.876  0.00  0.00    +0.000 OA
ATOM     21  N   UNL     1      -0.038  11.182  19.008  0.00  0.00    +0.000 N 
ATOM     22  C   UNL     1      -0.274   9.976  19.781  0.00  0.00    +0.000 C 
ATOM     23  C   UNL     1       1.355  11.362  18.582  0.00  0.00    +0.000 C 
ENDBRANCH  12  19
TORSDOF 2
ENDMDL
MODEL 9
REMARK VINA RESULT:      -6.0      8.647     11.848
REMARK  Name = 
REMARK  5 active torsions:
REMARK  status: ('A' for Active; 'I' for Inactive)
REMARK    1  A    between atoms: C_1  and  C_2
REMARK    2  A    between atoms: C_11  and  C_12
REMARK    3  A    between atoms: C_18  and  C_19
REMARK    4  A    between atoms: N_21  and  C_22
REMARK    5  A    between atoms: N_21  and  C_23
REMARK                            x       y       z     vdW  Elec       q    Type
REMARK                         _______ _______ _______ _____ _____    ______ ____
ROOT
ATOM      1  C   UNL     1      -7.483  13.003  18.585  0.00  0.00    +0.000 C 
ATOM      2  C   UNL     1      -6.025  12.696  18.826  0.00  0.00    +0.000 A 
ATOM      3  N   UNL     1      -5.491  11.842  17.934  0.00  0.00    +0.000 NA
ATOM      4  C   UNL     1      -4.217  11.430  17.961  0.00  0.00    +0.000 A 
ATOM      5  C   UNL     1      -3.805  10.532  16.970  0.00  0.00    +0.000 A 
ATOM      6  C   UNL     1      -2.505  10.044  16.954  0.00  0.00    +0.000 A 
ATOM      7  C   UNL     1      -1.618  10.425  17.952  0.00  0.00    +0.000 A 
ATOM      8 CL   UNL     1       0.021   9.797  17.944  0.00  0.00    +0.000 Cl
ATOM      9  C   UNL     1      -2.027  11.291  18.968  0.00  0.00    +0.000 A 
ATOM     10  C   UNL     1      -3.348  11.865  18.986  0.00  0.00    +0.000 A 
ATOM     11  C   UNL     1      -3.841  12.797  19.983  0.00  0.00    +0.000 A 
ATOM     12  C   UNL     1      -5.222  13.256  19.886  0.00  0.00    +0.000 A 
ENDROOT
BRANCH  11  13
ATOM     13  C   UNL     1      -2.947  13.173  21.148  0.00  0.00    +0.000 A 
ATOM     14  C   UNL     1      -2.951  12.447  22.364  0.00  0.00    +0.000 A 
ATOM     15  C   UNL     1      -2.189  12.857  23.458  0.00  0.00    +0.000 A 
ATOM     16  C   UNL     1      -1.372  13.979  23.356  0.00  0.00    +0.000 A 
ATOM     17  C   UNL     1      -1.305  14.683  22.153  0.00  0.00    +0.000 A 
ATOM     18  C   UNL     1      -2.084  14.289  21.057  0.00  0.00    +0.000 A 
ENDBRANCH  11  13
BRANCH  12  19
ATOM     19  C   UNL     1      -5.926  14.281  20.793  0.00  0.00    +0.000 C 
ATOM     20  O   UNL     1      -5.797  15.450  20.464  0.00  0.00    +0.000 OA
ATOM     21  N   UNL     1      -6.628  14.034  21.966  0.00  0.00    +0.000 N 
ATOM     22  C   UNL     1      -6.813  12.731  22.575  0.00  0.00    +0.000 C 
ATOM     23  C   UNL     1      -7.161  15.151  22.755  0.00  0.00    +0.000 C 
ENDBRANCH  12  19
TORSDOF 2
ENDMDL
