MODEL 1
REMARK VINA RESULT:      -7.2      0.000      0.000
REMARK  Name = 
REMARK  6 active torsions:
REMARK  status: ('A' for Active; 'I' for Inactive)
REMARK    1  A    between atoms: C_1  and  C_2
REMARK    2  A    between atoms: C_6  and  C_7
REMARK    3  A    between atoms: C_7  and  N_8
REMARK    4  A    between atoms: N_8  and  C_9
REMARK    5  A    between atoms: C_9  and  C_10
REMARK    6  A    between atoms: C_9  and  C_11
REMARK                            x       y       z     vdW  Elec       q    Type
REMARK                         _______ _______ _______ _____ _____    ______ ____
ROOT
ATOM      1  C   UNL     1       6.263   4.695  17.601  0.00  0.00    +0.000 C 
ATOM      2  C   UNL     1       6.959   6.063  17.580  0.00  0.00    +0.000 C 
ENDROOT
BRANCH   1   3
ATOM      3  C   UNL     1       4.784   4.899  17.823  0.00  0.00    +0.000 A 
ATOM      4  N   UNL     1       4.179   6.067  17.682  0.00  0.00    +0.000 NA
ATOM      5  N   UNL     1       2.840   5.909  17.928  0.00  0.00    +0.000 NA
ATOM      6  C   UNL     1       2.636   4.647  18.225  0.00  0.00    +0.000 A 
ATOM      7  N   UNL     1       3.828   3.968  18.154  0.00  0.00    +0.000 N 
ATOM      8  C   UNL     1       3.971   2.568  18.491  0.00  0.00    +0.000 C 
ATOM      9  C   UNL     1       2.630   1.834  18.628  0.00  0.00    +0.000 C 
ATOM     10  C   UNL     1       1.585   2.695  19.344  0.00  0.00    +0.000 C 
ATOM     11  C   UNL     1       1.350   3.992  18.572  0.00  0.00    +0.000 C 
ENDBRANCH   1   3
BRANCH   1  12
ATOM     12  N   UNL     1       6.562   3.867  16.417  0.00  0.00    +0.000 NA
ATOM     13  H   UNL     1       7.510   4.101  16.113  0.00  0.00    +0.000 HD
BRANCH  12  14
ATOM     14  C   UNL     1       5.693   4.187  15.275  0.00  0.00    +0.000 C 
BRANCH  14  20
ATOM     15  C   UNL     1       5.428   3.055  12.172  0.00  0.00    +0.000 C 
ATOM     16  C   UNL     1       6.422   3.997  12.740  0.00  0.00    +0.000 A 
ATOM     17  C   UNL     1       7.485   4.643  12.047  0.00  0.00    +0.000 A 
ATOM     18  C   UNL     1       8.132   5.430  12.970  0.00  0.00    +0.000 A 
ATOM     19  O   UNL     1       7.550   5.310  14.188  0.00  0.00    +0.000 OA
ATOM     20  C   UNL     1       6.505   4.443  14.051  0.00  0.00    +0.000 A 
ENDBRANCH  14  20
ENDBRANCH  12  14
ENDBRANCH   1  12
TORSDOF 4
ENDMDL
MODEL 2
REMARK VINA RESULT:      -7.1      2.815      4.105
REMARK  Name = 
REMARK  6 active torsions:
REMARK  status: ('A' for Active; 'I' for Inactive)
REMARK    1  A    between atoms: C_1  and  C_2
REMARK    2  A    between atoms: C_6  and  C_7
REMARK    3  A    between atoms: C_7  and  N_8
REMARK    4  A    between atoms: N_8  and  C_9
REMARK    5  A    between atoms: C_9  and  C_10
REMARK    6  A    between atoms: C_9  and  C_11
REMARK                            x       y       z     vdW  Elec       q    Type
REMARK                         _______ _______ _______ _____ _____    ______ ____
ROOT
ATOM      1  C   UNL     1       3.935   6.263  17.795  0.00  0.00    +0.000 C 
ATOM      2  C   UNL     1       2.927   7.414  17.922  0.00  0.00    +0.000 C 
ENDROOT
BRANCH   1   3
ATOM      3  C   UNL     1       3.204   4.951  17.946  0.00  0.00    +0.000 A 
ATOM      4  N   UNL     1       2.956   4.133  16.936  0.00  0.00    +0.000 NA
ATOM      5  N   UNL     1       2.304   3.025  17.409  0.00  0.00    +0.000 NA
ATOM      6  C   UNL     1       2.151   3.175  18.704  0.00  0.00    +0.000 A 
ATOM      7  N   UNL     1       2.718   4.365  19.090  0.00  0.00    +0.000 N 
ATOM      8  C   UNL     1       2.665   4.873  20.445  0.00  0.00    +0.000 C 
ATOM      9  C   UNL     1       2.201   3.828  21.469  0.00  0.00    +0.000 C 
ATOM     10  C   UNL     1       1.055   2.971  20.923  0.00  0.00    +0.000 C 
ATOM     11  C   UNL     1       1.498   2.242  19.656  0.00  0.00    +0.000 C 
ENDBRANCH   1   3
BRANCH   1  12
ATOM     12  N   UNL     1       4.753   6.333  16.569  0.00  0.00    +0.000 NA
ATOM     13  H   UNL     1       4.301   5.742  15.868  0.00  0.00    +0.000 HD
BRANCH  12  14
ATOM     14  C   UNL     1       6.095   5.765  16.756  0.00  0.00    +0.000 C 
BRANCH  14  20
ATOM     15  C   UNL     1       8.013   5.515  19.447  0.00  0.00    +0.000 C 
ATOM     16  C   UNL     1       7.812   6.677  18.549  0.00  0.00    +0.000 A 
ATOM     17  C   UNL     1       8.433   7.955  18.648  0.00  0.00    +0.000 A 
ATOM     18  C   UNL     1       7.958   8.703  17.597  0.00  0.00    +0.000 A 
ATOM     19  O   UNL     1       7.080   7.981  16.859  0.00  0.00    +0.000 OA
ATOM     20  C   UNL     1       6.992   6.746  17.432  0.00  0.00    +0.000 A 
ENDBRANCH  14  20
ENDBRANCH  12  14
ENDBRANCH   1  12
TORSDOF 4
ENDMDL
MODEL 3
REMARK VINA RESULT:      -7.1      1.130      1.841
REMARK  Name = 
REMARK  6 active torsions:
REMARK  status: ('A' for Active; 'I' for Inactive)
REMARK    1  A    between atoms: C_1  and  C_2
REMARK    2  A    between atoms: C_6  and  C_7
REMARK    3  A    between atoms: C_7  and  N_8
REMARK    4  A    between atoms: N_8  and  C_9
REMARK    5  A    between atoms: C_9  and  C_10
REMARK    6  A    between atoms: C_9  and  C_11
REMARK                            x       y       z     vdW  Elec       q    Type
REMARK                         _______ _______ _______ _____ _____    ______ ____
ROOT
ATOM      1  C   UNL     1       5.066   5.911  17.131  0.00  0.00    +0.000 C 
ATOM      2  C   UNL     1       4.119   7.066  17.487  0.00  0.00    +0.000 C 
ENDROOT
BRANCH   1   3
ATOM      3  C   UNL     1       4.772   4.739  18.037  0.00  0.00    +0.000 A 
ATOM      4  N   UNL     1       5.687   4.151  18.791  0.00  0.00    +0.000 NA
ATOM      5  N   UNL     1       5.095   3.144  19.508  0.00  0.00    +0.000 NA
ATOM      6  C   UNL     1       3.824   3.118  19.183  0.00  0.00    +0.000 A 
ATOM      7  N   UNL     1       3.570   4.115  18.273  0.00  0.00    +0.000 N 
ATOM      8  C   UNL     1       2.278   4.321  17.653  0.00  0.00    +0.000 C 
ATOM      9  C   UNL     1       1.146   3.537  18.330  0.00  0.00    +0.000 C 
ATOM     10  C   UNL     1       1.593   2.127  18.727  0.00  0.00    +0.000 C 
ATOM     11  C   UNL     1       2.775   2.200  19.692  0.00  0.00    +0.000 C 
ENDBRANCH   1   3
BRANCH   1  12
ATOM     12  N   UNL     1       5.043   5.555  15.700  0.00  0.00    +0.000 NA
ATOM     13  H   UNL     1       4.085   5.283  15.468  0.00  0.00    +0.000 HD
BRANCH  12  14
ATOM     14  C   UNL     1       5.870   4.377  15.401  0.00  0.00    +0.000 C 
BRANCH  14  20
ATOM     15  C   UNL     1       5.471   3.082  12.377  0.00  0.00    +0.000 C 
ATOM     16  C   UNL     1       6.483   4.057  12.848  0.00  0.00    +0.000 A 
ATOM     17  C   UNL     1       7.508   4.670  12.073  0.00  0.00    +0.000 A 
ATOM     18  C   UNL     1       8.191   5.509  12.923  0.00  0.00    +0.000 A 
ATOM     19  O   UNL     1       7.667   5.450  14.171  0.00  0.00    +0.000 OA
ATOM     20  C   UNL     1       6.623   4.573  14.129  0.00  0.00    +0.000 A 
ENDBRANCH  14  20
ENDBRANCH  12  14
ENDBRANCH   1  12
TORSDOF 4
ENDMDL
MODEL 4
REMARK VINA RESULT:      -6.9      1.212      1.254
REMARK  Name = 
REMARK  6 active torsions:
REMARK  status: ('A' for Active; 'I' for Inactive)
REMARK    1  A    between atoms: C_1  and  C_2
REMARK    2  A    between atoms: C_6  and  C_7
REMARK    3  A    between atoms: C_7  and  N_8
REMARK    4  A    between atoms: N_8  and  C_9
REMARK    5  A    between atoms: C_9  and  C_10
REMARK    6  A    between atoms: C_9  and  C_11
REMARK                            x       y       z     vdW  Elec       q    Type
REMARK                         _______ _______ _______ _____ _____    ______ ____
ROOT
ATOM      1  C   UNL     1       5.671   4.612  17.608  0.00  0.00    +0.000 C 
ATOM      2  C   UNL     1       6.953   5.140  18.269  0.00  0.00    +0.000 C 
ENDROOT
BRANCH   1   3
ATOM      3  C   UNL     1       4.478   5.092  18.399  0.00  0.00    +0.000 A 
ATOM      4  N   UNL     1       3.970   6.308  18.289  0.00  0.00    +0.000 NA
ATOM      5  N   UNL     1       2.883   6.415  19.117  0.00  0.00    +0.000 NA
ATOM      6  C   UNL     1       2.738   5.265  19.734  0.00  0.00    +0.000 A 
ATOM      7  N   UNL     1       3.709   4.395  19.301  0.00  0.00    +0.000 N 
ATOM      8  C   UNL     1       3.879   3.060  19.832  0.00  0.00    +0.000 C 
ATOM      9  C   UNL     1       2.695   2.589  20.689  0.00  0.00    +0.000 C 
ATOM     10  C   UNL     1       2.164   3.712  21.585  0.00  0.00    +0.000 C 
ATOM     11  C   UNL     1       1.706   4.895  20.734  0.00  0.00    +0.000 C 
ENDBRANCH   1   3
BRANCH   1  12
ATOM     12  N   UNL     1       5.580   4.931  16.171  0.00  0.00    +0.000 NA
ATOM     13  H   UNL     1       4.601   5.152  15.970  0.00  0.00    +0.000 HD
BRANCH  12  14
ATOM     14  C   UNL     1       5.907   3.780  15.318  0.00  0.00    +0.000 C 
BRANCH  14  20
ATOM     15  C   UNL     1       5.319   3.125  12.123  0.00  0.00    +0.000 C 
ATOM     16  C   UNL     1       6.370   3.982  12.722  0.00  0.00    +0.000 A 
ATOM     17  C   UNL     1       7.359   4.736  12.029  0.00  0.00    +0.000 A 
ATOM     18  C   UNL     1       8.101   5.383  12.990  0.00  0.00    +0.000 A 
ATOM     19  O   UNL     1       7.647   5.075  14.228  0.00  0.00    +0.000 OA
ATOM     20  C   UNL     1       6.590   4.227  14.070  0.00  0.00    +0.000 A 
ENDBRANCH  14  20
ENDBRANCH  12  14
ENDBRANCH   1  12
TORSDOF 4
ENDMDL
MODEL 5
REMARK VINA RESULT:      -6.9      1.276      2.034
REMARK  Name = 
REMARK  6 active torsions:
REMARK  status: ('A' for Active; 'I' for Inactive)
REMARK    1  A    between atoms: C_1  and  C_2
REMARK    2  A    between atoms: C_6  and  C_7
REMARK    3  A    between atoms: C_7  and  N_8
REMARK    4  A    between atoms: N_8  and  C_9
REMARK    5  A    between atoms: C_9  and  C_10
REMARK    6  A    between atoms: C_9  and  C_11
REMARK                            x       y       z     vdW  Elec       q    Type
REMARK                         _______ _______ _______ _____ _____    ______ ____
ROOT
ATOM      1  C   UNL     1       5.302   4.469  17.380  0.00  0.00    +0.000 C 
ATOM      2  C   UNL     1       4.679   5.807  16.958  0.00  0.00    +0.000 C 
ENDROOT
BRANCH   1   3
ATOM      3  C   UNL     1       4.229   3.600  17.992  0.00  0.00    +0.000 A 
ATOM      4  N   UNL     1       4.018   2.342  17.640  0.00  0.00    +0.000 NA
ATOM      5  N   UNL     1       2.997   1.831  18.398  0.00  0.00    +0.000 NA
ATOM      6  C   UNL     1       2.585   2.782  19.203  0.00  0.00    +0.000 A 
ATOM      7  N   UNL     1       3.343   3.909  18.997  0.00  0.00    +0.000 N 
ATOM      8  C   UNL     1       3.106   5.166  19.674  0.00  0.00    +0.000 C 
ATOM      9  C   UNL     1       2.146   5.044  20.865  0.00  0.00    +0.000 C 
ATOM     10  C   UNL     1       0.977   4.105  20.555  0.00  0.00    +0.000 C 
ATOM     11  C   UNL     1       1.496   2.711  20.209  0.00  0.00    +0.000 C 
ENDBRANCH   1   3
BRANCH   1  12
ATOM     12  N   UNL     1       6.040   3.797  16.293  0.00  0.00    +0.000 NA
ATOM     13  H   UNL     1       6.912   4.312  16.154  0.00  0.00    +0.000 HD
BRANCH  12  14
ATOM     14  C   UNL     1       5.332   3.868  15.007  0.00  0.00    +0.000 C 
BRANCH  14  20
ATOM     15  C   UNL     1       5.558   2.793  11.881  0.00  0.00    +0.000 C 
ATOM     16  C   UNL     1       6.398   3.788  12.588  0.00  0.00    +0.000 A 
ATOM     17  C   UNL     1       7.493   4.523  12.050  0.00  0.00    +0.000 A 
ATOM     18  C   UNL     1       7.955   5.332  13.062  0.00  0.00    +0.000 A 
ATOM     19  O   UNL     1       7.229   5.143  14.190  0.00  0.00    +0.000 OA
ATOM     20  C   UNL     1       6.277   4.209  13.905  0.00  0.00    +0.000 A 
ENDBRANCH  14  20
ENDBRANCH  12  14
ENDBRANCH   1  12
TORSDOF 4
ENDMDL
MODEL 6
REMARK VINA RESULT:      -6.9      1.271      1.568
REMARK  Name = 
REMARK  6 active torsions:
REMARK  status: ('A' for Active; 'I' for Inactive)
REMARK    1  A    between atoms: C_1  and  C_2
REMARK    2  A    between atoms: C_6  and  C_7
REMARK    3  A    between atoms: C_7  and  N_8
REMARK    4  A    between atoms: N_8  and  C_9
REMARK    5  A    between atoms: C_9  and  C_10
REMARK    6  A    between atoms: C_9  and  C_11
REMARK                            x       y       z     vdW  Elec       q    Type
REMARK                         _______ _______ _______ _____ _____    ______ ____
ROOT
ATOM      1  C   UNL     1       5.377   3.821  17.672  0.00  0.00    +0.000 C 
ATOM      2  C   UNL     1       5.770   5.180  18.270  0.00  0.00    +0.000 C 
ENDROOT
BRANCH   1   3
ATOM      3  C   UNL     1       3.894   3.613  17.861  0.00  0.00    +0.000 A 
ATOM      4  N   UNL     1       3.018   3.661  16.871  0.00  0.00    +0.000 NA
ATOM      5  N   UNL     1       1.767   3.405  17.368  0.00  0.00    +0.000 NA
ATOM      6  C   UNL     1       1.885   3.210  18.661  0.00  0.00    +0.000 A 
ATOM      7  N   UNL     1       3.209   3.313  19.014  0.00  0.00    +0.000 N 
ATOM      8  C   UNL     1       3.681   3.220  20.379  0.00  0.00    +0.000 C 
ATOM      9  C   UNL     1       2.623   2.685  21.354  0.00  0.00    +0.000 C 
ATOM     10  C   UNL     1       1.236   3.263  21.057  0.00  0.00    +0.000 C 
ATOM     11  C   UNL     1       0.808   2.905  19.635  0.00  0.00    +0.000 C 
ENDBRANCH   1   3
BRANCH   1  12
ATOM     12  N   UNL     1       5.813   3.649  16.273  0.00  0.00    +0.000 NA
ATOM     13  H   UNL     1       6.812   3.430  16.290  0.00  0.00    +0.000 HD
BRANCH  12  14
ATOM     14  C   UNL     1       5.695   4.888  15.492  0.00  0.00    +0.000 C 
BRANCH  14  20
ATOM     15  C   UNL     1       5.243   3.257  12.643  0.00  0.00    +0.000 C 
ATOM     16  C   UNL     1       6.360   4.146  13.042  0.00  0.00    +0.000 A 
ATOM     17  C   UNL     1       7.490   4.509  12.255  0.00  0.00    +0.000 A 
ATOM     18  C   UNL     1       8.247   5.359  13.028  0.00  0.00    +0.000 A 
ATOM     19  O   UNL     1       7.670   5.540  14.240  0.00  0.00    +0.000 OA
ATOM     20  C   UNL     1       6.518   4.808  14.251  0.00  0.00    +0.000 A 
ENDBRANCH  14  20
ENDBRANCH  12  14
ENDBRANCH   1  12
TORSDOF 4
ENDMDL
MODEL 7
REMARK VINA RESULT:      -6.8      2.683      6.437
REMARK  Name = 
REMARK  6 active torsions:
REMARK  status: ('A' for Active; 'I' for Inactive)
REMARK    1  A    between atoms: C_1  and  C_2
REMARK    2  A    between atoms: C_6  and  C_7
REMARK    3  A    between atoms: C_7  and  N_8
REMARK    4  A    between atoms: N_8  and  C_9
REMARK    5  A    between atoms: C_9  and  C_10
REMARK    6  A    between atoms: C_9  and  C_11
REMARK                            x       y       z     vdW  Elec       q    Type
REMARK                         _______ _______ _______ _____ _____    ______ ____
ROOT
ATOM      1  C   UNL     1       3.209   6.099  18.842  0.00  0.00    +0.000 C 
ATOM      2  C   UNL     1       3.033   7.436  18.108  0.00  0.00    +0.000 C 
ENDROOT
BRANCH   1   3
ATOM      3  C   UNL     1       4.629   5.621  18.656  0.00  0.00    +0.000 A 
ATOM      4  N   UNL     1       5.486   5.471  19.653  0.00  0.00    +0.000 NA
ATOM      5  N   UNL     1       6.672   5.000  19.154  0.00  0.00    +0.000 NA
ATOM      6  C   UNL     1       6.536   4.871  17.855  0.00  0.00    +0.000 A 
ATOM      7  N   UNL     1       5.260   5.233  17.498  0.00  0.00    +0.000 N 
ATOM      8  C   UNL     1       4.795   5.274  16.127  0.00  0.00    +0.000 C 
ATOM      9  C   UNL     1       5.746   4.581  15.141  0.00  0.00    +0.000 C 
ATOM     10  C   UNL     1       7.213   4.877  15.466  0.00  0.00    +0.000 C 
ATOM     11  C   UNL     1       7.548   4.400  16.878  0.00  0.00    +0.000 C 
ENDBRANCH   1   3
BRANCH   1  12
ATOM     12  N   UNL     1       2.796   6.149  20.258  0.00  0.00    +0.000 NA
ATOM     13  H   UNL     1       3.469   5.593  20.791  0.00  0.00    +0.000 HD
BRANCH  12  14
ATOM     14  C   UNL     1       1.491   5.512  20.484  0.00  0.00    +0.000 C 
BRANCH  14  20
ATOM     15  C   UNL     1       2.300   2.626  21.897  0.00  0.00    +0.000 C 
ATOM     16  C   UNL     1       1.813   2.887  20.522  0.00  0.00    +0.000 A 
ATOM     17  C   UNL     1       1.565   1.925  19.502  0.00  0.00    +0.000 A 
ATOM     18  C   UNL     1       1.112   2.623  18.408  0.00  0.00    +0.000 A 
ATOM     19  O   UNL     1       1.070   3.950  18.675  0.00  0.00    +0.000 OA
ATOM     20  C   UNL     1       1.490   4.116  19.962  0.00  0.00    +0.000 A 
ENDBRANCH  14  20
ENDBRANCH  12  14
ENDBRANCH   1  12
TORSDOF 4
ENDMDL
MODEL 8
REMARK VINA RESULT:      -6.8      1.364      1.935
REMARK  Name = 
REMARK  6 active torsions:
REMARK  status: ('A' for Active; 'I' for Inactive)
REMARK    1  A    between atoms: C_1  and  C_2
REMARK    2  A    between atoms: C_6  and  C_7
REMARK    3  A    between atoms: C_7  and  N_8
REMARK    4  A    between atoms: N_8  and  C_9
REMARK    5  A    between atoms: C_9  and  C_10
REMARK    6  A    between atoms: C_9  and  C_11
REMARK                            x       y       z     vdW  Elec       q    Type
REMARK                         _______ _______ _______ _____ _____    ______ ____
ROOT
ATOM      1  C   UNL     1       4.604   5.427  17.165  0.00  0.00    +0.000 C 
ATOM      2  C   UNL     1       4.091   6.816  17.570  0.00  0.00    +0.000 C 
ENDROOT
BRANCH   1   3
ATOM      3  C   UNL     1       3.571   4.393  17.542  0.00  0.00    +0.000 A 
ATOM      4  N   UNL     1       3.102   3.488  16.699  0.00  0.00    +0.000 NA
ATOM      5  N   UNL     1       2.203   2.689  17.356  0.00  0.00    +0.000 NA
ATOM      6  C   UNL     1       2.122   3.115  18.594  0.00  0.00    +0.000 A 
ATOM      7  N   UNL     1       2.979   4.176  18.763  0.00  0.00    +0.000 N 
ATOM      8  C   UNL     1       3.085   4.928  19.996  0.00  0.00    +0.000 C 
ATOM      9  C   UNL     1       2.397   4.246  21.187  0.00  0.00    +0.000 C 
ATOM     10  C   UNL     1       1.061   3.616  20.782  0.00  0.00    +0.000 C 
ATOM     11  C   UNL     1       1.278   2.573  19.688  0.00  0.00    +0.000 C 
ENDBRANCH   1   3
BRANCH   1  12
ATOM     12  N   UNL     1       5.017   5.344  15.751  0.00  0.00    +0.000 NA
ATOM     13  H   UNL     1       4.222   4.978  15.223  0.00  0.00    +0.000 HD
BRANCH  12  14
ATOM     14  C   UNL     1       6.108   4.382  15.540  0.00  0.00    +0.000 C 
BRANCH  14  20
ATOM     15  C   UNL     1       5.445   3.206  12.514  0.00  0.00    +0.000 C 
ATOM     16  C   UNL     1       6.512   4.144  12.938  0.00  0.00    +0.000 A 
ATOM     17  C   UNL     1       7.486   4.767  12.106  0.00  0.00    +0.000 A 
ATOM     18  C   UNL     1       8.251   5.560  12.928  0.00  0.00    +0.000 A 
ATOM     19  O   UNL     1       7.825   5.466  14.211  0.00  0.00    +0.000 OA
ATOM     20  C   UNL     1       6.763   4.610  14.221  0.00  0.00    +0.000 A 
ENDBRANCH  14  20
ENDBRANCH  12  14
ENDBRANCH   1  12
TORSDOF 4
ENDMDL
MODEL 9
REMARK VINA RESULT:      -6.8      2.040      3.370
REMARK  Name = 
REMARK  6 active torsions:
REMARK  status: ('A' for Active; 'I' for Inactive)
REMARK    1  A    between atoms: C_1  and  C_2
REMARK    2  A    between atoms: C_6  and  C_7
REMARK    3  A    between atoms: C_7  and  N_8
REMARK    4  A    between atoms: N_8  and  C_9
REMARK    5  A    between atoms: C_9  and  C_10
REMARK    6  A    between atoms: C_9  and  C_11
REMARK                            x       y       z     vdW  Elec       q    Type
REMARK                         _______ _______ _______ _____ _____    ______ ____
ROOT
ATOM      1  C   UNL     1       3.262   6.771  18.422  0.00  0.00    +0.000 C 
ATOM      2  C   UNL     1       2.206   7.817  18.808  0.00  0.00    +0.000 C 
ENDROOT
BRANCH   1   3
ATOM      3  C   UNL     1       2.618   5.405  18.412  0.00  0.00    +0.000 A 
ATOM      4  N   UNL     1       2.228   4.790  17.307  0.00  0.00    +0.000 NA
ATOM      5  N   UNL     1       1.711   3.565  17.638  0.00  0.00    +0.000 NA
ATOM      6  C   UNL     1       1.781   3.441  18.943  0.00  0.00    +0.000 A 
ATOM      7  N   UNL     1       2.362   4.568  19.472  0.00  0.00    +0.000 N 
ATOM      8  C   UNL     1       2.528   4.789  20.893  0.00  0.00    +0.000 C 
ATOM      9  C   UNL     1       2.291   3.529  21.737  0.00  0.00    +0.000 C 
ATOM     10  C   UNL     1       1.100   2.717  21.218  0.00  0.00    +0.000 C 
ATOM     11  C   UNL     1       1.341   2.291  19.771  0.00  0.00    +0.000 C 
ENDBRANCH   1   3
BRANCH   1  12
ATOM     12  N   UNL     1       3.968   7.087  17.166  0.00  0.00    +0.000 NA
ATOM     13  H   UNL     1       3.726   6.360  16.489  0.00  0.00    +0.000 HD
BRANCH  12  14
ATOM     14  C   UNL     1       5.429   7.019  17.311  0.00  0.00    +0.000 C 
BRANCH  14  20
ATOM     15  C   UNL     1       7.661   4.624  17.827  0.00  0.00    +0.000 C 
ATOM     16  C   UNL     1       6.925   4.962  16.585  0.00  0.00    +0.000 A 
ATOM     17  C   UNL     1       7.011   4.297  15.329  0.00  0.00    +0.000 A 
ATOM     18  C   UNL     1       6.142   4.945  14.483  0.00  0.00    +0.000 A 
ATOM     19  O   UNL     1       5.531   5.970  15.124  0.00  0.00    +0.000 OA
ATOM     20  C   UNL     1       5.999   5.980  16.406  0.00  0.00    +0.000 A 
ENDBRANCH  14  20
ENDBRANCH  12  14
ENDBRANCH   1  12
TORSDOF 4
ENDMDL
