MODEL 1
REMARK VINA RESULT:     -10.2      0.000      0.000
REMARK  Name = 
REMARK  6 active torsions:
REMARK  status: ('A' for Active; 'I' for Inactive)
REMARK    1  A    between atoms: C_2  and  C_4
REMARK    2  A    between atoms: N_7  and  C_8
REMARK    3  A    between atoms: C_8  and  C_9
REMARK    4  A    between atoms: N_17  and  C_18
REMARK    5  A    between atoms: N_25  and  C_26
REMARK    6  A    between atoms: C_26  and  C_27
REMARK                            x       y       z     vdW  Elec       q    Type
REMARK                         _______ _______ _______ _____ _____    ______ ____
ROOT
ATOM      1  C   UNL     1       5.036   4.177  16.438  0.00  0.00    +0.000 A 
ATOM      2  C   UNL     1       6.201   3.579  15.859  0.00  0.00    +0.000 A 
ATOM      3  C   UNL     1       7.228   4.487  15.947  0.00  0.00    +0.000 A 
ATOM      4  N   UNL     1       6.739   5.616  16.536  0.00  0.00    +0.000 N 
ATOM      5  N   UNL     1       7.419   6.761  16.662  0.00  0.00    +0.000 NA
ATOM      6  C   UNL     1       6.735   7.705  17.236  0.00  0.00    +0.000 A 
ATOM      7  N   UNL     1       5.472   7.604  17.746  0.00  0.00    +0.000 NA
ATOM      8  C   UNL     1       4.803   6.488  17.643  0.00  0.00    +0.000 A 
ATOM      9  N   UNL     1       3.574   6.359  18.256  0.00  0.00    +0.000 N 
ATOM     10  C   UNL     1       5.444   5.414  16.930  0.00  0.00    +0.000 A 
ATOM     11  H   UNL     1       3.204   5.430  18.394  0.00  0.00    +0.000 HD
ENDROOT
BRANCH   9  12
ATOM     12  C   UNL     1       2.689   7.410  18.567  0.00  0.00    +0.000 A 
ATOM     13  C   UNL     1       2.397   8.418  17.638  0.00  0.00    +0.000 A 
ATOM     14  C   UNL     1       1.563   9.503  17.941  0.00  0.00    +0.000 A 
ATOM     15  C   UNL     1       1.052   9.575  19.241  0.00  0.00    +0.000 A 
ATOM     16  C   UNL     1       1.325   8.600  20.194  0.00  0.00    +0.000 A 
ATOM     17  C   UNL     1       0.659   9.042  21.358  0.00  0.00    +0.000 A 
ATOM     18  N   UNL     1       0.019  10.200  21.184  0.00  0.00    +0.000 NA
ATOM     19  N   UNL     1       0.244  10.496  19.882  0.00  0.00    +0.000 N 
ATOM     20  C   UNL     1       2.137   7.498  19.854  0.00  0.00    +0.000 A 
BRANCH  19  21
ATOM     21  C   UNL     1      -0.336  11.716  19.323  0.00  0.00    +0.000 C 
BRANCH  21  22
ATOM     22  C   UNL     1      -1.689  11.455  18.704  0.00  0.00    +0.000 A 
ATOM     23  C   UNL     1      -2.844  12.077  19.213  0.00  0.00    +0.000 A 
ATOM     24  C   UNL     1      -4.108  11.763  18.711  0.00  0.00    +0.000 A 
ATOM     25  C   UNL     1      -4.234  10.842  17.676  0.00  0.00    +0.000 A 
ATOM     26  C   UNL     1      -3.091  10.268  17.130  0.00  0.00    +0.000 A 
ATOM     27  F   UNL     1      -3.209   9.399  16.119  0.00  0.00    +0.000 F 
ATOM     28  C   UNL     1      -1.825  10.572  17.625  0.00  0.00    +0.000 A 
ENDBRANCH  21  22
ENDBRANCH  19  21
ENDBRANCH   9  12
BRANCH   1  29
ATOM     29  C   UNL     1       3.678   3.533  16.422  0.00  0.00    +0.000 C 
BRANCH  29  33
ATOM     30  C   UNL     1       2.358   2.358  20.377  0.00  0.00    +0.000 C 
ATOM     31  C   UNL     1       3.852   2.407  20.059  0.00  0.00    +0.000 C 
ATOM     32  C   UNL     1       4.141   3.228  18.800  0.00  0.00    +0.000 C 
ATOM     33  N   UNL     1       3.437   2.696  17.619  0.00  0.00    +0.000 NA
ATOM     34  C   UNL     1       1.979   2.652  17.869  0.00  0.00    +0.000 C 
ATOM     35  C   UNL     1       1.597   1.878  19.136  0.00  0.00    +0.000 C 
BRANCH  30  37
ATOM     36  N   UNL     1       0.566   4.030  20.488  0.00  0.00    +0.000 N 
ATOM     37  C   UNL     1       1.821   3.690  20.901  0.00  0.00    +0.000 C 
ATOM     38  O   UNL     1       2.460   4.461  21.609  0.00  0.00    +0.000 OA
ATOM     39  H   UNL     1       0.192   4.910  20.820  0.00  0.00    +0.000 HD
ATOM     40  H   UNL     1      -0.057   3.399  20.008  0.00  0.00    +0.000 HD
ENDBRANCH  30  37
ENDBRANCH  29  33
ENDBRANCH   1  29
TORSDOF 6
ENDMDL
MODEL 2
REMARK VINA RESULT:     -10.1      0.786      1.114
REMARK  Name = 
REMARK  6 active torsions:
REMARK  status: ('A' for Active; 'I' for Inactive)
REMARK    1  A    between atoms: C_2  and  C_4
REMARK    2  A    between atoms: N_7  and  C_8
REMARK    3  A    between atoms: C_8  and  C_9
REMARK    4  A    between atoms: N_17  and  C_18
REMARK    5  A    between atoms: N_25  and  C_26
REMARK    6  A    between atoms: C_26  and  C_27
REMARK                            x       y       z     vdW  Elec       q    Type
REMARK                         _______ _______ _______ _____ _____    ______ ____
ROOT
ATOM      1  C   UNL     1       5.150   4.192  16.452  0.00  0.00    +0.000 A 
ATOM      2  C   UNL     1       6.330   3.618  15.877  0.00  0.00    +0.000 A 
ATOM      3  C   UNL     1       7.336   4.549  15.965  0.00  0.00    +0.000 A 
ATOM      4  N   UNL     1       6.821   5.668  16.551  0.00  0.00    +0.000 N 
ATOM      5  N   UNL     1       7.475   6.828  16.676  0.00  0.00    +0.000 NA
ATOM      6  C   UNL     1       6.769   7.758  17.245  0.00  0.00    +0.000 A 
ATOM      7  N   UNL     1       5.508   7.630  17.753  0.00  0.00    +0.000 NA
ATOM      8  C   UNL     1       4.864   6.499  17.651  0.00  0.00    +0.000 A 
ATOM      9  N   UNL     1       3.636   6.345  18.262  0.00  0.00    +0.000 N 
ATOM     10  C   UNL     1       5.530   5.438  16.942  0.00  0.00    +0.000 A 
ATOM     11  H   UNL     1       3.286   5.408  18.400  0.00  0.00    +0.000 HD
ENDROOT
BRANCH   9  12
ATOM     12  C   UNL     1       2.728   7.376  18.567  0.00  0.00    +0.000 A 
ATOM     13  C   UNL     1       2.376   8.347  17.619  0.00  0.00    +0.000 A 
ATOM     14  C   UNL     1       1.517   9.413  17.914  0.00  0.00    +0.000 A 
ATOM     15  C   UNL     1       1.042   9.509  19.226  0.00  0.00    +0.000 A 
ATOM     16  C   UNL     1       1.374   8.573  20.199  0.00  0.00    +0.000 A 
ATOM     17  C   UNL     1       0.730   9.029  21.369  0.00  0.00    +0.000 A 
ATOM     18  N   UNL     1       0.047  10.160  21.181  0.00  0.00    +0.000 NA
ATOM     19  N   UNL     1       0.225  10.423  19.865  0.00  0.00    +0.000 N 
ATOM     20  C   UNL     1       2.211   7.486  19.868  0.00  0.00    +0.000 A 
BRANCH  19  21
ATOM     21  C   UNL     1      -0.410  11.607  19.288  0.00  0.00    +0.000 C 
BRANCH  21  22
ATOM     22  C   UNL     1      -1.793  11.296  18.764  0.00  0.00    +0.000 A 
ATOM     23  C   UNL     1      -1.984  10.303  17.786  0.00  0.00    +0.000 A 
ATOM     24  C   UNL     1      -3.244  10.081  17.226  0.00  0.00    +0.000 A 
ATOM     25  C   UNL     1      -4.335  10.832  17.654  0.00  0.00    +0.000 A 
ATOM     26  C   UNL     1      -4.162  11.774  18.660  0.00  0.00    +0.000 A 
ATOM     27  F   UNL     1      -5.215  12.482  19.088  0.00  0.00    +0.000 F 
ATOM     28  C   UNL     1      -2.910  12.006  19.225  0.00  0.00    +0.000 A 
ENDBRANCH  21  22
ENDBRANCH  19  21
ENDBRANCH   9  12
BRANCH   1  29
ATOM     29  C   UNL     1       3.807   3.518  16.434  0.00  0.00    +0.000 C 
BRANCH  29  33
ATOM     30  C   UNL     1       2.454   2.359  20.382  0.00  0.00    +0.000 C 
ATOM     31  C   UNL     1       3.952   2.460  20.092  0.00  0.00    +0.000 C 
ATOM     32  C   UNL     1       4.234   3.270  18.825  0.00  0.00    +0.000 C 
ATOM     33  N   UNL     1       3.574   2.692  17.640  0.00  0.00    +0.000 NA
ATOM     34  C   UNL     1       2.115   2.596  17.863  0.00  0.00    +0.000 C 
ATOM     35  C   UNL     1       1.738   1.829  19.136  0.00  0.00    +0.000 C 
BRANCH  30  37
ATOM     36  N   UNL     1       0.592   3.953  20.445  0.00  0.00    +0.000 N 
ATOM     37  C   UNL     1       1.857   3.677  20.874  0.00  0.00    +0.000 C 
ATOM     38  O   UNL     1       2.457   4.491  21.567  0.00  0.00    +0.000 OA
ATOM     39  H   UNL     1       0.177   4.823  20.755  0.00  0.00    +0.000 HD
ATOM     40  H   UNL     1      -0.001   3.285  19.976  0.00  0.00    +0.000 HD
ENDBRANCH  30  37
ENDBRANCH  29  33
ENDBRANCH   1  29
TORSDOF 6
ENDMDL
MODEL 3
REMARK VINA RESULT:      -9.4      3.641      9.815
REMARK  Name = 
REMARK  6 active torsions:
REMARK  status: ('A' for Active; 'I' for Inactive)
REMARK    1  A    between atoms: C_2  and  C_4
REMARK    2  A    between atoms: N_7  and  C_8
REMARK    3  A    between atoms: C_8  and  C_9
REMARK    4  A    between atoms: N_17  and  C_18
REMARK    5  A    between atoms: N_25  and  C_26
REMARK    6  A    between atoms: C_26  and  C_27
REMARK                            x       y       z     vdW  Elec       q    Type
REMARK                         _______ _______ _______ _____ _____    ______ ____
ROOT
ATOM      1  C   UNL     1      -1.633  13.487  20.290  0.00  0.00    +0.000 A 
ATOM      2  C   UNL     1      -1.867  14.881  20.517  0.00  0.00    +0.000 A 
ATOM      3  C   UNL     1      -0.686  15.548  20.295  0.00  0.00    +0.000 A 
ATOM      4  N   UNL     1       0.260  14.624  19.960  0.00  0.00    +0.000 N 
ATOM      5  N   UNL     1       1.561  14.891  19.806  0.00  0.00    +0.000 NA
ATOM      6  C   UNL     1       2.270  13.844  19.511  0.00  0.00    +0.000 A 
ATOM      7  N   UNL     1       1.807  12.578  19.297  0.00  0.00    +0.000 NA
ATOM      8  C   UNL     1       0.537  12.305  19.430  0.00  0.00    +0.000 A 
ATOM      9  N   UNL     1       0.061  11.051  19.105  0.00  0.00    +0.000 N 
ATOM     10  C   UNL     1      -0.314  13.386  19.855  0.00  0.00    +0.000 A 
ATOM     11  H   UNL     1      -0.932  10.942  18.956  0.00  0.00    +0.000 HD
ENDROOT
BRANCH   9  12
ATOM     12  C   UNL     1       0.802   9.854  19.122  0.00  0.00    +0.000 A 
ATOM     13  C   UNL     1       0.891   9.066  20.278  0.00  0.00    +0.000 A 
ATOM     14  C   UNL     1       1.666   7.900  20.336  0.00  0.00    +0.000 A 
ATOM     15  C   UNL     1       2.399   7.559  19.195  0.00  0.00    +0.000 A 
ATOM     16  C   UNL     1       2.345   8.319  18.032  0.00  0.00    +0.000 A 
ATOM     17  C   UNL     1       3.226   7.671  17.140  0.00  0.00    +0.000 A 
ATOM     18  N   UNL     1       3.807   6.593  17.672  0.00  0.00    +0.000 NA
ATOM     19  N   UNL     1       3.271   6.524  18.914  0.00  0.00    +0.000 N 
ATOM     20  C   UNL     1       1.529   9.469  17.985  0.00  0.00    +0.000 A 
BRANCH  19  21
ATOM     21  C   UNL     1       3.672   5.431  19.798  0.00  0.00    +0.000 C 
BRANCH  21  22
ATOM     22  C   UNL     1       2.989   4.136  19.426  0.00  0.00    +0.000 A 
ATOM     23  C   UNL     1       1.596   3.992  19.565  0.00  0.00    +0.000 A 
ATOM     24  C   UNL     1       0.974   2.767  19.319  0.00  0.00    +0.000 A 
ATOM     25  C   UNL     1       1.731   1.675  18.906  0.00  0.00    +0.000 A 
ATOM     26  C   UNL     1       3.098   1.828  18.711  0.00  0.00    +0.000 A 
ATOM     27  F   UNL     1       3.824   0.783  18.291  0.00  0.00    +0.000 F 
ATOM     28  C   UNL     1       3.731   3.044  18.955  0.00  0.00    +0.000 A 
ENDBRANCH  21  22
ENDBRANCH  19  21
ENDBRANCH   9  12
BRANCH   1  29
ATOM     29  C   UNL     1      -2.660  12.420  20.549  0.00  0.00    +0.000 C 
BRANCH  29  33
ATOM     30  C   UNL     1      -6.888  12.185  19.634  0.00  0.00    +0.000 C 
ATOM     31  C   UNL     1      -5.877  12.381  18.505  0.00  0.00    +0.000 C 
ATOM     32  C   UNL     1      -4.456  12.020  18.942  0.00  0.00    +0.000 C 
ATOM     33  N   UNL     1      -4.013  12.821  20.099  0.00  0.00    +0.000 NA
ATOM     34  C   UNL     1      -4.949  12.645  21.231  0.00  0.00    +0.000 C 
ATOM     35  C   UNL     1      -6.409  12.948  20.873  0.00  0.00    +0.000 C 
BRANCH  30  37
ATOM     36  N   UNL     1      -7.608  10.434  21.193  0.00  0.00    +0.000 N 
ATOM     37  C   UNL     1      -7.159  10.711  19.935  0.00  0.00    +0.000 C 
ATOM     38  O   UNL     1      -6.953   9.795  19.146  0.00  0.00    +0.000 OA
ATOM     39  H   UNL     1      -7.790   9.464  21.417  0.00  0.00    +0.000 HD
ATOM     40  H   UNL     1      -7.910  11.138  21.850  0.00  0.00    +0.000 HD
ENDBRANCH  30  37
ENDBRANCH  29  33
ENDBRANCH   1  29
TORSDOF 6
ENDMDL
MODEL 4
REMARK VINA RESULT:      -9.4      2.124      2.991
REMARK  Name = 
REMARK  6 active torsions:
REMARK  status: ('A' for Active; 'I' for Inactive)
REMARK    1  A    between atoms: C_2  and  C_4
REMARK    2  A    between atoms: N_7  and  C_8
REMARK    3  A    between atoms: C_8  and  C_9
REMARK    4  A    between atoms: N_17  and  C_18
REMARK    5  A    between atoms: N_25  and  C_26
REMARK    6  A    between atoms: C_26  and  C_27
REMARK                            x       y       z     vdW  Elec       q    Type
REMARK                         _______ _______ _______ _____ _____    ______ ____
ROOT
ATOM      1  C   UNL     1       4.976   4.147  16.406  0.00  0.00    +0.000 A 
ATOM      2  C   UNL     1       6.122   3.542  15.795  0.00  0.00    +0.000 A 
ATOM      3  C   UNL     1       7.161   4.438  15.872  0.00  0.00    +0.000 A 
ATOM      4  N   UNL     1       6.698   5.565  16.484  0.00  0.00    +0.000 N 
ATOM      5  N   UNL     1       7.393   6.701  16.610  0.00  0.00    +0.000 NA
ATOM      6  C   UNL     1       6.732   7.645  17.209  0.00  0.00    +0.000 A 
ATOM      7  N   UNL     1       5.480   7.552  17.745  0.00  0.00    +0.000 NA
ATOM      8  C   UNL     1       4.796   6.445  17.642  0.00  0.00    +0.000 A 
ATOM      9  N   UNL     1       3.578   6.323  18.280  0.00  0.00    +0.000 N 
ATOM     10  C   UNL     1       5.409   5.372  16.903  0.00  0.00    +0.000 A 
ATOM     11  H   UNL     1       3.200   5.396  18.414  0.00  0.00    +0.000 HD
ENDROOT
BRANCH   9  12
ATOM     12  C   UNL     1       2.713   7.380  18.622  0.00  0.00    +0.000 A 
ATOM     13  C   UNL     1       2.456   8.432  17.732  0.00  0.00    +0.000 A 
ATOM     14  C   UNL     1       1.642   9.522  18.068  0.00  0.00    +0.000 A 
ATOM     15  C   UNL     1       1.113   9.552  19.363  0.00  0.00    +0.000 A 
ATOM     16  C   UNL     1       1.351   8.533  20.278  0.00  0.00    +0.000 A 
ATOM     17  C   UNL     1       0.679   8.941  21.450  0.00  0.00    +0.000 A 
ATOM     18  N   UNL     1       0.066  10.119  21.316  0.00  0.00    +0.000 NA
ATOM     19  N   UNL     1       0.318  10.463  20.031  0.00  0.00    +0.000 N 
ATOM     20  C   UNL     1       2.144   7.427  19.905  0.00  0.00    +0.000 A 
BRANCH  19  21
ATOM     21  C   UNL     1      -0.227  11.718  19.515  0.00  0.00    +0.000 C 
BRANCH  21  22
ATOM     22  C   UNL     1       0.792  12.832  19.571  0.00  0.00    +0.000 A 
ATOM     23  C   UNL     1       1.489  13.227  18.414  0.00  0.00    +0.000 A 
ATOM     24  C   UNL     1       2.502  14.185  18.480  0.00  0.00    +0.000 A 
ATOM     25  C   UNL     1       2.816  14.780  19.698  0.00  0.00    +0.000 A 
ATOM     26  C   UNL     1       2.092  14.435  20.833  0.00  0.00    +0.000 A 
ATOM     27  F   UNL     1       2.378  15.023  22.001  0.00  0.00    +0.000 F 
ATOM     28  C   UNL     1       1.080  13.479  20.780  0.00  0.00    +0.000 A 
ENDBRANCH  21  22
ENDBRANCH  19  21
ENDBRANCH   9  12
BRANCH   1  29
ATOM     29  C   UNL     1       3.610   3.519  16.410  0.00  0.00    +0.000 C 
BRANCH  29  33
ATOM     30  C   UNL     1       2.331   2.350  20.380  0.00  0.00    +0.000 C 
ATOM     31  C   UNL     1       3.821   2.391  20.045  0.00  0.00    +0.000 C 
ATOM     32  C   UNL     1       4.099   3.211  18.783  0.00  0.00    +0.000 C 
ATOM     33  N   UNL     1       3.379   2.682  17.610  0.00  0.00    +0.000 NA
ATOM     34  C   UNL     1       1.924   2.645  17.877  0.00  0.00    +0.000 C 
ATOM     35  C   UNL     1       1.553   1.874  19.149  0.00  0.00    +0.000 C 
BRANCH  30  37
ATOM     36  N   UNL     1       0.562   4.046  20.487  0.00  0.00    +0.000 N 
ATOM     37  C   UNL     1       1.807   3.684  20.911  0.00  0.00    +0.000 C 
ATOM     38  O   UNL     1       2.448   4.440  21.633  0.00  0.00    +0.000 OA
ATOM     39  H   UNL     1       0.196   4.928  20.823  0.00  0.00    +0.000 HD
ATOM     40  H   UNL     1      -0.065   3.428  19.995  0.00  0.00    +0.000 HD
ENDBRANCH  30  37
ENDBRANCH  29  33
ENDBRANCH   1  29
TORSDOF 6
ENDMDL
MODEL 5
REMARK VINA RESULT:      -9.4      1.908      2.663
REMARK  Name = 
REMARK  6 active torsions:
REMARK  status: ('A' for Active; 'I' for Inactive)
REMARK    1  A    between atoms: C_2  and  C_4
REMARK    2  A    between atoms: N_7  and  C_8
REMARK    3  A    between atoms: C_8  and  C_9
REMARK    4  A    between atoms: N_17  and  C_18
REMARK    5  A    between atoms: N_25  and  C_26
REMARK    6  A    between atoms: C_26  and  C_27
REMARK                            x       y       z     vdW  Elec       q    Type
REMARK                         _______ _______ _______ _____ _____    ______ ____
ROOT
ATOM      1  C   UNL     1       5.021   4.145  16.462  0.00  0.00    +0.000 A 
ATOM      2  C   UNL     1       6.186   3.540  15.888  0.00  0.00    +0.000 A 
ATOM      3  C   UNL     1       7.213   4.450  15.962  0.00  0.00    +0.000 A 
ATOM      4  N   UNL     1       6.724   5.586  16.538  0.00  0.00    +0.000 N 
ATOM      5  N   UNL     1       7.403   6.733  16.648  0.00  0.00    +0.000 NA
ATOM      6  C   UNL     1       6.719   7.683  17.211  0.00  0.00    +0.000 A 
ATOM      7  N   UNL     1       5.458   7.588  17.725  0.00  0.00    +0.000 NA
ATOM      8  C   UNL     1       4.790   6.470  17.637  0.00  0.00    +0.000 A 
ATOM      9  N   UNL     1       3.561   6.348  18.255  0.00  0.00    +0.000 N 
ATOM     10  C   UNL     1       5.430   5.388  16.937  0.00  0.00    +0.000 A 
ATOM     11  H   UNL     1       3.193   5.421  18.404  0.00  0.00    +0.000 HD
ENDROOT
BRANCH   9  12
ATOM     12  C   UNL     1       2.677   7.402  18.553  0.00  0.00    +0.000 A 
ATOM     13  C   UNL     1       2.312   8.348  17.585  0.00  0.00    +0.000 A 
ATOM     14  C   UNL     1       1.477   9.436  17.871  0.00  0.00    +0.000 A 
ATOM     15  C   UNL     1       1.040   9.579  19.192  0.00  0.00    +0.000 A 
ATOM     16  C   UNL     1       1.387   8.669  20.184  0.00  0.00    +0.000 A 
ATOM     17  C   UNL     1       0.782   9.170  21.357  0.00  0.00    +0.000 A 
ATOM     18  N   UNL     1       0.111  10.305  21.152  0.00  0.00    +0.000 NA
ATOM     19  N   UNL     1       0.255  10.525  19.824  0.00  0.00    +0.000 N 
ATOM     20  C   UNL     1       2.199   7.560  19.864  0.00  0.00    +0.000 A 
BRANCH  19  21
ATOM     21  C   UNL     1      -0.380  11.699  19.228  0.00  0.00    +0.000 C 
BRANCH  21  22
ATOM     22  C   UNL     1       0.522  12.910  19.290  0.00  0.00    +0.000 A 
ATOM     23  C   UNL     1       0.127  14.066  19.988  0.00  0.00    +0.000 A 
ATOM     24  C   UNL     1       0.911  15.221  19.964  0.00  0.00    +0.000 A 
ATOM     25  C   UNL     1       2.113  15.229  19.263  0.00  0.00    +0.000 A 
ATOM     26  C   UNL     1       2.535  14.071  18.620  0.00  0.00    +0.000 A 
ATOM     27  F   UNL     1       3.702  14.071  17.964  0.00  0.00    +0.000 F 
ATOM     28  C   UNL     1       1.761  12.914  18.635  0.00  0.00    +0.000 A 
ENDBRANCH  21  22
ENDBRANCH  19  21
ENDBRANCH   9  12
BRANCH   1  29
ATOM     29  C   UNL     1       3.664   3.500  16.456  0.00  0.00    +0.000 C 
BRANCH  29  33
ATOM     30  C   UNL     1       2.342   2.409  20.434  0.00  0.00    +0.000 C 
ATOM     31  C   UNL     1       3.836   2.447  20.115  0.00  0.00    +0.000 C 
ATOM     32  C   UNL     1       4.126   3.241  18.840  0.00  0.00    +0.000 C 
ATOM     33  N   UNL     1       3.421   2.687  17.670  0.00  0.00    +0.000 NA
ATOM     34  C   UNL     1       1.963   2.651  17.921  0.00  0.00    +0.000 C 
ATOM     35  C   UNL     1       1.580   1.905  19.204  0.00  0.00    +0.000 C 
BRANCH  30  37
ATOM     36  N   UNL     1       0.551   4.083  20.518  0.00  0.00    +0.000 N 
ATOM     37  C   UNL     1       1.809   3.751  20.932  0.00  0.00    +0.000 C 
ATOM     38  O   UNL     1       2.451   4.539  21.618  0.00  0.00    +0.000 OA
ATOM     39  H   UNL     1       0.178   4.970  20.832  0.00  0.00    +0.000 HD
ATOM     40  H   UNL     1      -0.075   3.441  20.056  0.00  0.00    +0.000 HD
ENDBRANCH  30  37
ENDBRANCH  29  33
ENDBRANCH   1  29
TORSDOF 6
ENDMDL
MODEL 6
REMARK VINA RESULT:      -9.3      3.402      9.369
REMARK  Name = 
REMARK  6 active torsions:
REMARK  status: ('A' for Active; 'I' for Inactive)
REMARK    1  A    between atoms: C_2  and  C_4
REMARK    2  A    between atoms: N_7  and  C_8
REMARK    3  A    between atoms: C_8  and  C_9
REMARK    4  A    between atoms: N_17  and  C_18
REMARK    5  A    between atoms: N_25  and  C_26
REMARK    6  A    between atoms: C_26  and  C_27
REMARK                            x       y       z     vdW  Elec       q    Type
REMARK                         _______ _______ _______ _____ _____    ______ ____
ROOT
ATOM      1  C   UNL     1      -0.663  11.961  20.098  0.00  0.00    +0.000 A 
ATOM      2  C   UNL     1      -1.445  12.929  20.809  0.00  0.00    +0.000 A 
ATOM      3  C   UNL     1      -1.562  12.502  22.109  0.00  0.00    +0.000 A 
ATOM      4  N   UNL     1      -0.905  11.312  22.221  0.00  0.00    +0.000 N 
ATOM      5  N   UNL     1      -0.921  10.535  23.309  0.00  0.00    +0.000 NA
ATOM      6  C   UNL     1      -0.240   9.438  23.168  0.00  0.00    +0.000 A 
ATOM      7  N   UNL     1       0.500   9.070  22.081  0.00  0.00    +0.000 NA
ATOM      8  C   UNL     1       0.537   9.827  21.018  0.00  0.00    +0.000 A 
ATOM      9  N   UNL     1       1.373   9.504  19.968  0.00  0.00    +0.000 N 
ATOM     10  C   UNL     1      -0.271  11.018  21.044  0.00  0.00    +0.000 A 
ATOM     11  H   UNL     1       1.588  10.221  19.291  0.00  0.00    +0.000 HD
ENDROOT
BRANCH   9  12
ATOM     12  C   UNL     1       1.833   8.213  19.643  0.00  0.00    +0.000 A 
ATOM     13  C   UNL     1       2.290   7.903  18.354  0.00  0.00    +0.000 A 
ATOM     14  C   UNL     1       2.701   6.614  17.991  0.00  0.00    +0.000 A 
ATOM     15  C   UNL     1       2.601   5.611  18.962  0.00  0.00    +0.000 A 
ATOM     16  C   UNL     1       2.144   5.876  20.248  0.00  0.00    +0.000 A 
ATOM     17  C   UNL     1       2.167   4.625  20.901  0.00  0.00    +0.000 A 
ATOM     18  N   UNL     1       2.592   3.634  20.113  0.00  0.00    +0.000 NA
ATOM     19  N   UNL     1       2.878   4.257  18.945  0.00  0.00    +0.000 N 
ATOM     20  C   UNL     1       1.770   7.190  20.602  0.00  0.00    +0.000 A 
BRANCH  19  21
ATOM     21  C   UNL     1       3.397   3.467  17.830  0.00  0.00    +0.000 C 
BRANCH  21  22
ATOM     22  C   UNL     1       4.742   3.976  17.367  0.00  0.00    +0.000 A 
ATOM     23  C   UNL     1       5.047   4.052  15.995  0.00  0.00    +0.000 A 
ATOM     24  C   UNL     1       6.321   4.426  15.564  0.00  0.00    +0.000 A 
ATOM     25  C   UNL     1       7.300   4.754  16.497  0.00  0.00    +0.000 A 
ATOM     26  C   UNL     1       6.986   4.737  17.851  0.00  0.00    +0.000 A 
ATOM     27  F   UNL     1       7.921   5.075  18.748  0.00  0.00    +0.000 F 
ATOM     28  C   UNL     1       5.720   4.363  18.293  0.00  0.00    +0.000 A 
ENDBRANCH  21  22
ENDBRANCH  19  21
ENDBRANCH   9  12
BRANCH   1  29
ATOM     29  C   UNL     1      -0.417  12.020  18.617  0.00  0.00    +0.000 C 
BRANCH  29  33
ATOM     30  C   UNL     1      -3.957  10.257  16.850  0.00  0.00    +0.000 C 
ATOM     31  C   UNL     1      -3.218   9.519  17.966  0.00  0.00    +0.000 C 
ATOM     32  C   UNL     1      -2.282  10.448  18.741  0.00  0.00    +0.000 C 
ATOM     33  N   UNL     1      -1.278  11.079  17.864  0.00  0.00    +0.000 NA
ATOM     34  C   UNL     1      -1.946  11.829  16.778  0.00  0.00    +0.000 C 
ATOM     35  C   UNL     1      -2.936  10.983  15.968  0.00  0.00    +0.000 C 
BRANCH  30  37
ATOM     36  N   UNL     1      -5.103  12.424  16.778  0.00  0.00    +0.000 N 
ATOM     37  C   UNL     1      -5.036  11.201  17.379  0.00  0.00    +0.000 C 
ATOM     38  O   UNL     1      -5.783  10.941  18.316  0.00  0.00    +0.000 OA
ATOM     39  H   UNL     1      -5.808  13.068  17.115  0.00  0.00    +0.000 HD
ATOM     40  H   UNL     1      -4.607  12.662  15.932  0.00  0.00    +0.000 HD
ENDBRANCH  30  37
ENDBRANCH  29  33
ENDBRANCH   1  29
TORSDOF 6
ENDMDL
MODEL 7
REMARK VINA RESULT:      -9.3      2.307      4.638
REMARK  Name = 
REMARK  6 active torsions:
REMARK  status: ('A' for Active; 'I' for Inactive)
REMARK    1  A    between atoms: C_2  and  C_4
REMARK    2  A    between atoms: N_7  and  C_8
REMARK    3  A    between atoms: C_8  and  C_9
REMARK    4  A    between atoms: N_17  and  C_18
REMARK    5  A    between atoms: N_25  and  C_26
REMARK    6  A    between atoms: C_26  and  C_27
REMARK                            x       y       z     vdW  Elec       q    Type
REMARK                         _______ _______ _______ _____ _____    ______ ____
ROOT
ATOM      1  C   UNL     1       4.591   4.370  19.352  0.00  0.00    +0.000 A 
ATOM      2  C   UNL     1       4.934   2.984  19.229  0.00  0.00    +0.000 A 
ATOM      3  C   UNL     1       3.782   2.251  19.383  0.00  0.00    +0.000 A 
ATOM      4  N   UNL     1       2.757   3.122  19.610  0.00  0.00    +0.000 N 
ATOM      5  N   UNL     1       1.513   2.761  19.940  0.00  0.00    +0.000 NA
ATOM      6  C   UNL     1       0.718   3.770  20.130  0.00  0.00    +0.000 A 
ATOM      7  N   UNL     1       1.021   5.091  19.967  0.00  0.00    +0.000 NA
ATOM      8  C   UNL     1       2.228   5.457  19.631  0.00  0.00    +0.000 A 
ATOM      9  N   UNL     1       2.499   6.783  19.361  0.00  0.00    +0.000 N 
ATOM     10  C   UNL     1       3.207   4.410  19.497  0.00  0.00    +0.000 A 
ATOM     11  H   UNL     1       3.343   7.004  18.854  0.00  0.00    +0.000 HD
ENDROOT
BRANCH   9  12
ATOM     12  C   UNL     1       1.797   7.892  19.872  0.00  0.00    +0.000 A 
ATOM     13  C   UNL     1       1.532   9.018  19.080  0.00  0.00    +0.000 A 
ATOM     14  C   UNL     1       0.884  10.155  19.580  0.00  0.00    +0.000 A 
ATOM     15  C   UNL     1       0.536  10.152  20.935  0.00  0.00    +0.000 A 
ATOM     16  C   UNL     1       0.789   9.058  21.756  0.00  0.00    +0.000 A 
ATOM     17  C   UNL     1       0.321   9.451  23.029  0.00  0.00    +0.000 A 
ATOM     18  N   UNL     1      -0.182  10.688  23.040  0.00  0.00    +0.000 NA
ATOM     19  N   UNL     1      -0.069  11.088  21.751  0.00  0.00    +0.000 N 
ATOM     20  C   UNL     1       1.410   7.910  21.221  0.00  0.00    +0.000 A 
BRANCH  19  21
ATOM     21  C   UNL     1      -0.548  12.419  21.380  0.00  0.00    +0.000 C 
BRANCH  21  22
ATOM     22  C   UNL     1      -1.986  12.382  20.917  0.00  0.00    +0.000 A 
ATOM     23  C   UNL     1      -2.307  12.009  19.599  0.00  0.00    +0.000 A 
ATOM     24  C   UNL     1      -3.623  12.070  19.137  0.00  0.00    +0.000 A 
ATOM     25  C   UNL     1      -4.640  12.482  19.993  0.00  0.00    +0.000 A 
ATOM     26  C   UNL     1      -4.336  12.796  21.312  0.00  0.00    +0.000 A 
ATOM     27  F   UNL     1      -5.317  13.170  22.143  0.00  0.00    +0.000 F 
ATOM     28  C   UNL     1      -3.027  12.741  21.784  0.00  0.00    +0.000 A 
ENDBRANCH  21  22
ENDBRANCH  19  21
ENDBRANCH   9  12
BRANCH   1  29
ATOM     29  C   UNL     1       5.606   5.478  19.359  0.00  0.00    +0.000 C 
BRANCH  29  33
ATOM     30  C   UNL     1       6.352   5.277  15.097  0.00  0.00    +0.000 C 
ATOM     31  C   UNL     1       7.521   5.466  16.064  0.00  0.00    +0.000 C 
ATOM     32  C   UNL     1       7.140   5.093  17.498  0.00  0.00    +0.000 C 
ATOM     33  N   UNL     1       6.001   5.889  17.993  0.00  0.00    +0.000 NA
ATOM     34  C   UNL     1       4.833   5.720  17.101  0.00  0.00    +0.000 C 
ATOM     35  C   UNL     1       5.133   6.036  15.631  0.00  0.00    +0.000 C 
BRANCH  30  37
ATOM     36  N   UNL     1       6.252   3.378  13.547  0.00  0.00    +0.000 N 
ATOM     37  C   UNL     1       6.041   3.806  14.826  0.00  0.00    +0.000 C 
ATOM     38  O   UNL     1       5.581   3.031  15.658  0.00  0.00    +0.000 OA
ATOM     39  H   UNL     1       6.049   2.408  13.343  0.00  0.00    +0.000 HD
ATOM     40  H   UNL     1       6.735   3.921  12.846  0.00  0.00    +0.000 HD
ENDBRANCH  30  37
ENDBRANCH  29  33
ENDBRANCH   1  29
TORSDOF 6
ENDMDL
MODEL 8
REMARK VINA RESULT:      -9.3      3.399      9.266
REMARK  Name = 
REMARK  6 active torsions:
REMARK  status: ('A' for Active; 'I' for Inactive)
REMARK    1  A    between atoms: C_2  and  C_4
REMARK    2  A    between atoms: N_7  and  C_8
REMARK    3  A    between atoms: C_8  and  C_9
REMARK    4  A    between atoms: N_17  and  C_18
REMARK    5  A    between atoms: N_25  and  C_26
REMARK    6  A    between atoms: C_26  and  C_27
REMARK                            x       y       z     vdW  Elec       q    Type
REMARK                         _______ _______ _______ _____ _____    ______ ____
ROOT
ATOM      1  C   UNL     1      -0.931  11.842  20.699  0.00  0.00    +0.000 A 
ATOM      2  C   UNL     1      -1.620  12.714  21.603  0.00  0.00    +0.000 A 
ATOM      3  C   UNL     1      -1.415  12.245  22.878  0.00  0.00    +0.000 A 
ATOM      4  N   UNL     1      -0.648  11.120  22.792  0.00  0.00    +0.000 N 
ATOM      5  N   UNL     1      -0.360  10.318  23.823  0.00  0.00    +0.000 NA
ATOM      6  C   UNL     1       0.367   9.294  23.490  0.00  0.00    +0.000 A 
ATOM      7  N   UNL     1       0.883   9.025  22.255  0.00  0.00    +0.000 NA
ATOM      8  C   UNL     1       0.622   9.809  21.243  0.00  0.00    +0.000 A 
ATOM      9  N   UNL     1       1.234   9.593  20.026  0.00  0.00    +0.000 N 
ATOM     10  C   UNL     1      -0.262  10.917  21.495  0.00  0.00    +0.000 A 
ATOM     11  H   UNL     1       1.234  10.344  19.351  0.00  0.00    +0.000 HD
ENDROOT
BRANCH   9  12
ATOM     12  C   UNL     1       1.722   8.360  19.552  0.00  0.00    +0.000 A 
ATOM     13  C   UNL     1       2.040   8.170  18.199  0.00  0.00    +0.000 A 
ATOM     14  C   UNL     1       2.475   6.938  17.694  0.00  0.00    +0.000 A 
ATOM     15  C   UNL     1       2.547   5.866  18.589  0.00  0.00    +0.000 A 
ATOM     16  C   UNL     1       2.232   6.011  19.936  0.00  0.00    +0.000 A 
ATOM     17  C   UNL     1       2.402   4.721  20.484  0.00  0.00    +0.000 A 
ATOM     18  N   UNL     1       2.783   3.817  19.578  0.00  0.00    +0.000 NA
ATOM     19  N   UNL     1       2.894   4.537  18.437  0.00  0.00    +0.000 N 
ATOM     20  C   UNL     1       1.831   7.270  20.430  0.00  0.00    +0.000 A 
BRANCH  19  21
ATOM     21  C   UNL     1       3.320   3.861  17.213  0.00  0.00    +0.000 C 
BRANCH  21  22
ATOM     22  C   UNL     1       4.694   4.313  16.778  0.00  0.00    +0.000 A 
ATOM     23  C   UNL     1       4.931   4.719  15.452  0.00  0.00    +0.000 A 
ATOM     24  C   UNL     1       6.218   5.042  15.019  0.00  0.00    +0.000 A 
ATOM     25  C   UNL     1       7.284   4.987  15.913  0.00  0.00    +0.000 A 
ATOM     26  C   UNL     1       7.046   4.642  17.238  0.00  0.00    +0.000 A 
ATOM     27  F   UNL     1       8.067   4.611  18.104  0.00  0.00    +0.000 F 
ATOM     28  C   UNL     1       5.767   4.316  17.680  0.00  0.00    +0.000 A 
ENDBRANCH  21  22
ENDBRANCH  19  21
ENDBRANCH   9  12
BRANCH   1  29
ATOM     29  C   UNL     1      -1.018  11.962  19.204  0.00  0.00    +0.000 C 
BRANCH  29  33
ATOM     30  C   UNL     1      -3.127   9.576  16.268  0.00  0.00    +0.000 C 
ATOM     31  C   UNL     1      -3.842  10.013  17.545  0.00  0.00    +0.000 C 
ATOM     32  C   UNL     1      -3.116  11.167  18.239  0.00  0.00    +0.000 C 
ATOM     33  N   UNL     1      -1.727  10.817  18.587  0.00  0.00    +0.000 NA
ATOM     34  C   UNL     1      -0.983  10.409  17.375  0.00  0.00    +0.000 C 
ATOM     35  C   UNL     1      -1.660   9.278  16.592  0.00  0.00    +0.000 C 
BRANCH  30  37
ATOM     36  N   UNL     1      -3.976  11.719  15.430  0.00  0.00    +0.000 N 
ATOM     37  C   UNL     1      -3.272  10.589  15.133  0.00  0.00    +0.000 C 
ATOM     38  O   UNL     1      -2.844  10.419  13.996  0.00  0.00    +0.000 OA
ATOM     39  H   UNL     1      -4.089  12.403  14.692  0.00  0.00    +0.000 HD
ATOM     40  H   UNL     1      -4.253  11.979  16.365  0.00  0.00    +0.000 HD
ENDBRANCH  30  37
ENDBRANCH  29  33
ENDBRANCH   1  29
TORSDOF 6
ENDMDL
MODEL 9
REMARK VINA RESULT:      -9.2      3.211      5.300
REMARK  Name = 
REMARK  6 active torsions:
REMARK  status: ('A' for Active; 'I' for Inactive)
REMARK    1  A    between atoms: C_2  and  C_4
REMARK    2  A    between atoms: N_7  and  C_8
REMARK    3  A    between atoms: C_8  and  C_9
REMARK    4  A    between atoms: N_17  and  C_18
REMARK    5  A    between atoms: N_25  and  C_26
REMARK    6  A    between atoms: C_26  and  C_27
REMARK                            x       y       z     vdW  Elec       q    Type
REMARK                         _______ _______ _______ _____ _____    ______ ____
ROOT
ATOM      1  C   UNL     1       4.598   4.489  19.399  0.00  0.00    +0.000 A 
ATOM      2  C   UNL     1       4.982   3.117  19.259  0.00  0.00    +0.000 A 
ATOM      3  C   UNL     1       3.861   2.345  19.447  0.00  0.00    +0.000 A 
ATOM      4  N   UNL     1       2.816   3.181  19.712  0.00  0.00    +0.000 N 
ATOM      5  N   UNL     1       1.596   2.777  20.081  0.00  0.00    +0.000 NA
ATOM      6  C   UNL     1       0.775   3.759  20.303  0.00  0.00    +0.000 A 
ATOM      7  N   UNL     1       1.029   5.090  20.136  0.00  0.00    +0.000 NA
ATOM      8  C   UNL     1       2.211   5.497  19.762  0.00  0.00    +0.000 A 
ATOM      9  N   UNL     1       2.429   6.832  19.489  0.00  0.00    +0.000 N 
ATOM     10  C   UNL     1       3.219   4.484  19.590  0.00  0.00    +0.000 A 
ATOM     11  H   UNL     1       3.248   7.083  18.954  0.00  0.00    +0.000 HD
ENDROOT
BRANCH   9  12
ATOM     12  C   UNL     1       1.708   7.915  20.027  0.00  0.00    +0.000 A 
ATOM     13  C   UNL     1       1.410   9.050  19.260  0.00  0.00    +0.000 A 
ATOM     14  C   UNL     1       0.742  10.162  19.787  0.00  0.00    +0.000 A 
ATOM     15  C   UNL     1       0.409  10.126  21.146  0.00  0.00    +0.000 A 
ATOM     16  C   UNL     1       0.695   9.024  21.944  0.00  0.00    +0.000 A 
ATOM     17  C   UNL     1       0.233   9.383  23.228  0.00  0.00    +0.000 A 
ATOM     18  N   UNL     1      -0.297  10.607  23.268  0.00  0.00    +0.000 NA
ATOM     19  N   UNL     1      -0.208  11.034  21.986  0.00  0.00    +0.000 N 
ATOM     20  C   UNL     1       1.336   7.900  21.381  0.00  0.00    +0.000 A 
BRANCH  19  21
ATOM     21  C   UNL     1      -0.720  12.360  21.644  0.00  0.00    +0.000 C 
BRANCH  21  22
ATOM     22  C   UNL     1      -1.677  12.874  22.695  0.00  0.00    +0.000 A 
ATOM     23  C   UNL     1      -2.954  12.303  22.845  0.00  0.00    +0.000 A 
ATOM     24  C   UNL     1      -3.877  12.838  23.745  0.00  0.00    +0.000 A 
ATOM     25  C   UNL     1      -3.528  13.936  24.525  0.00  0.00    +0.000 A 
ATOM     26  C   UNL     1      -2.248  14.467  24.423  0.00  0.00    +0.000 A 
ATOM     27  F   UNL     1      -1.904  15.509  25.190  0.00  0.00    +0.000 F 
ATOM     28  C   UNL     1      -1.319  13.943  23.527  0.00  0.00    +0.000 A 
ENDBRANCH  21  22
ENDBRANCH  19  21
ENDBRANCH   9  12
BRANCH   1  29
ATOM     29  C   UNL     1       5.576   5.630  19.378  0.00  0.00    +0.000 C 
BRANCH  29  33
ATOM     30  C   UNL     1       6.340   5.300  15.127  0.00  0.00    +0.000 C 
ATOM     31  C   UNL     1       7.506   5.500  16.094  0.00  0.00    +0.000 C 
ATOM     32  C   UNL     1       7.113   5.173  17.536  0.00  0.00    +0.000 C 
ATOM     33  N   UNL     1       5.983   5.998  18.002  0.00  0.00    +0.000 NA
ATOM     34  C   UNL     1       4.817   5.820  17.110  0.00  0.00    +0.000 C 
ATOM     35  C   UNL     1       5.129   6.090  15.633  0.00  0.00    +0.000 C 
BRANCH  30  37
ATOM     36  N   UNL     1       6.256   3.351  13.640  0.00  0.00    +0.000 N 
ATOM     37  C   UNL     1       6.010   3.826  14.895  0.00  0.00    +0.000 C 
ATOM     38  O   UNL     1       5.507   3.090  15.737  0.00  0.00    +0.000 OA
ATOM     39  H   UNL     1       6.041   2.378  13.462  0.00  0.00    +0.000 HD
ATOM     40  H   UNL     1       6.773   3.859  12.939  0.00  0.00    +0.000 HD
ENDBRANCH  30  37
ENDBRANCH  29  33
ENDBRANCH   1  29
TORSDOF 6
ENDMDL
