MODEL 1
REMARK VINA RESULT:      -7.4      0.000      0.000
REMARK  Name = 
REMARK  14 active torsions:
REMARK  status: ('A' for Active; 'I' for Inactive)
REMARK    1  A    between atoms: C_1  and  O_2
REMARK    2  A    between atoms: O_2  and  C_3
REMARK    3  A    between atoms: C_3  and  C_5
REMARK    4  A    between atoms: C_7  and  N_8
REMARK    5  A    between atoms: C_9  and  C_11
REMARK    6  A    between atoms: C_11  and  C_12
REMARK    7  A    between atoms: C_12  and  C_13
REMARK    8  A    between atoms: C_13  and  C_14
REMARK    9  A    between atoms: N_16  and  C_17
REMARK   10  A    between atoms: C_19  and  C_20
REMARK   11  A    between atoms: C_19  and  C_21
REMARK   12  A    between atoms: C_24  and  C_25
REMARK   13  A    between atoms: C_24  and  C_26
REMARK   14  A    between atoms: C_30  and  O_31
REMARK                            x       y       z     vdW  Elec       q    Type
REMARK                         _______ _______ _______ _____ _____    ______ ____
ROOT
ATOM      1  C   UNL     1       2.534   8.347  17.911  0.00  0.00    +0.000 C 
ENDROOT
BRANCH   1   3
ATOM      2  N   UNL     1       0.499   9.409  18.821  0.00  0.00    +0.000 N 
ATOM      3  C   UNL     1       1.668   9.576  18.091  0.00  0.00    +0.000 C 
ATOM      4  O   UNL     1       2.003  10.610  17.507  0.00  0.00    +0.000 OA
ATOM      5  H   UNL     1       0.290   8.473  19.181  0.00  0.00    +0.000 HD
BRANCH   2   8
ATOM      6  C   UNL     1      -2.636  11.459  18.571  0.00  0.00    +0.000 A 
ATOM      7  C   UNL     1      -1.669  10.461  18.346  0.00  0.00    +0.000 A 
ATOM      8  C   UNL     1      -0.465  10.431  19.056  0.00  0.00    +0.000 A 
ATOM      9  C   UNL     1      -0.236  11.438  19.999  0.00  0.00    +0.000 A 
ATOM     10  C   UNL     1      -1.199  12.436  20.247  0.00  0.00    +0.000 A 
ATOM     11  C   UNL     1      -2.396  12.442  19.531  0.00  0.00    +0.000 A 
BRANCH   6  12
ATOM     12  C   UNL     1      -3.893  11.440  17.785  0.00  0.00    +0.000 C 
ATOM     13  O   UNL     1      -3.959  11.533  16.579  0.00  0.00    +0.000 OA
BRANCH  12  15
ATOM     14  C   UNL     1      -6.226  11.312  17.974  0.00  0.00    +0.000 C 
ATOM     15  O   UNL     1      -4.956  11.307  18.627  0.00  0.00    +0.000 OA
ENDBRANCH  12  15
ENDBRANCH   6  12
BRANCH  11  16
ATOM     16  O   UNL     1      -3.334  13.388  19.828  0.00  0.00    +0.000 OA
ATOM     17  H   UNL     1      -2.958  14.045  20.434  0.00  0.00    +0.000 HD
ENDBRANCH  11  16
ENDBRANCH   2   8
ENDBRANCH   1   3
BRANCH   1  18
ATOM     18  C   UNL     1       2.254   7.381  19.067  0.00  0.00    +0.000 C 
BRANCH  18  19
ATOM     19  C   UNL     1       1.721   6.002  18.673  0.00  0.00    +0.000 C 
BRANCH  19  20
ATOM     20  C   UNL     1       2.765   4.918  18.866  0.00  0.00    +0.000 C 
ATOM     21  O   UNL     1       2.775   4.158  19.829  0.00  0.00    +0.000 OA
ATOM     22  N   UNL     1       3.689   4.887  17.858  0.00  0.00    +0.000 N 
ATOM     23  H   UNL     1       3.477   5.416  17.027  0.00  0.00    +0.000 HD
BRANCH  22  24
ATOM     24  C   UNL     1       4.781   3.919  17.745  0.00  0.00    +0.000 C 
ATOM     25  C   UNL     1       5.255   3.623  16.315  0.00  0.00    +0.000 C 
ATOM     26  C   UNL     1       6.144   4.735  15.698  0.00  0.00    +0.000 C 
ATOM     27  C   UNL     1       5.257   5.930  15.263  0.00  0.00    +0.000 C 
ATOM     28  C   UNL     1       6.713   4.235  14.325  0.00  0.00    +0.000 C 
ATOM     29  N   UNL     1       7.241   5.183  16.625  0.00  0.00    +0.000 NA
ATOM     30  O   UNL     1       8.212   4.164  16.640  0.00  0.00    +0.000 OA
ATOM     31  C   UNL     1       6.866   5.445  18.050  0.00  0.00    +0.000 C 
ATOM     32  C   UNL     1       6.246   6.864  18.169  0.00  0.00    +0.000 C 
ATOM     33  C   UNL     1       8.111   5.579  18.997  0.00  0.00    +0.000 C 
ATOM     34  C   UNL     1       5.950   4.333  18.642  0.00  0.00    +0.000 C 
ENDBRANCH  22  24
ENDBRANCH  19  20
ENDBRANCH  18  19
ENDBRANCH   1  18
TORSDOF 9
ENDMDL
MODEL 2
REMARK VINA RESULT:      -7.4      3.003     11.363
REMARK  Name = 
REMARK  14 active torsions:
REMARK  status: ('A' for Active; 'I' for Inactive)
REMARK    1  A    between atoms: C_1  and  O_2
REMARK    2  A    between atoms: O_2  and  C_3
REMARK    3  A    between atoms: C_3  and  C_5
REMARK    4  A    between atoms: C_7  and  N_8
REMARK    5  A    between atoms: C_9  and  C_11
REMARK    6  A    between atoms: C_11  and  C_12
REMARK    7  A    between atoms: C_12  and  C_13
REMARK    8  A    between atoms: C_13  and  C_14
REMARK    9  A    between atoms: N_16  and  C_17
REMARK   10  A    between atoms: C_19  and  C_20
REMARK   11  A    between atoms: C_19  and  C_21
REMARK   12  A    between atoms: C_24  and  C_25
REMARK   13  A    between atoms: C_24  and  C_26
REMARK   14  A    between atoms: C_30  and  O_31
REMARK                            x       y       z     vdW  Elec       q    Type
REMARK                         _______ _______ _______ _____ _____    ______ ____
ROOT
ATOM      1  C   UNL     1       1.266   7.976  21.025  0.00  0.00    +0.000 C 
ENDROOT
BRANCH   1   3
ATOM      2  N   UNL     1       2.678   6.188  20.078  0.00  0.00    +0.000 N 
ATOM      3  C   UNL     1       2.042   7.402  19.859  0.00  0.00    +0.000 C 
ATOM      4  O   UNL     1       2.137   8.083  18.835  0.00  0.00    +0.000 OA
ATOM      5  H   UNL     1       2.594   5.764  21.005  0.00  0.00    +0.000 HD
BRANCH   2   8
ATOM      6  C   UNL     1       5.705   4.989  18.207  0.00  0.00    +0.000 A 
ATOM      7  C   UNL     1       4.884   5.653  19.138  0.00  0.00    +0.000 A 
ATOM      8  C   UNL     1       3.493   5.514  19.122  0.00  0.00    +0.000 A 
ATOM      9  C   UNL     1       2.928   4.699  18.136  0.00  0.00    +0.000 A 
ATOM     10  C   UNL     1       3.736   4.015  17.206  0.00  0.00    +0.000 A 
ATOM     11  C   UNL     1       5.121   4.164  17.245  0.00  0.00    +0.000 A 
BRANCH   6  12
ATOM     12  C   UNL     1       7.174   5.177  18.272  0.00  0.00    +0.000 C 
ATOM     13  O   UNL     1       7.995   4.317  18.045  0.00  0.00    +0.000 OA
BRANCH  12  15
ATOM     14  C   UNL     1       7.702   7.338  17.533  0.00  0.00    +0.000 C 
ATOM     15  O   UNL     1       7.453   6.461  18.632  0.00  0.00    +0.000 OA
ENDBRANCH  12  15
ENDBRANCH   6  12
BRANCH  11  16
ATOM     16  O   UNL     1       5.884   3.450  16.366  0.00  0.00    +0.000 OA
ATOM     17  H   UNL     1       6.661   3.091  16.822  0.00  0.00    +0.000 HD
ENDBRANCH  11  16
ENDBRANCH   2   8
ENDBRANCH   1   3
BRANCH   1  18
ATOM     18  C   UNL     1       0.489   9.203  20.536  0.00  0.00    +0.000 C 
BRANCH  18  19
ATOM     19  C   UNL     1       0.892  10.542  21.155  0.00  0.00    +0.000 C 
BRANCH  19  20
ATOM     20  C   UNL     1      -0.006  10.917  22.320  0.00  0.00    +0.000 C 
ATOM     21  O   UNL     1      -0.122  10.228  23.328  0.00  0.00    +0.000 OA
ATOM     22  N   UNL     1      -0.671  12.095  22.118  0.00  0.00    +0.000 N 
ATOM     23  H   UNL     1      -0.357  12.673  21.355  0.00  0.00    +0.000 HD
BRANCH  22  24
ATOM     24  C   UNL     1      -1.563  12.736  23.086  0.00  0.00    +0.000 C 
ATOM     25  C   UNL     1      -1.406  14.257  23.223  0.00  0.00    +0.000 C 
ATOM     26  C   UNL     1      -2.040  15.068  22.064  0.00  0.00    +0.000 C 
ATOM     27  C   UNL     1      -1.130  14.987  20.811  0.00  0.00    +0.000 C 
ATOM     28  C   UNL     1      -1.980  16.596  22.412  0.00  0.00    +0.000 C 
ATOM     29  N   UNL     1      -3.443  14.625  21.744  0.00  0.00    +0.000 NA
ATOM     30  O   UNL     1      -4.272  15.105  22.774  0.00  0.00    +0.000 OA
ATOM     31  C   UNL     1      -3.687  13.152  21.642  0.00  0.00    +0.000 C 
ATOM     32  C   UNL     1      -3.256  12.653  20.235  0.00  0.00    +0.000 C 
ATOM     33  C   UNL     1      -5.213  12.782  21.638  0.00  0.00    +0.000 C 
ATOM     34  C   UNL     1      -3.017  12.353  22.798  0.00  0.00    +0.000 C 
ENDBRANCH  22  24
ENDBRANCH  19  20
ENDBRANCH  18  19
ENDBRANCH   1  18
TORSDOF 9
ENDMDL
MODEL 3
REMARK VINA RESULT:      -7.4      1.712      2.279
REMARK  Name = 
REMARK  14 active torsions:
REMARK  status: ('A' for Active; 'I' for Inactive)
REMARK    1  A    between atoms: C_1  and  O_2
REMARK    2  A    between atoms: O_2  and  C_3
REMARK    3  A    between atoms: C_3  and  C_5
REMARK    4  A    between atoms: C_7  and  N_8
REMARK    5  A    between atoms: C_9  and  C_11
REMARK    6  A    between atoms: C_11  and  C_12
REMARK    7  A    between atoms: C_12  and  C_13
REMARK    8  A    between atoms: C_13  and  C_14
REMARK    9  A    between atoms: N_16  and  C_17
REMARK   10  A    between atoms: C_19  and  C_20
REMARK   11  A    between atoms: C_19  and  C_21
REMARK   12  A    between atoms: C_24  and  C_25
REMARK   13  A    between atoms: C_24  and  C_26
REMARK   14  A    between atoms: C_30  and  O_31
REMARK                            x       y       z     vdW  Elec       q    Type
REMARK                         _______ _______ _______ _____ _____    ______ ____
ROOT
ATOM      1  C   UNL     1       2.005   9.055  17.749  0.00  0.00    +0.000 C 
ENDROOT
BRANCH   1   3
ATOM      2  N   UNL     1       1.170   9.855  19.930  0.00  0.00    +0.000 N 
ATOM      3  C   UNL     1       0.908   9.690  18.576  0.00  0.00    +0.000 C 
ATOM      4  O   UNL     1      -0.169   9.930  18.024  0.00  0.00    +0.000 OA
ATOM      5  H   UNL     1       2.074   9.532  20.284  0.00  0.00    +0.000 HD
BRANCH   2   8
ATOM      6  C   UNL     1      -1.413  12.073  21.512  0.00  0.00    +0.000 A 
ATOM      7  C   UNL     1      -0.491  11.539  20.592  0.00  0.00    +0.000 A 
ATOM      8  C   UNL     1       0.247  10.386  20.876  0.00  0.00    +0.000 A 
ATOM      9  C   UNL     1       0.055   9.777  22.120  0.00  0.00    +0.000 A 
ATOM     10  C   UNL     1      -0.874  10.291  23.047  0.00  0.00    +0.000 A 
ATOM     11  C   UNL     1      -1.604  11.437  22.738  0.00  0.00    +0.000 A 
BRANCH   6  12
ATOM     12  C   UNL     1      -2.165  13.300  21.153  0.00  0.00    +0.000 C 
ATOM     13  O   UNL     1      -1.665  14.335  20.772  0.00  0.00    +0.000 OA
BRANCH  12  15
ATOM     14  C   UNL     1      -4.177  12.639  20.147  0.00  0.00    +0.000 C 
ATOM     15  O   UNL     1      -3.499  13.083  21.324  0.00  0.00    +0.000 OA
ENDBRANCH  12  15
ENDBRANCH   6  12
BRANCH  11  16
ATOM     16  O   UNL     1      -2.535  11.884  23.631  0.00  0.00    +0.000 OA
ATOM     17  H   UNL     1      -3.081  12.572  23.219  0.00  0.00    +0.000 HD
ENDBRANCH  11  16
ENDBRANCH   2   8
ENDBRANCH   1   3
BRANCH   1  18
ATOM     18  C   UNL     1       2.358   7.698  18.366  0.00  0.00    +0.000 C 
BRANCH  18  19
ATOM     19  C   UNL     1       1.542   6.504  17.869  0.00  0.00    +0.000 C 
BRANCH  19  20
ATOM     20  C   UNL     1       2.339   5.213  17.929  0.00  0.00    +0.000 C 
ATOM     21  O   UNL     1       1.820   4.101  17.896  0.00  0.00    +0.000 OA
ATOM     22  N   UNL     1       3.686   5.426  18.028  0.00  0.00    +0.000 N 
ATOM     23  H   UNL     1       4.015   6.361  17.849  0.00  0.00    +0.000 HD
BRANCH  22  24
ATOM     24  C   UNL     1       4.705   4.376  18.051  0.00  0.00    +0.000 C 
ATOM     25  C   UNL     1       5.110   3.820  16.678  0.00  0.00    +0.000 C 
ATOM     26  C   UNL     1       6.050   4.750  15.868  0.00  0.00    +0.000 C 
ATOM     27  C   UNL     1       5.231   5.920  15.262  0.00  0.00    +0.000 C 
ATOM     28  C   UNL     1       6.538   3.995  14.583  0.00  0.00    +0.000 C 
ATOM     29  N   UNL     1       7.205   5.263  16.684  0.00  0.00    +0.000 NA
ATOM     30  O   UNL     1       8.105   4.192  16.843  0.00  0.00    +0.000 OA
ATOM     31  C   UNL     1       6.898   5.778  18.055  0.00  0.00    +0.000 C 
ATOM     32  C   UNL     1       6.379   7.238  17.954  0.00  0.00    +0.000 C 
ATOM     33  C   UNL     1       8.181   5.974  18.939  0.00  0.00    +0.000 C 
ATOM     34  C   UNL     1       5.930   4.845  18.841  0.00  0.00    +0.000 C 
ENDBRANCH  22  24
ENDBRANCH  19  20
ENDBRANCH  18  19
ENDBRANCH   1  18
TORSDOF 9
ENDMDL
MODEL 4
REMARK VINA RESULT:      -7.3      2.069      3.599
REMARK  Name = 
REMARK  14 active torsions:
REMARK  status: ('A' for Active; 'I' for Inactive)
REMARK    1  A    between atoms: C_1  and  O_2
REMARK    2  A    between atoms: O_2  and  C_3
REMARK    3  A    between atoms: C_3  and  C_5
REMARK    4  A    between atoms: C_7  and  N_8
REMARK    5  A    between atoms: C_9  and  C_11
REMARK    6  A    between atoms: C_11  and  C_12
REMARK    7  A    between atoms: C_12  and  C_13
REMARK    8  A    between atoms: C_13  and  C_14
REMARK    9  A    between atoms: N_16  and  C_17
REMARK   10  A    between atoms: C_19  and  C_20
REMARK   11  A    between atoms: C_19  and  C_21
REMARK   12  A    between atoms: C_24  and  C_25
REMARK   13  A    between atoms: C_24  and  C_26
REMARK   14  A    between atoms: C_30  and  O_31
REMARK                            x       y       z     vdW  Elec       q    Type
REMARK                         _______ _______ _______ _____ _____    ______ ____
ROOT
ATOM      1  C   UNL     1       1.241  10.953  19.127  0.00  0.00    +0.000 C 
ENDROOT
BRANCH   1   3
ATOM      2  N   UNL     1      -0.911  11.462  18.030  0.00  0.00    +0.000 N 
ATOM      3  C   UNL     1      -0.264  10.797  19.062  0.00  0.00    +0.000 C 
ATOM      4  O   UNL     1      -0.822  10.177  19.972  0.00  0.00    +0.000 OA
ATOM      5  H   UNL     1      -0.341  12.020  17.388  0.00  0.00    +0.000 HD
BRANCH   2   8
ATOM      6  C   UNL     1      -4.581  11.955  18.654  0.00  0.00    +0.000 A 
ATOM      7  C   UNL     1      -3.185  11.927  18.836  0.00  0.00    +0.000 A 
ATOM      8  C   UNL     1      -2.322  11.476  17.832  0.00  0.00    +0.000 A 
ATOM      9  C   UNL     1      -2.889  11.036  16.632  0.00  0.00    +0.000 A 
ATOM     10  C   UNL     1      -4.282  11.071  16.428  0.00  0.00    +0.000 A 
ATOM     11  C   UNL     1      -5.122  11.531  17.441  0.00  0.00    +0.000 A 
BRANCH   6  12
ATOM     12  C   UNL     1      -5.444  12.442  19.757  0.00  0.00    +0.000 C 
ATOM     13  O   UNL     1      -6.340  11.807  20.268  0.00  0.00    +0.000 OA
BRANCH  12  15
ATOM     14  C   UNL     1      -6.171  14.613  20.257  0.00  0.00    +0.000 C 
ATOM     15  O   UNL     1      -5.077  13.708  20.099  0.00  0.00    +0.000 OA
ENDBRANCH  12  15
ENDBRANCH   6  12
BRANCH  11  16
ATOM     16  O   UNL     1      -6.464  11.604  17.200  0.00  0.00    +0.000 OA
ATOM     17  H   UNL     1      -6.621  11.710  16.248  0.00  0.00    +0.000 HD
ENDBRANCH  11  16
ENDBRANCH   2   8
ENDBRANCH   1   3
BRANCH   1  18
ATOM     18  C   UNL     1       1.867  10.105  18.015  0.00  0.00    +0.000 C 
BRANCH  18  19
ATOM     19  C   UNL     1       1.463   8.630  17.990  0.00  0.00    +0.000 C 
BRANCH  19  20
ATOM     20  C   UNL     1       2.033   7.869  19.172  0.00  0.00    +0.000 C 
ATOM     21  O   UNL     1       1.818   8.181  20.339  0.00  0.00    +0.000 OA
ATOM     22  N   UNL     1       2.812   6.810  18.795  0.00  0.00    +0.000 N 
ATOM     23  H   UNL     1       2.763   6.527  17.830  0.00  0.00    +0.000 HD
BRANCH  22  24
ATOM     24  C   UNL     1       3.451   5.865  19.712  0.00  0.00    +0.000 C 
ATOM     25  C   UNL     1       2.701   4.542  19.923  0.00  0.00    +0.000 C 
ATOM     26  C   UNL     1       2.843   3.538  18.750  0.00  0.00    +0.000 C 
ATOM     27  C   UNL     1       1.934   3.979  17.573  0.00  0.00    +0.000 C 
ATOM     28  C   UNL     1       2.198   2.169  19.164  0.00  0.00    +0.000 C 
ATOM     29  N   UNL     1       4.269   3.367  18.300  0.00  0.00    +0.000 NA
ATOM     30  O   UNL     1       4.921   2.594  19.279  0.00  0.00    +0.000 OA
ATOM     31  C   UNL     1       5.081   4.611  18.119  0.00  0.00    +0.000 C 
ATOM     32  C   UNL     1       4.764   5.237  16.733  0.00  0.00    +0.000 C 
ATOM     33  C   UNL     1       6.618   4.324  17.976  0.00  0.00    +0.000 C 
ATOM     34  C   UNL     1       4.902   5.619  19.292  0.00  0.00    +0.000 C 
ENDBRANCH  22  24
ENDBRANCH  19  20
ENDBRANCH  18  19
ENDBRANCH   1  18
TORSDOF 9
ENDMDL
MODEL 5
REMARK VINA RESULT:      -7.3      3.496     11.696
REMARK  Name = 
REMARK  14 active torsions:
REMARK  status: ('A' for Active; 'I' for Inactive)
REMARK    1  A    between atoms: C_1  and  O_2
REMARK    2  A    between atoms: O_2  and  C_3
REMARK    3  A    between atoms: C_3  and  C_5
REMARK    4  A    between atoms: C_7  and  N_8
REMARK    5  A    between atoms: C_9  and  C_11
REMARK    6  A    between atoms: C_11  and  C_12
REMARK    7  A    between atoms: C_12  and  C_13
REMARK    8  A    between atoms: C_13  and  C_14
REMARK    9  A    between atoms: N_16  and  C_17
REMARK   10  A    between atoms: C_19  and  C_20
REMARK   11  A    between atoms: C_19  and  C_21
REMARK   12  A    between atoms: C_24  and  C_25
REMARK   13  A    between atoms: C_24  and  C_26
REMARK   14  A    between atoms: C_30  and  O_31
REMARK                            x       y       z     vdW  Elec       q    Type
REMARK                         _______ _______ _______ _____ _____    ______ ____
ROOT
ATOM      1  C   UNL     1       1.152   8.565  21.522  0.00  0.00    +0.000 C 
ENDROOT
BRANCH   1   3
ATOM      2  N   UNL     1       2.040   6.384  20.782  0.00  0.00    +0.000 N 
ATOM      3  C   UNL     1       1.696   7.680  20.422  0.00  0.00    +0.000 C 
ATOM      4  O   UNL     1       1.886   8.186  19.312  0.00  0.00    +0.000 OA
ATOM      5  H   UNL     1       1.916   6.111  21.761  0.00  0.00    +0.000 HD
BRANCH   2   8
ATOM      6  C   UNL     1       4.550   4.524  18.699  0.00  0.00    +0.000 A 
ATOM      7  C   UNL     1       3.966   5.473  19.561  0.00  0.00    +0.000 A 
ATOM      8  C   UNL     1       2.611   5.421  19.902  0.00  0.00    +0.000 A 
ATOM      9  C   UNL     1       1.837   4.398  19.347  0.00  0.00    +0.000 A 
ATOM     10  C   UNL     1       2.407   3.432  18.494  0.00  0.00    +0.000 A 
ATOM     11  C   UNL     1       3.762   3.500  18.174  0.00  0.00    +0.000 A 
BRANCH   6  12
ATOM     12  C   UNL     1       5.992   4.633  18.373  0.00  0.00    +0.000 C 
ATOM     13  O   UNL     1       6.472   4.445  17.277  0.00  0.00    +0.000 OA
BRANCH  12  15
ATOM     14  C   UNL     1       7.826   5.800  19.250  0.00  0.00    +0.000 C 
ATOM     15  O   UNL     1       6.689   4.971  19.494  0.00  0.00    +0.000 OA
ENDBRANCH  12  15
ENDBRANCH   6  12
BRANCH  11  16
ATOM     16  O   UNL     1       4.302   2.523  17.388  0.00  0.00    +0.000 OA
ATOM     17  H   UNL     1       3.616   1.879  17.148  0.00  0.00    +0.000 HD
ENDBRANCH  11  16
ENDBRANCH   2   8
ENDBRANCH   1   3
BRANCH   1  18
ATOM     18  C   UNL     1       0.923   9.968  20.951  0.00  0.00    +0.000 C 
BRANCH  18  19
ATOM     19  C   UNL     1      -0.510  10.498  21.027  0.00  0.00    +0.000 C 
BRANCH  19  20
ATOM     20  C   UNL     1      -0.829  11.064  22.398  0.00  0.00    +0.000 C 
ATOM     21  O   UNL     1      -0.352  10.618  23.437  0.00  0.00    +0.000 OA
ATOM     22  N   UNL     1      -1.706  12.112  22.347  0.00  0.00    +0.000 N 
ATOM     23  H   UNL     1      -1.880  12.519  21.443  0.00  0.00    +0.000 HD
BRANCH  22  24
ATOM     24  C   UNL     1      -2.157  12.890  23.502  0.00  0.00    +0.000 C 
ATOM     25  C   UNL     1      -1.941  14.407  23.401  0.00  0.00    +0.000 C 
ATOM     26  C   UNL     1      -2.958  15.133  22.483  0.00  0.00    +0.000 C 
ATOM     27  C   UNL     1      -2.591  14.882  20.997  0.00  0.00    +0.000 C 
ATOM     28  C   UNL     1      -2.751  16.683  22.612  0.00  0.00    +0.000 C 
ATOM     29  N   UNL     1      -4.382  14.737  22.765  0.00  0.00    +0.000 NA
ATOM     30  O   UNL     1      -4.752  15.359  23.972  0.00  0.00    +0.000 OA
ATOM     31  C   UNL     1      -4.665  13.276  22.925  0.00  0.00    +0.000 C 
ATOM     32  C   UNL     1      -4.806  12.620  21.525  0.00  0.00    +0.000 C 
ATOM     33  C   UNL     1      -6.082  12.990  23.537  0.00  0.00    +0.000 C 
ATOM     34  C   UNL     1      -3.616  12.559  23.826  0.00  0.00    +0.000 C 
ENDBRANCH  22  24
ENDBRANCH  19  20
ENDBRANCH  18  19
ENDBRANCH   1  18
TORSDOF 9
ENDMDL
MODEL 6
REMARK VINA RESULT:      -7.3      3.016     10.973
REMARK  Name = 
REMARK  14 active torsions:
REMARK  status: ('A' for Active; 'I' for Inactive)
REMARK    1  A    between atoms: C_1  and  O_2
REMARK    2  A    between atoms: O_2  and  C_3
REMARK    3  A    between atoms: C_3  and  C_5
REMARK    4  A    between atoms: C_7  and  N_8
REMARK    5  A    between atoms: C_9  and  C_11
REMARK    6  A    between atoms: C_11  and  C_12
REMARK    7  A    between atoms: C_12  and  C_13
REMARK    8  A    between atoms: C_13  and  C_14
REMARK    9  A    between atoms: N_16  and  C_17
REMARK   10  A    between atoms: C_19  and  C_20
REMARK   11  A    between atoms: C_19  and  C_21
REMARK   12  A    between atoms: C_24  and  C_25
REMARK   13  A    between atoms: C_24  and  C_26
REMARK   14  A    between atoms: C_30  and  O_31
REMARK                            x       y       z     vdW  Elec       q    Type
REMARK                         _______ _______ _______ _____ _____    ______ ____
ROOT
ATOM      1  C   UNL     1       1.677   7.929  21.139  0.00  0.00    +0.000 C 
ENDROOT
BRANCH   1   3
ATOM      2  N   UNL     1       3.006   6.133  20.090  0.00  0.00    +0.000 N 
ATOM      3  C   UNL     1       2.294   7.310  19.903  0.00  0.00    +0.000 C 
ATOM      4  O   UNL     1       2.208   7.930  18.839  0.00  0.00    +0.000 OA
ATOM      5  H   UNL     1       3.078   5.764  21.042  0.00  0.00    +0.000 HD
BRANCH   2   8
ATOM      6  C   UNL     1       5.772   4.898  17.873  0.00  0.00    +0.000 A 
ATOM      7  C   UNL     1       5.072   5.592  18.878  0.00  0.00    +0.000 A 
ATOM      8  C   UNL     1       3.696   5.429  19.062  0.00  0.00    +0.000 A 
ATOM      9  C   UNL     1       3.020   4.558  18.201  0.00  0.00    +0.000 A 
ATOM     10  C   UNL     1       3.708   3.845  17.199  0.00  0.00    +0.000 A 
ATOM     11  C   UNL     1       5.082   4.019  17.039  0.00  0.00    +0.000 A 
BRANCH   6  12
ATOM     12  C   UNL     1       7.232   5.115  17.725  0.00  0.00    +0.000 C 
ATOM     13  O   UNL     1       7.981   4.396  17.101  0.00  0.00    +0.000 OA
BRANCH  12  15
ATOM     14  C   UNL     1       7.707   7.406  17.587  0.00  0.00    +0.000 C 
ATOM     15  O   UNL     1       7.597   6.239  18.403  0.00  0.00    +0.000 OA
ENDBRANCH  12  15
ENDBRANCH   6  12
BRANCH  11  16
ATOM     16  O   UNL     1       5.733   3.277  16.095  0.00  0.00    +0.000 OA
ATOM     17  H   UNL     1       6.683   3.260  16.290  0.00  0.00    +0.000 HD
ENDBRANCH  11  16
ENDBRANCH   2   8
ENDBRANCH   1   3
BRANCH   1  18
ATOM     18  C   UNL     1       0.515   8.829  20.704  0.00  0.00    +0.000 C 
BRANCH  18  19
ATOM     19  C   UNL     1      -0.662   8.920  21.677  0.00  0.00    +0.000 C 
BRANCH  19  20
ATOM     20  C   UNL     1      -0.522  10.099  22.622  0.00  0.00    +0.000 C 
ATOM     21  O   UNL     1       0.134  10.055  23.658  0.00  0.00    +0.000 OA
ATOM     22  N   UNL     1      -1.209  11.202  22.197  0.00  0.00    +0.000 N 
ATOM     23  H   UNL     1      -1.547  11.193  21.248  0.00  0.00    +0.000 HD
BRANCH  22  24
ATOM     24  C   UNL     1      -1.218  12.501  22.872  0.00  0.00    +0.000 C 
ATOM     25  C   UNL     1      -0.271  13.557  22.284  0.00  0.00    +0.000 C 
ATOM     26  C   UNL     1      -0.782  14.208  20.972  0.00  0.00    +0.000 C 
ATOM     27  C   UNL     1      -0.580  13.225  19.789  0.00  0.00    +0.000 C 
ATOM     28  C   UNL     1       0.171  15.389  20.579  0.00  0.00    +0.000 C 
ATOM     29  N   UNL     1      -2.215  14.656  21.066  0.00  0.00    +0.000 NA
ATOM     30  O   UNL     1      -2.233  15.817  21.861  0.00  0.00    +0.000 OA
ATOM     31  C   UNL     1      -3.192  13.700  21.673  0.00  0.00    +0.000 C 
ATOM     32  C   UNL     1      -3.633  12.662  20.605  0.00  0.00    +0.000 C 
ATOM     33  C   UNL     1      -4.567  14.370  22.029  0.00  0.00    +0.000 C 
ATOM     34  C   UNL     1      -2.649  13.035  22.973  0.00  0.00    +0.000 C 
ENDBRANCH  22  24
ENDBRANCH  19  20
ENDBRANCH  18  19
ENDBRANCH   1  18
TORSDOF 9
ENDMDL
MODEL 7
REMARK VINA RESULT:      -7.3      3.127     11.385
REMARK  Name = 
REMARK  14 active torsions:
REMARK  status: ('A' for Active; 'I' for Inactive)
REMARK    1  A    between atoms: C_1  and  O_2
REMARK    2  A    between atoms: O_2  and  C_3
REMARK    3  A    between atoms: C_3  and  C_5
REMARK    4  A    between atoms: C_7  and  N_8
REMARK    5  A    between atoms: C_9  and  C_11
REMARK    6  A    between atoms: C_11  and  C_12
REMARK    7  A    between atoms: C_12  and  C_13
REMARK    8  A    between atoms: C_13  and  C_14
REMARK    9  A    between atoms: N_16  and  C_17
REMARK   10  A    between atoms: C_19  and  C_20
REMARK   11  A    between atoms: C_19  and  C_21
REMARK   12  A    between atoms: C_24  and  C_25
REMARK   13  A    between atoms: C_24  and  C_26
REMARK   14  A    between atoms: C_30  and  O_31
REMARK                            x       y       z     vdW  Elec       q    Type
REMARK                         _______ _______ _______ _____ _____    ______ ____
ROOT
ATOM      1  C   UNL     1       1.073   9.537  18.076  0.00  0.00    +0.000 C 
ENDROOT
BRANCH   1   3
ATOM      2  N   UNL     1       2.447   7.508  17.777  0.00  0.00    +0.000 N 
ATOM      3  C   UNL     1       1.868   8.396  18.673  0.00  0.00    +0.000 C 
ATOM      4  O   UNL     1       1.873   8.273  19.901  0.00  0.00    +0.000 OA
ATOM      5  H   UNL     1       2.295   7.670  16.777  0.00  0.00    +0.000 HD
BRANCH   2   8
ATOM      6  C   UNL     1       5.278   5.068  18.132  0.00  0.00    +0.000 A 
ATOM      7  C   UNL     1       4.527   6.203  17.769  0.00  0.00    +0.000 A 
ATOM      8  C   UNL     1       3.189   6.349  18.145  0.00  0.00    +0.000 A 
ATOM      9  C   UNL     1       2.603   5.320  18.889  0.00  0.00    +0.000 A 
ATOM     10  C   UNL     1       3.344   4.185  19.273  0.00  0.00    +0.000 A 
ATOM     11  C   UNL     1       4.679   4.064  18.892  0.00  0.00    +0.000 A 
BRANCH   6  12
ATOM     12  C   UNL     1       6.694   4.969  17.701  0.00  0.00    +0.000 C 
ATOM     13  O   UNL     1       7.582   4.457  18.346  0.00  0.00    +0.000 OA
BRANCH  12  15
ATOM     14  C   UNL     1       7.016   4.615  15.406  0.00  0.00    +0.000 C 
ATOM     15  O   UNL     1       6.839   5.546  16.475  0.00  0.00    +0.000 OA
ENDBRANCH  12  15
ENDBRANCH   6  12
BRANCH  11  16
ATOM     16  O   UNL     1       5.390   2.980  19.320  0.00  0.00    +0.000 OA
ATOM     17  H   UNL     1       6.051   2.737  18.654  0.00  0.00    +0.000 HD
ENDBRANCH  11  16
ENDBRANCH   2   8
ENDBRANCH   1   3
BRANCH   1  18
ATOM     18  C   UNL     1       1.012  10.676  19.099  0.00  0.00    +0.000 C 
BRANCH  18  19
ATOM     19  C   UNL     1      -0.357  10.935  19.731  0.00  0.00    +0.000 C 
BRANCH  19  20
ATOM     20  C   UNL     1      -0.235  11.363  21.182  0.00  0.00    +0.000 C 
ATOM     21  O   UNL     1       0.815  11.304  21.815  0.00  0.00    +0.000 OA
ATOM     22  N   UNL     1      -1.418  11.811  21.703  0.00  0.00    +0.000 N 
ATOM     23  H   UNL     1      -2.161  12.002  21.051  0.00  0.00    +0.000 HD
BRANCH  22  24
ATOM     24  C   UNL     1      -1.596  12.338  23.057  0.00  0.00    +0.000 C 
ATOM     25  C   UNL     1      -1.168  13.798  23.259  0.00  0.00    +0.000 C 
ATOM     26  C   UNL     1      -2.171  14.838  22.696  0.00  0.00    +0.000 C 
ATOM     27  C   UNL     1      -2.037  14.909  21.153  0.00  0.00    +0.000 C 
ATOM     28  C   UNL     1      -1.718  16.276  23.129  0.00  0.00    +0.000 C 
ATOM     29  N   UNL     1      -3.591  14.556  23.105  0.00  0.00    +0.000 NA
ATOM     30  O   UNL     1      -3.709  14.910  24.462  0.00  0.00    +0.000 OA
ATOM     31  C   UNL     1      -4.069  13.143  22.982  0.00  0.00    +0.000 C 
ATOM     32  C   UNL     1      -4.483  12.863  21.512  0.00  0.00    +0.000 C 
ATOM     33  C   UNL     1      -5.425  12.887  23.731  0.00  0.00    +0.000 C 
ATOM     34  C   UNL     1      -3.036  12.113  23.526  0.00  0.00    +0.000 C 
ENDBRANCH  22  24
ENDBRANCH  19  20
ENDBRANCH  18  19
ENDBRANCH   1  18
TORSDOF 9
ENDMDL
MODEL 8
REMARK VINA RESULT:      -7.2      1.204      2.363
REMARK  Name = 
REMARK  14 active torsions:
REMARK  status: ('A' for Active; 'I' for Inactive)
REMARK    1  A    between atoms: C_1  and  O_2
REMARK    2  A    between atoms: O_2  and  C_3
REMARK    3  A    between atoms: C_3  and  C_5
REMARK    4  A    between atoms: C_7  and  N_8
REMARK    5  A    between atoms: C_9  and  C_11
REMARK    6  A    between atoms: C_11  and  C_12
REMARK    7  A    between atoms: C_12  and  C_13
REMARK    8  A    between atoms: C_13  and  C_14
REMARK    9  A    between atoms: N_16  and  C_17
REMARK   10  A    between atoms: C_19  and  C_20
REMARK   11  A    between atoms: C_19  and  C_21
REMARK   12  A    between atoms: C_24  and  C_25
REMARK   13  A    between atoms: C_24  and  C_26
REMARK   14  A    between atoms: C_30  and  O_31
REMARK                            x       y       z     vdW  Elec       q    Type
REMARK                         _______ _______ _______ _____ _____    ______ ____
ROOT
ATOM      1  C   UNL     1       2.235   8.763  17.983  0.00  0.00    +0.000 C 
ENDROOT
BRANCH   1   3
ATOM      2  N   UNL     1       0.037   9.849  17.693  0.00  0.00    +0.000 N 
ATOM      3  C   UNL     1       0.999   9.395  18.586  0.00  0.00    +0.000 C 
ATOM      4  O   UNL     1       0.966   9.552  19.810  0.00  0.00    +0.000 OA
ATOM      5  H   UNL     1       0.224   9.739  16.693  0.00  0.00    +0.000 HD
BRANCH   2   8
ATOM      6  C   UNL     1      -2.331  12.252  19.340  0.00  0.00    +0.000 A 
ATOM      7  C   UNL     1      -1.152  11.580  18.968  0.00  0.00    +0.000 A 
ATOM      8  C   UNL     1      -1.168  10.512  18.065  0.00  0.00    +0.000 A 
ATOM      9  C   UNL     1      -2.403  10.115  17.544  0.00  0.00    +0.000 A 
ATOM     10  C   UNL     1      -3.591  10.786  17.895  0.00  0.00    +0.000 A 
ATOM     11  C   UNL     1      -3.550  11.852  18.792  0.00  0.00    +0.000 A 
BRANCH   6  12
ATOM     12  C   UNL     1      -2.251  13.376  20.304  0.00  0.00    +0.000 C 
ATOM     13  O   UNL     1      -3.193  13.848  20.900  0.00  0.00    +0.000 OA
BRANCH  12  15
ATOM     14  C   UNL     1      -0.654  14.455  21.638  0.00  0.00    +0.000 C 
ATOM     15  O   UNL     1      -0.959  13.794  20.409  0.00  0.00    +0.000 OA
ENDBRANCH  12  15
ENDBRANCH   6  12
BRANCH  11  16
ATOM     16  O   UNL     1      -4.708  12.519  19.075  0.00  0.00    +0.000 OA
ATOM     17  H   UNL     1      -4.580  13.082  19.854  0.00  0.00    +0.000 HD
ENDBRANCH  11  16
ENDBRANCH   2   8
ENDBRANCH   1   3
BRANCH   1  18
ATOM     18  C   UNL     1       2.402   7.360  18.575  0.00  0.00    +0.000 C 
BRANCH  18  19
ATOM     19  C   UNL     1       1.576   6.253  17.918  0.00  0.00    +0.000 C 
BRANCH  19  20
ATOM     20  C   UNL     1       2.377   4.976  17.749  0.00  0.00    +0.000 C 
ATOM     21  O   UNL     1       1.874   3.905  17.425  0.00  0.00    +0.000 OA
ATOM     22  N   UNL     1       3.709   5.149  18.004  0.00  0.00    +0.000 N 
ATOM     23  H   UNL     1       4.044   6.097  18.068  0.00  0.00    +0.000 HD
BRANCH  22  24
ATOM     24  C   UNL     1       4.734   4.112  17.872  0.00  0.00    +0.000 C 
ATOM     25  C   UNL     1       5.150   3.774  16.433  0.00  0.00    +0.000 C 
ATOM     26  C   UNL     1       6.091   4.821  15.782  0.00  0.00    +0.000 C 
ATOM     27  C   UNL     1       5.270   6.067  15.357  0.00  0.00    +0.000 C 
ATOM     28  C   UNL     1       6.590   4.274  14.400  0.00  0.00    +0.000 C 
ATOM     29  N   UNL     1       7.238   5.207  16.675  0.00  0.00    +0.000 NA
ATOM     30  O   UNL     1       8.143   4.128  16.675  0.00  0.00    +0.000 OA
ATOM     31  C   UNL     1       6.920   5.504  18.106  0.00  0.00    +0.000 C 
ATOM     32  C   UNL     1       6.394   6.961  18.227  0.00  0.00    +0.000 C 
ATOM     33  C   UNL     1       8.196   5.568  19.019  0.00  0.00    +0.000 C 
ATOM     34  C   UNL     1       5.951   4.458  18.734  0.00  0.00    +0.000 C 
ENDBRANCH  22  24
ENDBRANCH  19  20
ENDBRANCH  18  19
ENDBRANCH   1  18
TORSDOF 9
ENDMDL
MODEL 9
REMARK VINA RESULT:      -7.2      1.239      1.406
REMARK  Name = 
REMARK  14 active torsions:
REMARK  status: ('A' for Active; 'I' for Inactive)
REMARK    1  A    between atoms: C_1  and  O_2
REMARK    2  A    between atoms: O_2  and  C_3
REMARK    3  A    between atoms: C_3  and  C_5
REMARK    4  A    between atoms: C_7  and  N_8
REMARK    5  A    between atoms: C_9  and  C_11
REMARK    6  A    between atoms: C_11  and  C_12
REMARK    7  A    between atoms: C_12  and  C_13
REMARK    8  A    between atoms: C_13  and  C_14
REMARK    9  A    between atoms: N_16  and  C_17
REMARK   10  A    between atoms: C_19  and  C_20
REMARK   11  A    between atoms: C_19  and  C_21
REMARK   12  A    between atoms: C_24  and  C_25
REMARK   13  A    between atoms: C_24  and  C_26
REMARK   14  A    between atoms: C_30  and  O_31
REMARK                            x       y       z     vdW  Elec       q    Type
REMARK                         _______ _______ _______ _____ _____    ______ ____
ROOT
ATOM      1  C   UNL     1       2.298   7.570  19.753  0.00  0.00    +0.000 C 
ENDROOT
BRANCH   1   3
ATOM      2  N   UNL     1       1.086   9.666  19.275  0.00  0.00    +0.000 N 
ATOM      3  C   UNL     1       1.236   8.581  20.127  0.00  0.00    +0.000 C 
ATOM      4  O   UNL     1       0.643   8.429  21.200  0.00  0.00    +0.000 OA
ATOM      5  H   UNL     1       1.703   9.722  18.460  0.00  0.00    +0.000 HD
BRANCH   2   8
ATOM      6  C   UNL     1      -2.010  11.783  19.103  0.00  0.00    +0.000 A 
ATOM      7  C   UNL     1      -1.095  10.732  18.902  0.00  0.00    +0.000 A 
ATOM      8  C   UNL     1       0.176  10.743  19.483  0.00  0.00    +0.000 A 
ATOM      9  C   UNL     1       0.527  11.846  20.268  0.00  0.00    +0.000 A 
ATOM     10  C   UNL     1      -0.381  12.899  20.491  0.00  0.00    +0.000 A 
ATOM     11  C   UNL     1      -1.647  12.863  19.907  0.00  0.00    +0.000 A 
BRANCH   6  12
ATOM     12  C   UNL     1      -3.343  11.716  18.458  0.00  0.00    +0.000 C 
ATOM     13  O   UNL     1      -4.397  11.925  19.018  0.00  0.00    +0.000 OA
BRANCH  12  15
ATOM     14  C   UNL     1      -4.432  11.206  16.445  0.00  0.00    +0.000 C 
ATOM     15  O   UNL     1      -3.199  11.379  17.146  0.00  0.00    +0.000 OA
ENDBRANCH  12  15
ENDBRANCH   6  12
BRANCH  11  16
ATOM     16  O   UNL     1      -2.526  13.871  20.181  0.00  0.00    +0.000 OA
ATOM     17  H   UNL     1      -2.801  14.300  19.356  0.00  0.00    +0.000 HD
ENDBRANCH  11  16
ENDBRANCH   2   8
ENDBRANCH   1   3
BRANCH   1  18
ATOM     18  C   UNL     1       2.215   7.311  18.246  0.00  0.00    +0.000 C 
BRANCH  18  19
ATOM     19  C   UNL     1       1.444   6.060  17.822  0.00  0.00    +0.000 C 
BRANCH  19  20
ATOM     20  C   UNL     1       2.309   4.815  17.890  0.00  0.00    +0.000 C 
ATOM     21  O   UNL     1       1.850   3.685  18.034  0.00  0.00    +0.000 OA
ATOM     22  N   UNL     1       3.644   5.090  17.782  0.00  0.00    +0.000 N 
ATOM     23  H   UNL     1       3.896   6.015  17.472  0.00  0.00    +0.000 HD
BRANCH  22  24
ATOM     24  C   UNL     1       4.712   4.090  17.760  0.00  0.00    +0.000 C 
ATOM     25  C   UNL     1       5.220   3.697  16.366  0.00  0.00    +0.000 C 
ATOM     26  C   UNL     1       6.157   4.746  15.713  0.00  0.00    +0.000 C 
ATOM     27  C   UNL     1       5.316   5.936  15.180  0.00  0.00    +0.000 C 
ATOM     28  C   UNL     1       6.754   4.151  14.391  0.00  0.00    +0.000 C 
ATOM     29  N   UNL     1       7.237   5.222  16.646  0.00  0.00    +0.000 NA
ATOM     30  O   UNL     1       8.179   4.181  16.752  0.00  0.00    +0.000 OA
ATOM     31  C   UNL     1       6.828   5.578  18.041  0.00  0.00    +0.000 C 
ATOM     32  C   UNL     1       6.243   7.016  18.056  0.00  0.00    +0.000 C 
ATOM     33  C   UNL     1       8.047   5.737  19.017  0.00  0.00    +0.000 C 
ATOM     34  C   UNL     1       5.864   4.526  18.668  0.00  0.00    +0.000 C 
ENDBRANCH  22  24
ENDBRANCH  19  20
ENDBRANCH  18  19
ENDBRANCH   1  18
TORSDOF 9
ENDMDL
