MODEL 1
REMARK VINA RESULT:      -7.3      0.000      0.000
REMARK  Name = 
REMARK  3 active torsions:
REMARK  status: ('A' for Active; 'I' for Inactive)
REMARK    1  A    between atoms: C_1  and  C_2
REMARK    2  A    between atoms: N_4  and  C_5
REMARK    3  A    between atoms: C_8  and  C_9
REMARK                            x       y       z     vdW  Elec       q    Type
REMARK                         _______ _______ _______ _____ _____    ______ ____
ROOT
ATOM      1  C   UNL     1       3.026   6.388  18.647  0.00  0.00    +0.000 A 
ATOM      2  C   UNL     1       2.498   6.047  19.891  0.00  0.00    +0.000 A 
ATOM      3  C   UNL     1       1.726   6.958  20.620  0.00  0.00    +0.000 A 
ATOM      4  C   UNL     1       1.449   8.249  20.142  0.00  0.00    +0.000 A 
ATOM      5  C   UNL     1       1.958   8.575  18.875  0.00  0.00    +0.000 A 
ATOM      6  C   UNL     1       2.733   7.661  18.141  0.00  0.00    +0.000 A 
ENDROOT
BRANCH   1  10
ATOM      7  C   UNL     1       7.138   4.572  16.842  0.00  0.00    +0.000 C 
ATOM      8  C   UNL     1       5.690   4.734  17.147  0.00  0.00    +0.000 C 
ATOM      9  N   UNL     1       5.189   5.738  17.794  0.00  0.00    +0.000 NA
ATOM     10  N   UNL     1       3.833   5.481  17.914  0.00  0.00    +0.000 N 
ATOM     11  C   UNL     1       3.437   4.265  17.329  0.00  0.00    +0.000 C 
ATOM     12  O   UNL     1       2.350   3.712  17.275  0.00  0.00    +0.000 OA
ATOM     13  C   UNL     1       4.685   3.719  16.711  0.00  0.00    +0.000 C 
ENDBRANCH   1  10
BRANCH   4  14
ATOM     14  C   UNL     1       0.659   9.200  20.958  0.00  0.00    +0.000 A 
ATOM     15  C   UNL     1       0.467   8.984  22.337  0.00  0.00    +0.000 A 
ATOM     16  C   UNL     1      -0.321   9.836  23.113  0.00  0.00    +0.000 A 
ATOM     17  C   UNL     1      -0.921  10.945  22.529  0.00  0.00    +0.000 A 
ATOM     18  C   UNL     1      -0.729  11.202  21.177  0.00  0.00    +0.000 A 
ATOM     19  C   UNL     1       0.049  10.337  20.398  0.00  0.00    +0.000 A 
ENDBRANCH   4  14
TORSDOF 2
ENDMDL
MODEL 2
REMARK VINA RESULT:      -7.3      2.572      8.092
REMARK  Name = 
REMARK  3 active torsions:
REMARK  status: ('A' for Active; 'I' for Inactive)
REMARK    1  A    between atoms: C_1  and  C_2
REMARK    2  A    between atoms: N_4  and  C_5
REMARK    3  A    between atoms: C_8  and  C_9
REMARK                            x       y       z     vdW  Elec       q    Type
REMARK                         _______ _______ _______ _____ _____    ______ ____
ROOT
ATOM      1  C   UNL     1       3.749   5.412  17.919  0.00  0.00    +0.000 A 
ATOM      2  C   UNL     1       3.912   4.116  17.434  0.00  0.00    +0.000 A 
ATOM      3  C   UNL     1       4.658   3.867  16.277  0.00  0.00    +0.000 A 
ATOM      4  C   UNL     1       5.272   4.901  15.551  0.00  0.00    +0.000 A 
ATOM      5  C   UNL     1       5.130   6.201  16.062  0.00  0.00    +0.000 A 
ATOM      6  C   UNL     1       4.382   6.452  17.226  0.00  0.00    +0.000 A 
ENDROOT
BRANCH   1  10
ATOM      7  C   UNL     1       1.205   8.116  21.030  0.00  0.00    +0.000 C 
ATOM      8  C   UNL     1       1.860   6.931  20.410  0.00  0.00    +0.000 C 
ATOM      9  N   UNL     1       2.612   6.983  19.356  0.00  0.00    +0.000 NA
ATOM     10  N   UNL     1       2.971   5.675  19.075  0.00  0.00    +0.000 N 
ATOM     11  C   UNL     1       2.431   4.737  19.974  0.00  0.00    +0.000 C 
ATOM     12  O   UNL     1       2.507   3.520  20.011  0.00  0.00    +0.000 OA
ATOM     13  C   UNL     1       1.692   5.562  20.979  0.00  0.00    +0.000 C 
ENDBRANCH   1  10
BRANCH   4  14
ATOM     14  C   UNL     1       6.024   4.606  14.310  0.00  0.00    +0.000 A 
ATOM     15  C   UNL     1       7.220   5.288  14.009  0.00  0.00    +0.000 A 
ATOM     16  C   UNL     1       7.914   5.066  12.818  0.00  0.00    +0.000 A 
ATOM     17  C   UNL     1       7.438   4.133  11.904  0.00  0.00    +0.000 A 
ATOM     18  C   UNL     1       6.276   3.424  12.183  0.00  0.00    +0.000 A 
ATOM     19  C   UNL     1       5.574   3.660  13.372  0.00  0.00    +0.000 A 
ENDBRANCH   4  14
TORSDOF 2
ENDMDL
MODEL 3
REMARK VINA RESULT:      -7.2      0.199      1.100
REMARK  Name = 
REMARK  3 active torsions:
REMARK  status: ('A' for Active; 'I' for Inactive)
REMARK    1  A    between atoms: C_1  and  C_2
REMARK    2  A    between atoms: N_4  and  C_5
REMARK    3  A    between atoms: C_8  and  C_9
REMARK                            x       y       z     vdW  Elec       q    Type
REMARK                         _______ _______ _______ _____ _____    ______ ____
ROOT
ATOM      1  C   UNL     1       2.983   6.467  18.671  0.00  0.00    +0.000 A 
ATOM      2  C   UNL     1       2.491   6.151  19.935  0.00  0.00    +0.000 A 
ATOM      3  C   UNL     1       1.719   7.067  20.657  0.00  0.00    +0.000 A 
ATOM      4  C   UNL     1       1.407   8.340  20.151  0.00  0.00    +0.000 A 
ATOM      5  C   UNL     1       1.880   8.639  18.864  0.00  0.00    +0.000 A 
ATOM      6  C   UNL     1       2.654   7.719  18.136  0.00  0.00    +0.000 A 
ENDROOT
BRANCH   1  10
ATOM      7  C   UNL     1       7.092   4.648  16.861  0.00  0.00    +0.000 C 
ATOM      8  C   UNL     1       5.645   4.807  17.172  0.00  0.00    +0.000 C 
ATOM      9  N   UNL     1       5.143   5.816  17.811  0.00  0.00    +0.000 NA
ATOM     10  N   UNL     1       3.790   5.554  17.943  0.00  0.00    +0.000 N 
ATOM     11  C   UNL     1       3.395   4.329  17.376  0.00  0.00    +0.000 C 
ATOM     12  O   UNL     1       2.311   3.771  17.336  0.00  0.00    +0.000 OA
ATOM     13  C   UNL     1       4.643   3.782  16.756  0.00  0.00    +0.000 C 
ENDBRANCH   1  10
BRANCH   4  14
ATOM     14  C   UNL     1       0.618   9.298  20.959  0.00  0.00    +0.000 A 
ATOM     15  C   UNL     1       0.319  10.584  20.467  0.00  0.00    +0.000 A 
ATOM     16  C   UNL     1      -0.374  11.523  21.234  0.00  0.00    +0.000 A 
ATOM     17  C   UNL     1      -0.807  11.188  22.511  0.00  0.00    +0.000 A 
ATOM     18  C   UNL     1      -0.551   9.918  23.016  0.00  0.00    +0.000 A 
ATOM     19  C   UNL     1       0.157   8.984  22.250  0.00  0.00    +0.000 A 
ENDBRANCH   4  14
TORSDOF 2
ENDMDL
MODEL 4
REMARK VINA RESULT:      -7.2      3.591      8.188
REMARK  Name = 
REMARK  3 active torsions:
REMARK  status: ('A' for Active; 'I' for Inactive)
REMARK    1  A    between atoms: C_1  and  C_2
REMARK    2  A    between atoms: N_4  and  C_5
REMARK    3  A    between atoms: C_8  and  C_9
REMARK                            x       y       z     vdW  Elec       q    Type
REMARK                         _______ _______ _______ _____ _____    ______ ____
ROOT
ATOM      1  C   UNL     1       3.772   4.549  17.980  0.00  0.00    +0.000 A 
ATOM      2  C   UNL     1       4.148   3.350  17.378  0.00  0.00    +0.000 A 
ATOM      3  C   UNL     1       4.897   3.341  16.196  0.00  0.00    +0.000 A 
ATOM      4  C   UNL     1       5.303   4.528  15.563  0.00  0.00    +0.000 A 
ATOM      5  C   UNL     1       4.947   5.731  16.192  0.00  0.00    +0.000 A 
ATOM      6  C   UNL     1       4.196   5.742  17.380  0.00  0.00    +0.000 A 
ENDROOT
BRANCH   1  10
ATOM      7  C   UNL     1       1.508   2.671  21.828  0.00  0.00    +0.000 C 
ATOM      8  C   UNL     1       2.009   3.668  20.843  0.00  0.00    +0.000 C 
ATOM      9  N   UNL     1       2.657   3.364  19.764  0.00  0.00    +0.000 NA
ATOM     10  N   UNL     1       2.989   4.567  19.163  0.00  0.00    +0.000 N 
ATOM     11  C   UNL     1       2.546   5.695  19.877  0.00  0.00    +0.000 C 
ATOM     12  O   UNL     1       2.685   6.889  19.666  0.00  0.00    +0.000 OA
ATOM     13  C   UNL     1       1.789   5.132  21.038  0.00  0.00    +0.000 C 
ENDBRANCH   1  10
BRANCH   4  14
ATOM     14  C   UNL     1       6.064   4.481  14.293  0.00  0.00    +0.000 A 
ATOM     15  C   UNL     1       5.651   3.649  13.233  0.00  0.00    +0.000 A 
ATOM     16  C   UNL     1       6.385   3.546  12.049  0.00  0.00    +0.000 A 
ATOM     17  C   UNL     1       7.543   4.295  11.887  0.00  0.00    +0.000 A 
ATOM     18  C   UNL     1       7.963   5.146  12.904  0.00  0.00    +0.000 A 
ATOM     19  C   UNL     1       7.234   5.235  14.096  0.00  0.00    +0.000 A 
ENDBRANCH   4  14
TORSDOF 2
ENDMDL
MODEL 5
REMARK VINA RESULT:      -7.2      3.506      8.184
REMARK  Name = 
REMARK  3 active torsions:
REMARK  status: ('A' for Active; 'I' for Inactive)
REMARK    1  A    between atoms: C_1  and  C_2
REMARK    2  A    between atoms: N_4  and  C_5
REMARK    3  A    between atoms: C_8  and  C_9
REMARK                            x       y       z     vdW  Elec       q    Type
REMARK                         _______ _______ _______ _____ _____    ______ ____
ROOT
ATOM      1  C   UNL     1       3.782   4.617  17.951  0.00  0.00    +0.000 A 
ATOM      2  C   UNL     1       3.998   3.420  17.272  0.00  0.00    +0.000 A 
ATOM      3  C   UNL     1       4.764   3.384  16.102  0.00  0.00    +0.000 A 
ATOM      4  C   UNL     1       5.346   4.540  15.557  0.00  0.00    +0.000 A 
ATOM      5  C   UNL     1       5.150   5.737  16.263  0.00  0.00    +0.000 A 
ATOM      6  C   UNL     1       4.382   5.775  17.440  0.00  0.00    +0.000 A 
ENDROOT
BRANCH   1  10
ATOM      7  C   UNL     1       1.555   2.862  21.879  0.00  0.00    +0.000 C 
ATOM      8  C   UNL     1       2.023   3.823  20.843  0.00  0.00    +0.000 C 
ATOM      9  N   UNL     1       2.699   3.488  19.789  0.00  0.00    +0.000 NA
ATOM     10  N   UNL     1       2.983   4.668  19.122  0.00  0.00    +0.000 N 
ATOM     11  C   UNL     1       2.480   5.813  19.765  0.00  0.00    +0.000 C 
ATOM     12  O   UNL     1       2.569   6.998  19.487  0.00  0.00    +0.000 OA
ATOM     13  C   UNL     1       1.735   5.284  20.950  0.00  0.00    +0.000 C 
ENDBRANCH   1  10
BRANCH   4  14
ATOM     14  C   UNL     1       6.120   4.470  14.296  0.00  0.00    +0.000 A 
ATOM     15  C   UNL     1       7.235   5.306  14.085  0.00  0.00    +0.000 A 
ATOM     16  C   UNL     1       7.944   5.297  12.882  0.00  0.00    +0.000 A 
ATOM     17  C   UNL     1       7.568   4.429  11.864  0.00  0.00    +0.000 A 
ATOM     18  C   UNL     1       6.490   3.572  12.051  0.00  0.00    +0.000 A 
ATOM     19  C   UNL     1       5.771   3.595  13.253  0.00  0.00    +0.000 A 
ENDBRANCH   4  14
TORSDOF 2
ENDMDL
MODEL 6
REMARK VINA RESULT:      -7.2      3.098      7.673
REMARK  Name = 
REMARK  3 active torsions:
REMARK  status: ('A' for Active; 'I' for Inactive)
REMARK    1  A    between atoms: C_1  and  C_2
REMARK    2  A    between atoms: N_4  and  C_5
REMARK    3  A    between atoms: C_8  and  C_9
REMARK                            x       y       z     vdW  Elec       q    Type
REMARK                         _______ _______ _______ _____ _____    ______ ____
ROOT
ATOM      1  C   UNL     1       1.139   9.083  19.876  0.00  0.00    +0.000 A 
ATOM      2  C   UNL     1       1.482   9.311  18.545  0.00  0.00    +0.000 A 
ATOM      3  C   UNL     1       2.254   8.389  17.831  0.00  0.00    +0.000 A 
ATOM      4  C   UNL     1       2.721   7.199  18.414  0.00  0.00    +0.000 A 
ATOM      5  C   UNL     1       2.346   6.961  19.746  0.00  0.00    +0.000 A 
ATOM      6  C   UNL     1       1.569   7.886  20.464  0.00  0.00    +0.000 A 
ENDROOT
BRANCH   1  10
ATOM      7  C   UNL     1      -2.209  12.514  20.568  0.00  0.00    +0.000 C 
ATOM      8  C   UNL     1      -1.117  11.542  20.848  0.00  0.00    +0.000 C 
ATOM      9  N   UNL     1      -0.519  10.836  19.941  0.00  0.00    +0.000 NA
ATOM     10  N   UNL     1       0.380  10.026  20.615  0.00  0.00    +0.000 N 
ATOM     11  C   UNL     1       0.365  10.206  22.010  0.00  0.00    +0.000 C 
ATOM     12  O   UNL     1       0.985   9.650  22.902  0.00  0.00    +0.000 OA
ATOM     13  C   UNL     1      -0.621  11.308  22.236  0.00  0.00    +0.000 C 
ENDBRANCH   1  10
BRANCH   4  14
ATOM     14  C   UNL     1       3.568   6.263  17.640  0.00  0.00    +0.000 A 
ATOM     15  C   UNL     1       4.606   6.741  16.814  0.00  0.00    +0.000 A 
ATOM     16  C   UNL     1       5.379   5.880  16.032  0.00  0.00    +0.000 A 
ATOM     17  C   UNL     1       5.147   4.511  16.075  0.00  0.00    +0.000 A 
ATOM     18  C   UNL     1       4.148   4.005  16.899  0.00  0.00    +0.000 A 
ATOM     19  C   UNL     1       3.365   4.872  17.671  0.00  0.00    +0.000 A 
ENDBRANCH   4  14
TORSDOF 2
ENDMDL
MODEL 7
REMARK VINA RESULT:      -7.2      0.512      1.210
REMARK  Name = 
REMARK  3 active torsions:
REMARK  status: ('A' for Active; 'I' for Inactive)
REMARK    1  A    between atoms: C_1  and  C_2
REMARK    2  A    between atoms: N_4  and  C_5
REMARK    3  A    between atoms: C_8  and  C_9
REMARK                            x       y       z     vdW  Elec       q    Type
REMARK                         _______ _______ _______ _____ _____    ______ ____
ROOT
ATOM      1  C   UNL     1       2.660   6.525  18.732  0.00  0.00    +0.000 A 
ATOM      2  C   UNL     1       2.383   7.795  18.231  0.00  0.00    +0.000 A 
ATOM      3  C   UNL     1       1.697   8.739  19.003  0.00  0.00    +0.000 A 
ATOM      4  C   UNL     1       1.256   8.458  20.306  0.00  0.00    +0.000 A 
ATOM      5  C   UNL     1       1.566   7.187  20.816  0.00  0.00    +0.000 A 
ATOM      6  C   UNL     1       2.256   6.237  20.042  0.00  0.00    +0.000 A 
ENDROOT
BRANCH   1  10
ATOM      7  C   UNL     1       6.437   4.428  16.541  0.00  0.00    +0.000 C 
ATOM      8  C   UNL     1       5.044   4.679  17.002  0.00  0.00    +0.000 C 
ATOM      9  N   UNL     1       4.673   5.729  17.664  0.00  0.00    +0.000 NA
ATOM     10  N   UNL     1       3.329   5.551  17.947  0.00  0.00    +0.000 N 
ATOM     11  C   UNL     1       2.806   4.341  17.457  0.00  0.00    +0.000 C 
ATOM     12  O   UNL     1       1.693   3.848  17.548  0.00  0.00    +0.000 OA
ATOM     13  C   UNL     1       3.945   3.708  16.722  0.00  0.00    +0.000 C 
ENDBRANCH   1  10
BRANCH   4  14
ATOM     14  C   UNL     1       0.501   9.470  21.080  0.00  0.00    +0.000 A 
ATOM     15  C   UNL     1       0.065   9.199  22.393  0.00  0.00    +0.000 A 
ATOM     16  C   UNL     1      -0.697  10.116  23.119  0.00  0.00    +0.000 A 
ATOM     17  C   UNL     1      -1.023  11.344  22.556  0.00  0.00    +0.000 A 
ATOM     18  C   UNL     1      -0.585  11.653  21.273  0.00  0.00    +0.000 A 
ATOM     19  C   UNL     1       0.166  10.724  20.541  0.00  0.00    +0.000 A 
ENDBRANCH   4  14
TORSDOF 2
ENDMDL
MODEL 8
REMARK VINA RESULT:      -7.2      0.504      1.623
REMARK  Name = 
REMARK  3 active torsions:
REMARK  status: ('A' for Active; 'I' for Inactive)
REMARK    1  A    between atoms: C_1  and  C_2
REMARK    2  A    between atoms: N_4  and  C_5
REMARK    3  A    between atoms: C_8  and  C_9
REMARK                            x       y       z     vdW  Elec       q    Type
REMARK                         _______ _______ _______ _____ _____    ______ ____
ROOT
ATOM      1  C   UNL     1       2.679   6.584  18.804  0.00  0.00    +0.000 A 
ATOM      2  C   UNL     1       2.393   7.853  18.303  0.00  0.00    +0.000 A 
ATOM      3  C   UNL     1       1.670   8.780  19.060  0.00  0.00    +0.000 A 
ATOM      4  C   UNL     1       1.197   8.482  20.349  0.00  0.00    +0.000 A 
ATOM      5  C   UNL     1       1.515   7.214  20.859  0.00  0.00    +0.000 A 
ATOM      6  C   UNL     1       2.243   6.281  20.100  0.00  0.00    +0.000 A 
ENDROOT
BRANCH   1  10
ATOM      7  C   UNL     1       6.568   4.508  16.797  0.00  0.00    +0.000 C 
ATOM      8  C   UNL     1       5.150   4.763  17.173  0.00  0.00    +0.000 C 
ATOM      9  N   UNL     1       4.749   5.796  17.844  0.00  0.00    +0.000 NA
ATOM     10  N   UNL     1       3.387   5.628  18.032  0.00  0.00    +0.000 N 
ATOM     11  C   UNL     1       2.883   4.442  17.468  0.00  0.00    +0.000 C 
ATOM     12  O   UNL     1       1.761   3.962  17.468  0.00  0.00    +0.000 OA
ATOM     13  C   UNL     1       4.061   3.818  16.789  0.00  0.00    +0.000 C 
ENDBRANCH   1  10
BRANCH   4  14
ATOM     14  C   UNL     1       0.403   9.476  21.107  0.00  0.00    +0.000 A 
ATOM     15  C   UNL     1       0.094  10.733  20.550  0.00  0.00    +0.000 A 
ATOM     16  C   UNL     1      -0.604  11.706  21.268  0.00  0.00    +0.000 A 
ATOM     17  C   UNL     1      -1.034  11.434  22.561  0.00  0.00    +0.000 A 
ATOM     18  C   UNL     1      -0.770  10.193  23.130  0.00  0.00    +0.000 A 
ATOM     19  C   UNL     1      -0.055   9.226  22.413  0.00  0.00    +0.000 A 
ENDBRANCH   4  14
TORSDOF 2
ENDMDL
MODEL 9
REMARK VINA RESULT:      -7.2      3.095      7.595
REMARK  Name = 
REMARK  3 active torsions:
REMARK  status: ('A' for Active; 'I' for Inactive)
REMARK    1  A    between atoms: C_1  and  C_2
REMARK    2  A    between atoms: N_4  and  C_5
REMARK    3  A    between atoms: C_8  and  C_9
REMARK                            x       y       z     vdW  Elec       q    Type
REMARK                         _______ _______ _______ _____ _____    ______ ____
ROOT
ATOM      1  C   UNL     1       1.177   9.126  19.826  0.00  0.00    +0.000 A 
ATOM      2  C   UNL     1       1.600   7.933  20.410  0.00  0.00    +0.000 A 
ATOM      3  C   UNL     1       2.376   7.016  19.693  0.00  0.00    +0.000 A 
ATOM      4  C   UNL     1       2.762   7.246  18.362  0.00  0.00    +0.000 A 
ATOM      5  C   UNL     1       2.358   8.464  17.791  0.00  0.00    +0.000 A 
ATOM      6  C   UNL     1       1.580   9.387  18.510  0.00  0.00    +0.000 A 
ENDROOT
BRANCH   1  10
ATOM      7  C   UNL     1      -2.300  12.449  20.398  0.00  0.00    +0.000 C 
ATOM      8  C   UNL     1      -1.185  11.515  20.716  0.00  0.00    +0.000 C 
ATOM      9  N   UNL     1      -0.539  10.823  19.832  0.00  0.00    +0.000 NA
ATOM     10  N   UNL     1       0.367  10.048  20.536  0.00  0.00    +0.000 N 
ATOM     11  C   UNL     1       0.308  10.239  21.929  0.00  0.00    +0.000 C 
ATOM     12  O   UNL     1       0.922   9.710  22.842  0.00  0.00    +0.000 OA
ATOM     13  C   UNL     1      -0.720  11.309  22.119  0.00  0.00    +0.000 C 
ENDBRANCH   1  10
BRANCH   4  14
ATOM     14  C   UNL     1       3.552   6.236  17.622  0.00  0.00    +0.000 A 
ATOM     15  C   UNL     1       4.610   6.623  16.776  0.00  0.00    +0.000 A 
ATOM     16  C   UNL     1       5.331   5.693  16.025  0.00  0.00    +0.000 A 
ATOM     17  C   UNL     1       5.025   4.341  16.121  0.00  0.00    +0.000 A 
ATOM     18  C   UNL     1       4.004   3.923  16.967  0.00  0.00    +0.000 A 
ATOM     19  C   UNL     1       3.272   4.861  17.707  0.00  0.00    +0.000 A 
ENDBRANCH   4  14
TORSDOF 2
ENDMDL
