MODEL 1
REMARK VINA RESULT:      -8.0      0.000      0.000
REMARK  Name = 
REMARK  7 active torsions:
REMARK  status: ('A' for Active; 'I' for Inactive)
REMARK    1  A    between atoms: C_1  and  C_2
REMARK    2  A    between atoms: C_5  and  N_6
REMARK    3  A    between atoms: C_7  and  C_9
REMARK    4  A    between atoms: C_12  and  O_13
REMARK    5  A    between atoms: C_17  and  S_18
REMARK    6  A    between atoms: S_18  and  N_21
REMARK    7  A    between atoms: N_21  and  C_22
REMARK                            x       y       z     vdW  Elec       q    Type
REMARK                         _______ _______ _______ _____ _____    ______ ____
ROOT
ATOM      1  C   UNL     1       0.075   9.019  22.198  0.00  0.00    +0.000 C 
ATOM      2  C   UNL     1       0.863   8.430  21.062  0.00  0.00    +0.000 A 
ATOM      3  C   UNL     1       1.371   7.138  21.244  0.00  0.00    +0.000 A 
ATOM      4  C   UNL     1       2.113   6.501  20.249  0.00  0.00    +0.000 A 
ATOM      5  C   UNL     1       2.380   7.131  19.035  0.00  0.00    +0.000 A 
ATOM      6  C   UNL     1       1.925   8.438  18.852  0.00  0.00    +0.000 A 
ATOM      7  C   UNL     1       1.146   9.082  19.844  0.00  0.00    +0.000 A 
ENDROOT
BRANCH   5   8
ATOM      8  N   UNL     1       3.090   6.496  17.988  0.00  0.00    +0.000 N 
ATOM      9  C   UNL     1       4.305   5.838  18.141  0.00  0.00    +0.000 C 
ATOM     10  O   UNL     1       4.915   5.682  19.198  0.00  0.00    +0.000 OA
ATOM     11  H   UNL     1       2.646   6.435  17.075  0.00  0.00    +0.000 HD
BRANCH   9  12
ATOM     12  C   UNL     1       4.896   5.231  16.920  0.00  0.00    +0.000 A 
ATOM     13  C   UNL     1       5.246   6.051  15.853  0.00  0.00    +0.000 A 
ATOM     14  C   UNL     1       5.797   5.474  14.717  0.00  0.00    +0.000 A 
ATOM     15  C   UNL     1       5.965   4.104  14.713  0.00  0.00    +0.000 A 
ATOM     16  N   UNL     1       5.626   3.325  15.762  0.00  0.00    +0.000 NA
ATOM     17  N   UNL     1       5.081   3.892  16.890  0.00  0.00    +0.000 NA
BRANCH  15  18
ATOM     18  O   UNL     1       6.491   3.466  13.629  0.00  0.00    +0.000 OA
ATOM     19  H   UNL     1       6.986   2.693  13.941  0.00  0.00    +0.000 HD
ENDBRANCH  15  18
ENDBRANCH   9  12
ENDBRANCH   5   8
BRANCH   7  20
ATOM     20  S   UNL     1       0.662  10.771  19.500  0.00  0.00    +0.000 S 
ATOM     21  O   UNL     1       1.221  11.636  20.515  0.00  0.00    +0.000 OA
ATOM     22  O   UNL     1       0.922  11.025  18.102  0.00  0.00    +0.000 OA
BRANCH  20  23
ATOM     23  N   UNL     1      -1.017  10.785  19.770  0.00  0.00    +0.000 N 
ATOM     24  H   UNL     1      -1.216  11.536  20.437  0.00  0.00    +0.000 HD
BRANCH  23  25
ATOM     25  C   UNL     1      -1.872  10.778  18.613  0.00  0.00    +0.000 A 
ATOM     26  C   UNL     1      -1.532   9.943  17.548  0.00  0.00    +0.000 A 
ATOM     27  C   UNL     1      -2.322   9.918  16.396  0.00  0.00    +0.000 A 
ATOM     28  C   UNL     1      -3.451  10.731  16.303  0.00  0.00    +0.000 A 
ATOM     29  C   UNL     1      -3.795  11.573  17.362  0.00  0.00    +0.000 A 
ATOM     30  C   UNL     1      -3.005  11.600  18.516  0.00  0.00    +0.000 A 
ATOM     31 CL   UNL     1      -3.491  12.625  19.819  0.00  0.00    +0.000 Cl
ENDBRANCH  23  25
ENDBRANCH  20  23
ENDBRANCH   7  20
TORSDOF 6
ENDMDL
MODEL 2
REMARK VINA RESULT:      -8.0      1.091      1.133
REMARK  Name = 
REMARK  7 active torsions:
REMARK  status: ('A' for Active; 'I' for Inactive)
REMARK    1  A    between atoms: C_1  and  C_2
REMARK    2  A    between atoms: C_5  and  N_6
REMARK    3  A    between atoms: C_7  and  C_9
REMARK    4  A    between atoms: C_12  and  O_13
REMARK    5  A    between atoms: C_17  and  S_18
REMARK    6  A    between atoms: S_18  and  N_21
REMARK    7  A    between atoms: N_21  and  C_22
REMARK                            x       y       z     vdW  Elec       q    Type
REMARK                         _______ _______ _______ _____ _____    ______ ____
ROOT
ATOM      1  C   UNL     1       0.383   8.248  21.816  0.00  0.00    +0.000 C 
ATOM      2  C   UNL     1       1.235   7.841  20.646  0.00  0.00    +0.000 A 
ATOM      3  C   UNL     1       1.855   6.587  20.718  0.00  0.00    +0.000 A 
ATOM      4  C   UNL     1       2.663   6.116  19.683  0.00  0.00    +0.000 A 
ATOM      5  C   UNL     1       2.885   6.878  18.538  0.00  0.00    +0.000 A 
ATOM      6  C   UNL     1       2.317   8.151  18.468  0.00  0.00    +0.000 A 
ATOM      7  C   UNL     1       1.471   8.627  19.500  0.00  0.00    +0.000 A 
ENDROOT
BRANCH   5   8
ATOM      8  N   UNL     1       3.662   6.410  17.452  0.00  0.00    +0.000 N 
ATOM      9  C   UNL     1       4.989   6.008  17.542  0.00  0.00    +0.000 C 
ATOM     10  O   UNL     1       5.664   5.967  18.571  0.00  0.00    +0.000 OA
ATOM     11  H   UNL     1       3.200   6.270  16.556  0.00  0.00    +0.000 HD
BRANCH   9  12
ATOM     12  C   UNL     1       5.637   5.544  16.286  0.00  0.00    +0.000 A 
ATOM     13  C   UNL     1       4.951   4.671  15.450  0.00  0.00    +0.000 A 
ATOM     14  C   UNL     1       5.564   4.244  14.280  0.00  0.00    +0.000 A 
ATOM     15  C   UNL     1       6.833   4.715  14.015  0.00  0.00    +0.000 A 
ATOM     16  N   UNL     1       7.481   5.569  14.836  0.00  0.00    +0.000 NA
ATOM     17  N   UNL     1       6.877   5.996  15.995  0.00  0.00    +0.000 NA
BRANCH  15  18
ATOM     18  O   UNL     1       7.503   4.331  12.890  0.00  0.00    +0.000 OA
ATOM     19  H   UNL     1       8.397   4.057  13.146  0.00  0.00    +0.000 HD
ENDBRANCH  15  18
ENDBRANCH   9  12
ENDBRANCH   5   8
BRANCH   7  20
ATOM     20  S   UNL     1       0.841  10.291  19.303  0.00  0.00    +0.000 S 
ATOM     21  O   UNL     1       1.338  11.113  20.386  0.00  0.00    +0.000 OA
ATOM     22  O   UNL     1       1.060  10.684  17.931  0.00  0.00    +0.000 OA
BRANCH  20  23
ATOM     23  N   UNL     1      -0.829  10.139  19.584  0.00  0.00    +0.000 N 
ATOM     24  H   UNL     1      -1.046  10.649  20.444  0.00  0.00    +0.000 HD
BRANCH  23  25
ATOM     25  C   UNL     1      -1.712  10.426  18.484  0.00  0.00    +0.000 A 
ATOM     26  C   UNL     1      -1.560   9.690  17.308  0.00  0.00    +0.000 A 
ATOM     27  C   UNL     1      -2.382   9.949  16.208  0.00  0.00    +0.000 A 
ATOM     28  C   UNL     1      -3.354  10.946  16.279  0.00  0.00    +0.000 A 
ATOM     29  C   UNL     1      -3.509  11.690  17.450  0.00  0.00    +0.000 A 
ATOM     30  C   UNL     1      -2.686  11.433  18.553  0.00  0.00    +0.000 A 
ATOM     31 CL   UNL     1      -2.941  12.347  19.996  0.00  0.00    +0.000 Cl
ENDBRANCH  23  25
ENDBRANCH  20  23
ENDBRANCH   7  20
TORSDOF 6
ENDMDL
MODEL 3
REMARK VINA RESULT:      -7.9      4.253      8.941
REMARK  Name = 
REMARK  7 active torsions:
REMARK  status: ('A' for Active; 'I' for Inactive)
REMARK    1  A    between atoms: C_1  and  C_2
REMARK    2  A    between atoms: C_5  and  N_6
REMARK    3  A    between atoms: C_7  and  C_9
REMARK    4  A    between atoms: C_12  and  O_13
REMARK    5  A    between atoms: C_17  and  S_18
REMARK    6  A    between atoms: S_18  and  N_21
REMARK    7  A    between atoms: N_21  and  C_22
REMARK                            x       y       z     vdW  Elec       q    Type
REMARK                         _______ _______ _______ _____ _____    ______ ____
ROOT
ATOM      1  C   UNL     1       3.761   1.646  19.481  0.00  0.00    +0.000 C 
ATOM      2  C   UNL     1       3.119   2.950  19.863  0.00  0.00    +0.000 A 
ATOM      3  C   UNL     1       2.628   3.058  21.170  0.00  0.00    +0.000 A 
ATOM      4  C   UNL     1       2.019   4.228  21.624  0.00  0.00    +0.000 A 
ATOM      5  C   UNL     1       1.874   5.335  20.790  0.00  0.00    +0.000 A 
ATOM      6  C   UNL     1       2.311   5.231  19.468  0.00  0.00    +0.000 A 
ATOM      7  C   UNL     1       2.958   4.059  19.007  0.00  0.00    +0.000 A 
ENDROOT
BRANCH   5   8
ATOM      8  N   UNL     1       1.302   6.551  21.233  0.00  0.00    +0.000 N 
ATOM      9  C   UNL     1       1.484   7.783  20.616  0.00  0.00    +0.000 C 
ATOM     10  O   UNL     1       2.130   7.989  19.589  0.00  0.00    +0.000 OA
ATOM     11  H   UNL     1       0.638   6.518  22.003  0.00  0.00    +0.000 HD
BRANCH   9  12
ATOM     12  C   UNL     1       0.797   8.950  21.232  0.00  0.00    +0.000 A 
ATOM     13  C   UNL     1       0.227   8.815  22.493  0.00  0.00    +0.000 A 
ATOM     14  C   UNL     1      -0.412   9.910  23.059  0.00  0.00    +0.000 A 
ATOM     15  C   UNL     1      -0.446  11.079  22.327  0.00  0.00    +0.000 A 
ATOM     16  N   UNL     1       0.120  11.192  21.106  0.00  0.00    +0.000 NA
ATOM     17  N   UNL     1       0.756  10.111  20.542  0.00  0.00    +0.000 NA
BRANCH  15  18
ATOM     18  O   UNL     1      -1.065  12.193  22.814  0.00  0.00    +0.000 OA
ATOM     19  H   UNL     1      -1.130  12.843  22.097  0.00  0.00    +0.000 HD
ENDBRANCH  15  18
ENDBRANCH   9  12
ENDBRANCH   5   8
BRANCH   7  20
ATOM     20  S   UNL     1       3.433   4.043  17.281  0.00  0.00    +0.000 S 
ATOM     21  O   UNL     1       2.753   2.953  16.616  0.00  0.00    +0.000 OA
ATOM     22  O   UNL     1       3.310   5.392  16.779  0.00  0.00    +0.000 OA
BRANCH  20  23
ATOM     23  N   UNL     1       5.075   3.602  17.306  0.00  0.00    +0.000 N 
ATOM     24  H   UNL     1       5.273   3.098  16.437  0.00  0.00    +0.000 HD
BRANCH  23  25
ATOM     25  C   UNL     1       6.030   4.629  17.627  0.00  0.00    +0.000 A 
ATOM     26  C   UNL     1       6.420   4.772  18.959  0.00  0.00    +0.000 A 
ATOM     27  C   UNL     1       7.331   5.769  19.319  0.00  0.00    +0.000 A 
ATOM     28  C   UNL     1       7.849   6.629  18.351  0.00  0.00    +0.000 A 
ATOM     29  C   UNL     1       7.459   6.495  17.017  0.00  0.00    +0.000 A 
ATOM     30  C   UNL     1       6.547   5.497  16.654  0.00  0.00    +0.000 A 
ATOM     31 CL   UNL     1       6.126   5.340  14.987  0.00  0.00    +0.000 Cl
ENDBRANCH  23  25
ENDBRANCH  20  23
ENDBRANCH   7  20
TORSDOF 6
ENDMDL
MODEL 4
REMARK VINA RESULT:      -7.9      3.555      8.703
REMARK  Name = 
REMARK  7 active torsions:
REMARK  status: ('A' for Active; 'I' for Inactive)
REMARK    1  A    between atoms: C_1  and  C_2
REMARK    2  A    between atoms: C_5  and  N_6
REMARK    3  A    between atoms: C_7  and  C_9
REMARK    4  A    between atoms: C_12  and  O_13
REMARK    5  A    between atoms: C_17  and  S_18
REMARK    6  A    between atoms: S_18  and  N_21
REMARK    7  A    between atoms: N_21  and  C_22
REMARK                            x       y       z     vdW  Elec       q    Type
REMARK                         _______ _______ _______ _____ _____    ______ ____
ROOT
ATOM      1  C   UNL     1       4.542   2.773  20.098  0.00  0.00    +0.000 C 
ATOM      2  C   UNL     1       3.836   4.084  19.898  0.00  0.00    +0.000 A 
ATOM      3  C   UNL     1       2.463   4.114  20.173  0.00  0.00    +0.000 A 
ATOM      4  C   UNL     1       1.716   5.283  20.022  0.00  0.00    +0.000 A 
ATOM      5  C   UNL     1       2.310   6.466  19.588  0.00  0.00    +0.000 A 
ATOM      6  C   UNL     1       3.667   6.446  19.261  0.00  0.00    +0.000 A 
ATOM      7  C   UNL     1       4.440   5.272  19.439  0.00  0.00    +0.000 A 
ENDROOT
BRANCH   5   8
ATOM      8  N   UNL     1       1.591   7.679  19.469  0.00  0.00    +0.000 N 
ATOM      9  C   UNL     1       1.284   8.526  20.527  0.00  0.00    +0.000 C 
ATOM     10  O   UNL     1       1.618   8.366  21.701  0.00  0.00    +0.000 OA
ATOM     11  H   UNL     1       1.354   8.007  18.535  0.00  0.00    +0.000 HD
BRANCH   9  12
ATOM     12  C   UNL     1       0.519   9.758  20.200  0.00  0.00    +0.000 A 
ATOM     13  C   UNL     1       0.409  10.158  18.873  0.00  0.00    +0.000 A 
ATOM     14  C   UNL     1      -0.306  11.310  18.578  0.00  0.00    +0.000 A 
ATOM     15  C   UNL     1      -0.871  12.000  19.632  0.00  0.00    +0.000 A 
ATOM     16  N   UNL     1      -0.759  11.592  20.914  0.00  0.00    +0.000 NA
ATOM     17  N   UNL     1      -0.052  10.450  21.211  0.00  0.00    +0.000 NA
BRANCH  15  18
ATOM     18  O   UNL     1      -1.580  13.146  19.420  0.00  0.00    +0.000 OA
ATOM     19  H   UNL     1      -0.992  13.901  19.578  0.00  0.00    +0.000 HD
ENDBRANCH  15  18
ENDBRANCH   9  12
ENDBRANCH   5   8
BRANCH   7  20
ATOM     20  S   UNL     1       6.157   5.372  18.943  0.00  0.00    +0.000 S 
ATOM     21  O   UNL     1       6.329   6.513  18.071  0.00  0.00    +0.000 OA
ATOM     22  O   UNL     1       6.966   5.234  20.131  0.00  0.00    +0.000 OA
BRANCH  20  23
ATOM     23  N   UNL     1       6.382   4.009  17.951  0.00  0.00    +0.000 N 
ATOM     24  H   UNL     1       5.790   3.259  18.317  0.00  0.00    +0.000 HD
BRANCH  23  25
ATOM     25  C   UNL     1       6.281   4.204  16.529  0.00  0.00    +0.000 A 
ATOM     26  C   UNL     1       7.426   4.597  15.835  0.00  0.00    +0.000 A 
ATOM     27  C   UNL     1       7.369   4.817  14.456  0.00  0.00    +0.000 A 
ATOM     28  C   UNL     1       6.168   4.650  13.768  0.00  0.00    +0.000 A 
ATOM     29  C   UNL     1       5.017   4.261  14.456  0.00  0.00    +0.000 A 
ATOM     30  C   UNL     1       5.071   4.041  15.837  0.00  0.00    +0.000 A 
ATOM     31 CL   UNL     1       3.634   3.520  16.641  0.00  0.00    +0.000 Cl
ENDBRANCH  23  25
ENDBRANCH  20  23
ENDBRANCH   7  20
TORSDOF 6
ENDMDL
MODEL 5
REMARK VINA RESULT:      -7.9      2.289      3.088
REMARK  Name = 
REMARK  7 active torsions:
REMARK  status: ('A' for Active; 'I' for Inactive)
REMARK    1  A    between atoms: C_1  and  C_2
REMARK    2  A    between atoms: C_5  and  N_6
REMARK    3  A    between atoms: C_7  and  C_9
REMARK    4  A    between atoms: C_12  and  O_13
REMARK    5  A    between atoms: C_17  and  S_18
REMARK    6  A    between atoms: S_18  and  N_21
REMARK    7  A    between atoms: N_21  and  C_22
REMARK                            x       y       z     vdW  Elec       q    Type
REMARK                         _______ _______ _______ _____ _____    ______ ____
ROOT
ATOM      1  C   UNL     1      -1.664  12.330  22.344  0.00  0.00    +0.000 C 
ATOM      2  C   UNL     1      -0.751  11.220  21.906  0.00  0.00    +0.000 A 
ATOM      3  C   UNL     1      -0.718  10.071  22.707  0.00  0.00    +0.000 A 
ATOM      4  C   UNL     1       0.095   8.984  22.385  0.00  0.00    +0.000 A 
ATOM      5  C   UNL     1       0.908   9.002  21.254  0.00  0.00    +0.000 A 
ATOM      6  C   UNL     1       0.928  10.157  20.470  0.00  0.00    +0.000 A 
ATOM      7  C   UNL     1       0.084  11.254  20.771  0.00  0.00    +0.000 A 
ENDROOT
BRANCH   5   8
ATOM      8  N   UNL     1       1.709   7.898  20.876  0.00  0.00    +0.000 N 
ATOM      9  C   UNL     1       2.076   7.596  19.570  0.00  0.00    +0.000 C 
ATOM     10  O   UNL     1       1.793   8.255  18.569  0.00  0.00    +0.000 OA
ATOM     11  H   UNL     1       2.123   7.331  21.611  0.00  0.00    +0.000 HD
BRANCH   9  12
ATOM     12  C   UNL     1       2.925   6.392  19.373  0.00  0.00    +0.000 A 
ATOM     13  C   UNL     1       3.928   6.417  18.410  0.00  0.00    +0.000 A 
ATOM     14  C   UNL     1       4.714   5.287  18.233  0.00  0.00    +0.000 A 
ATOM     15  C   UNL     1       4.451   4.193  19.032  0.00  0.00    +0.000 A 
ATOM     16  N   UNL     1       3.477   4.191  19.967  0.00  0.00    +0.000 NA
ATOM     17  N   UNL     1       2.696   5.308  20.146  0.00  0.00    +0.000 NA
BRANCH  15  18
ATOM     18  O   UNL     1       5.176   3.044  18.909  0.00  0.00    +0.000 OA
ATOM     19  H   UNL     1       5.971   3.126  19.458  0.00  0.00    +0.000 HD
ENDBRANCH  15  18
ENDBRANCH   9  12
ENDBRANCH   5   8
BRANCH   7  20
ATOM     20  S   UNL     1       0.238  12.686  19.708  0.00  0.00    +0.000 S 
ATOM     21  O   UNL     1       0.579  13.837  20.516  0.00  0.00    +0.000 OA
ATOM     22  O   UNL     1       1.067  12.313  18.586  0.00  0.00    +0.000 OA
BRANCH  20  23
ATOM     23  N   UNL     1      -1.347  12.972  19.164  0.00  0.00    +0.000 N 
ATOM     24  H   UNL     1      -1.334  13.832  18.609  0.00  0.00    +0.000 HD
BRANCH  23  25
ATOM     25  C   UNL     1      -2.040  11.875  18.542  0.00  0.00    +0.000 A 
ATOM     26  C   UNL     1      -1.313  11.029  17.703  0.00  0.00    +0.000 A 
ATOM     27  C   UNL     1      -1.949   9.963  17.062  0.00  0.00    +0.000 A 
ATOM     28  C   UNL     1      -3.312   9.741  17.253  0.00  0.00    +0.000 A 
ATOM     29  C   UNL     1      -4.047  10.586  18.088  0.00  0.00    +0.000 A 
ATOM     30  C   UNL     1      -3.412  11.655  18.730  0.00  0.00    +0.000 A 
ATOM     31 CL   UNL     1      -4.350  12.649  19.787  0.00  0.00    +0.000 Cl
ENDBRANCH  23  25
ENDBRANCH  20  23
ENDBRANCH   7  20
TORSDOF 6
ENDMDL
MODEL 6
REMARK VINA RESULT:      -7.9      3.419      4.882
REMARK  Name = 
REMARK  7 active torsions:
REMARK  status: ('A' for Active; 'I' for Inactive)
REMARK    1  A    between atoms: C_1  and  C_2
REMARK    2  A    between atoms: C_5  and  N_6
REMARK    3  A    between atoms: C_7  and  C_9
REMARK    4  A    between atoms: C_12  and  O_13
REMARK    5  A    between atoms: C_17  and  S_18
REMARK    6  A    between atoms: S_18  and  N_21
REMARK    7  A    between atoms: N_21  and  C_22
REMARK                            x       y       z     vdW  Elec       q    Type
REMARK                         _______ _______ _______ _____ _____    ______ ____
ROOT
ATOM      1  C   UNL     1       1.767   2.113  21.233  0.00  0.00    +0.000 C 
ATOM      2  C   UNL     1       2.501   2.581  20.008  0.00  0.00    +0.000 A 
ATOM      3  C   UNL     1       3.105   1.597  19.215  0.00  0.00    +0.000 A 
ATOM      4  C   UNL     1       3.806   1.927  18.055  0.00  0.00    +0.000 A 
ATOM      5  C   UNL     1       3.934   3.253  17.644  0.00  0.00    +0.000 A 
ATOM      6  C   UNL     1       3.382   4.252  18.446  0.00  0.00    +0.000 A 
ATOM      7  C   UNL     1       2.643   3.925  19.609  0.00  0.00    +0.000 A 
ENDROOT
BRANCH   5   8
ATOM      8  N   UNL     1       4.600   3.617  16.449  0.00  0.00    +0.000 N 
ATOM      9  C   UNL     1       5.913   4.065  16.379  0.00  0.00    +0.000 C 
ATOM     10  O   UNL     1       6.691   4.175  17.326  0.00  0.00    +0.000 OA
ATOM     11  H   UNL     1       4.121   3.459  15.565  0.00  0.00    +0.000 HD
BRANCH   9  12
ATOM     12  C   UNL     1       6.437   4.399  15.028  0.00  0.00    +0.000 A 
ATOM     13  C   UNL     1       5.866   3.801  13.910  0.00  0.00    +0.000 A 
ATOM     14  C   UNL     1       6.362   4.119  12.654  0.00  0.00    +0.000 A 
ATOM     15  C   UNL     1       7.407   5.018  12.587  0.00  0.00    +0.000 A 
ATOM     16  N   UNL     1       7.944   5.594  13.684  0.00  0.00    +0.000 NA
ATOM     17  N   UNL     1       7.454   5.283  14.931  0.00  0.00    +0.000 NA
BRANCH  15  18
ATOM     18  O   UNL     1       7.953   5.371  11.389  0.00  0.00    +0.000 OA
ATOM     19  H   UNL     1       8.794   5.824  11.558  0.00  0.00    +0.000 HD
ENDBRANCH  15  18
ENDBRANCH   9  12
ENDBRANCH   5   8
BRANCH   7  20
ATOM     20  S   UNL     1       2.024   5.304  20.568  0.00  0.00    +0.000 S 
ATOM     21  O   UNL     1       0.651   5.562  20.189  0.00  0.00    +0.000 OA
ATOM     22  O   UNL     1       2.365   5.065  21.951  0.00  0.00    +0.000 OA
BRANCH  20  23
ATOM     23  N   UNL     1       2.908   6.639  19.995  0.00  0.00    +0.000 N 
ATOM     24  H   UNL     1       3.641   6.282  19.377  0.00  0.00    +0.000 HD
BRANCH  23  25
ATOM     25  C   UNL     1       2.160   7.742  19.452  0.00  0.00    +0.000 A 
ATOM     26  C   UNL     1       2.169   7.926  18.069  0.00  0.00    +0.000 A 
ATOM     27  C   UNL     1       1.473   8.996  17.499  0.00  0.00    +0.000 A 
ATOM     28  C   UNL     1       0.769   9.886  18.310  0.00  0.00    +0.000 A 
ATOM     29  C   UNL     1       0.759   9.711  19.695  0.00  0.00    +0.000 A 
ATOM     30  C   UNL     1       1.456   8.641  20.268  0.00  0.00    +0.000 A 
ATOM     31 CL   UNL     1       1.381   8.437  21.981  0.00  0.00    +0.000 Cl
ENDBRANCH  23  25
ENDBRANCH  20  23
ENDBRANCH   7  20
TORSDOF 6
ENDMDL
MODEL 7
REMARK VINA RESULT:      -7.8      5.891      8.219
REMARK  Name = 
REMARK  7 active torsions:
REMARK  status: ('A' for Active; 'I' for Inactive)
REMARK    1  A    between atoms: C_1  and  C_2
REMARK    2  A    between atoms: C_5  and  N_6
REMARK    3  A    between atoms: C_7  and  C_9
REMARK    4  A    between atoms: C_12  and  O_13
REMARK    5  A    between atoms: C_17  and  S_18
REMARK    6  A    between atoms: S_18  and  N_21
REMARK    7  A    between atoms: N_21  and  C_22
REMARK                            x       y       z     vdW  Elec       q    Type
REMARK                         _______ _______ _______ _____ _____    ______ ____
ROOT
ATOM      1  C   UNL     1       6.296   4.235  18.811  0.00  0.00    +0.000 C 
ATOM      2  C   UNL     1       6.835   5.592  18.456  0.00  0.00    +0.000 A 
ATOM      3  C   UNL     1       7.872   6.092  19.254  0.00  0.00    +0.000 A 
ATOM      4  C   UNL     1       8.443   7.340  19.006  0.00  0.00    +0.000 A 
ATOM      5  C   UNL     1       8.000   8.139  17.954  0.00  0.00    +0.000 A 
ATOM      6  C   UNL     1       6.934   7.681  17.177  0.00  0.00    +0.000 A 
ATOM      7  C   UNL     1       6.368   6.403  17.402  0.00  0.00    +0.000 A 
ENDROOT
BRANCH   5   8
ATOM      8  N   UNL     1       8.589   9.389  17.648  0.00  0.00    +0.000 N 
ATOM      9  C   UNL     1       9.118  10.266  18.586  0.00  0.00    +0.000 C 
ATOM     10  O   UNL     1       9.185  10.072  19.800  0.00  0.00    +0.000 OA
ATOM     11  H   UNL     1       8.718   9.632  16.668  0.00  0.00    +0.000 HD
BRANCH   9  12
ATOM     12  C   UNL     1       9.696  11.534  18.068  0.00  0.00    +0.000 A 
ATOM     13  C   UNL     1      11.057  11.597  17.789  0.00  0.00    +0.000 A 
ATOM     14  C   UNL     1      11.587  12.786  17.306  0.00  0.00    +0.000 A 
ATOM     15  C   UNL     1      10.722  13.847  17.132  0.00  0.00    +0.000 A 
ATOM     16  N   UNL     1       9.402  13.764  17.402  0.00  0.00    +0.000 NA
ATOM     17  N   UNL     1       8.872  12.588  17.879  0.00  0.00    +0.000 NA
BRANCH  15  18
ATOM     18  O   UNL     1      11.172  15.050  16.671  0.00  0.00    +0.000 OA
ATOM     19  H   UNL     1      11.824  15.393  17.302  0.00  0.00    +0.000 HD
ENDBRANCH  15  18
ENDBRANCH   9  12
ENDBRANCH   5   8
BRANCH   7  20
ATOM     20  S   UNL     1       4.982   5.956  16.361  0.00  0.00    +0.000 S 
ATOM     21  O   UNL     1       4.921   6.871  15.241  0.00  0.00    +0.000 OA
ATOM     22  O   UNL     1       5.044   4.531  16.135  0.00  0.00    +0.000 OA
BRANCH  20  23
ATOM     23  N   UNL     1       3.617   6.314  17.310  0.00  0.00    +0.000 N 
ATOM     24  H   UNL     1       3.016   6.938  16.764  0.00  0.00    +0.000 HD
BRANCH  23  25
ATOM     25  C   UNL     1       2.927   5.208  17.918  0.00  0.00    +0.000 A 
ATOM     26  C   UNL     1       2.875   4.001  17.220  0.00  0.00    +0.000 A 
ATOM     27  C   UNL     1       2.199   2.905  17.764  0.00  0.00    +0.000 A 
ATOM     28  C   UNL     1       1.570   3.014  19.003  0.00  0.00    +0.000 A 
ATOM     29  C   UNL     1       1.613   4.220  19.705  0.00  0.00    +0.000 A 
ATOM     30  C   UNL     1       2.289   5.318  19.163  0.00  0.00    +0.000 A 
ATOM     31 CL   UNL     1       2.355   6.778  20.085  0.00  0.00    +0.000 Cl
ENDBRANCH  23  25
ENDBRANCH  20  23
ENDBRANCH   7  20
TORSDOF 6
ENDMDL
MODEL 8
REMARK VINA RESULT:      -7.8      4.054      8.932
REMARK  Name = 
REMARK  7 active torsions:
REMARK  status: ('A' for Active; 'I' for Inactive)
REMARK    1  A    between atoms: C_1  and  C_2
REMARK    2  A    between atoms: C_5  and  N_6
REMARK    3  A    between atoms: C_7  and  C_9
REMARK    4  A    between atoms: C_12  and  O_13
REMARK    5  A    between atoms: C_17  and  S_18
REMARK    6  A    between atoms: S_18  and  N_21
REMARK    7  A    between atoms: N_21  and  C_22
REMARK                            x       y       z     vdW  Elec       q    Type
REMARK                         _______ _______ _______ _____ _____    ______ ____
ROOT
ATOM      1  C   UNL     1       3.478   2.050  19.096  0.00  0.00    +0.000 C 
ATOM      2  C   UNL     1       2.933   3.354  19.605  0.00  0.00    +0.000 A 
ATOM      3  C   UNL     1       1.644   3.334  20.153  0.00  0.00    +0.000 A 
ATOM      4  C   UNL     1       1.049   4.490  20.656  0.00  0.00    +0.000 A 
ATOM      5  C   UNL     1       1.716   5.714  20.629  0.00  0.00    +0.000 A 
ATOM      6  C   UNL     1       2.981   5.766  20.042  0.00  0.00    +0.000 A 
ATOM      7  C   UNL     1       3.606   4.592  19.556  0.00  0.00    +0.000 A 
ENDROOT
BRANCH   5   8
ATOM      8  N   UNL     1       1.159   6.896  21.172  0.00  0.00    +0.000 N 
ATOM      9  C   UNL     1       1.214   8.147  20.570  0.00  0.00    +0.000 C 
ATOM     10  O   UNL     1       1.716   8.401  19.475  0.00  0.00    +0.000 OA
ATOM     11  H   UNL     1       0.600   6.819  22.019  0.00  0.00    +0.000 HD
BRANCH   9  12
ATOM     12  C   UNL     1       0.567   9.271  21.297  0.00  0.00    +0.000 A 
ATOM     13  C   UNL     1       0.651  10.557  20.775  0.00  0.00    +0.000 A 
ATOM     14  C   UNL     1       0.044  11.599  21.461  0.00  0.00    +0.000 A 
ATOM     15  C   UNL     1      -0.613  11.294  22.636  0.00  0.00    +0.000 A 
ATOM     16  N   UNL     1      -0.690  10.038  23.123  0.00  0.00    +0.000 NA
ATOM     17  N   UNL     1      -0.092   9.001  22.446  0.00  0.00    +0.000 NA
BRANCH  15  18
ATOM     18  O   UNL     1      -1.225  12.268  23.370  0.00  0.00    +0.000 OA
ATOM     19  H   UNL     1      -0.542  12.764  23.847  0.00  0.00    +0.000 HD
ENDBRANCH  15  18
ENDBRANCH   9  12
ENDBRANCH   5   8
BRANCH   7  20
ATOM     20  S   UNL     1       5.211   4.807  18.792  0.00  0.00    +0.000 S 
ATOM     21  O   UNL     1       6.009   5.690  19.614  0.00  0.00    +0.000 OA
ATOM     22  O   UNL     1       5.706   3.497  18.436  0.00  0.00    +0.000 OA
BRANCH  20  23
ATOM     23  N   UNL     1       4.881   5.685  17.374  0.00  0.00    +0.000 N 
ATOM     24  H   UNL     1       4.932   6.680  17.608  0.00  0.00    +0.000 HD
BRANCH  23  25
ATOM     25  C   UNL     1       5.606   5.318  16.186  0.00  0.00    +0.000 A 
ATOM     26  C   UNL     1       4.975   4.484  15.262  0.00  0.00    +0.000 A 
ATOM     27  C   UNL     1       5.648   4.086  14.104  0.00  0.00    +0.000 A 
ATOM     28  C   UNL     1       6.954   4.515  13.869  0.00  0.00    +0.000 A 
ATOM     29  C   UNL     1       7.594   5.345  14.791  0.00  0.00    +0.000 A 
ATOM     30  C   UNL     1       6.922   5.745  15.952  0.00  0.00    +0.000 A 
ATOM     31 CL   UNL     1       7.735   6.806  17.045  0.00  0.00    +0.000 Cl
ENDBRANCH  23  25
ENDBRANCH  20  23
ENDBRANCH   7  20
TORSDOF 6
ENDMDL
MODEL 9
REMARK VINA RESULT:      -7.8      1.881      2.681
REMARK  Name = 
REMARK  7 active torsions:
REMARK  status: ('A' for Active; 'I' for Inactive)
REMARK    1  A    between atoms: C_1  and  C_2
REMARK    2  A    between atoms: C_5  and  N_6
REMARK    3  A    between atoms: C_7  and  C_9
REMARK    4  A    between atoms: C_12  and  O_13
REMARK    5  A    between atoms: C_17  and  S_18
REMARK    6  A    between atoms: S_18  and  N_21
REMARK    7  A    between atoms: N_21  and  C_22
REMARK                            x       y       z     vdW  Elec       q    Type
REMARK                         _______ _______ _______ _____ _____    ______ ____
ROOT
ATOM      1  C   UNL     1      -1.371  11.391  22.927  0.00  0.00    +0.000 C 
ATOM      2  C   UNL     1      -0.483  10.523  22.080  0.00  0.00    +0.000 A 
ATOM      3  C   UNL     1       0.193   9.482  22.729  0.00  0.00    +0.000 A 
ATOM      4  C   UNL     1       1.037   8.618  22.031  0.00  0.00    +0.000 A 
ATOM      5  C   UNL     1       1.242   8.762  20.661  0.00  0.00    +0.000 A 
ATOM      6  C   UNL     1       0.618   9.823  20.004  0.00  0.00    +0.000 A 
ATOM      7  C   UNL     1      -0.265  10.687  20.697  0.00  0.00    +0.000 A 
ENDROOT
BRANCH   5   8
ATOM      8  N   UNL     1       2.057   7.875  19.917  0.00  0.00    +0.000 N 
ATOM      9  C   UNL     1       2.092   6.497  20.090  0.00  0.00    +0.000 C 
ATOM     10  O   UNL     1       1.404   5.850  20.880  0.00  0.00    +0.000 OA
ATOM     11  H   UNL     1       2.592   8.253  19.138  0.00  0.00    +0.000 HD
BRANCH   9  12
ATOM     12  C   UNL     1       3.014   5.733  19.209  0.00  0.00    +0.000 A 
ATOM     13  C   UNL     1       3.487   4.495  19.630  0.00  0.00    +0.000 A 
ATOM     14  C   UNL     1       4.348   3.790  18.801  0.00  0.00    +0.000 A 
ATOM     15  C   UNL     1       4.688   4.366  17.594  0.00  0.00    +0.000 A 
ATOM     16  N   UNL     1       4.212   5.566  17.199  0.00  0.00    +0.000 NA
ATOM     17  N   UNL     1       3.358   6.268  18.017  0.00  0.00    +0.000 NA
BRANCH  15  18
ATOM     18  O   UNL     1       5.537   3.737  16.731  0.00  0.00    +0.000 OA
ATOM     19  H   UNL     1       5.034   3.066  16.245  0.00  0.00    +0.000 HD
ENDBRANCH  15  18
ENDBRANCH   9  12
ENDBRANCH   5   8
BRANCH   7  20
ATOM     20  S   UNL     1      -0.968  12.031  19.745  0.00  0.00    +0.000 S 
ATOM     21  O   UNL     1      -1.065  13.203  20.588  0.00  0.00    +0.000 OA
ATOM     22  O   UNL     1      -0.262  12.094  18.487  0.00  0.00    +0.000 OA
BRANCH  20  23
ATOM     23  N   UNL     1      -2.573  11.545  19.463  0.00  0.00    +0.000 N 
ATOM     24  H   UNL     1      -3.187  12.273  19.837  0.00  0.00    +0.000 HD
BRANCH  23  25
ATOM     25  C   UNL     1      -2.907  11.113  18.132  0.00  0.00    +0.000 A 
ATOM     26  C   UNL     1      -2.018  10.264  17.472  0.00  0.00    +0.000 A 
ATOM     27  C   UNL     1      -2.293   9.835  16.171  0.00  0.00    +0.000 A 
ATOM     28  C   UNL     1      -3.454  10.258  15.523  0.00  0.00    +0.000 A 
ATOM     29  C   UNL     1      -4.346  11.111  16.175  0.00  0.00    +0.000 A 
ATOM     30  C   UNL     1      -4.072  11.542  17.478  0.00  0.00    +0.000 A 
ATOM     31 CL   UNL     1      -5.224  12.563  18.262  0.00  0.00    +0.000 Cl
ENDBRANCH  23  25
ENDBRANCH  20  23
ENDBRANCH   7  20
TORSDOF 6
ENDMDL
