MODEL 1
REMARK VINA RESULT:      -7.7      0.000      0.000
REMARK  Name = 
REMARK  13 active torsions:
REMARK  status: ('A' for Active; 'I' for Inactive)
REMARK    1  A    between atoms: C_1  and  O_2
REMARK    2  A    between atoms: O_2  and  C_3
REMARK    3  A    between atoms: C_6  and  O_7
REMARK    4  A    between atoms: O_7  and  C_8
REMARK    5  A    between atoms: C_9  and  C_10
REMARK    6  A    between atoms: C_15  and  C_17
REMARK    7  A    between atoms: C_17  and  N_18
REMARK    8  A    between atoms: C_22  and  C_23
REMARK    9  A    between atoms: C_22  and  C_24
REMARK   10  A    between atoms: C_27  and  C_28
REMARK   11  A    between atoms: C_28  and  C_29
REMARK   12  A    between atoms: C_28  and  C_30
REMARK   13  A    between atoms: C_28  and  C_31
REMARK                            x       y       z     vdW  Elec       q    Type
REMARK                         _______ _______ _______ _____ _____    ______ ____
ROOT
ATOM      1  N   UNL     1       1.519  11.982  20.218  0.00  0.00    +0.000 N 
ATOM      2  C   UNL     1       0.686  11.292  21.053  0.00  0.00    +0.000 C 
ATOM      3  O   UNL     1       0.327  11.611  22.174  0.00  0.00    +0.000 OA
ATOM      4  N   UNL     1       0.282  10.146  20.416  0.00  0.00    +0.000 N 
ATOM      5  C   UNL     1       0.773  10.055  19.060  0.00  0.00    +0.000 C 
ATOM      6  C   UNL     1      -0.436  10.136  18.119  0.00  0.00    +0.000 C 
ATOM      7  C   UNL     1       1.598  11.367  19.000  0.00  0.00    +0.000 C 
ATOM      8  O   UNL     1       2.209  11.784  18.030  0.00  0.00    +0.000 OA
ATOM      9  H   UNL     1      -0.238   9.432  20.904  0.00  0.00    +0.000 HD
ENDROOT
BRANCH   5  10
ATOM     10  C   UNL     1       1.691   8.859  18.860  0.00  0.00    +0.000 A 
ATOM     11  C   UNL     1       1.787   7.851  19.823  0.00  0.00    +0.000 A 
ATOM     12  C   UNL     1       2.541   6.700  19.588  0.00  0.00    +0.000 A 
ATOM     13  C   UNL     1       3.219   6.489  18.380  0.00  0.00    +0.000 A 
ATOM     14  C   UNL     1       3.149   7.513  17.424  0.00  0.00    +0.000 A 
ATOM     15  C   UNL     1       2.392   8.670  17.656  0.00  0.00    +0.000 A 
BRANCH  13  16
ATOM     16  C   UNL     1       3.953   5.170  18.080  0.00  0.00    +0.000 C 
ATOM     17  C   UNL     1       4.806   5.256  16.793  0.00  0.00    +0.000 C 
ATOM     18  C   UNL     1       4.900   4.826  19.249  0.00  0.00    +0.000 C 
ATOM     19  C   UNL     1       2.958   4.009  17.898  0.00  0.00    +0.000 C 
ENDBRANCH  13  16
ENDBRANCH   5  10
BRANCH   1  20
ATOM     20  C   UNL     1       2.271  13.146  20.610  0.00  0.00    +0.000 C 
BRANCH  20  26
ATOM     21  C   UNL     1       1.065  16.834  20.738  0.00  0.00    +0.000 C 
ATOM     22  C   UNL     1       1.926  17.826  21.531  0.00  0.00    +0.000 C 
ATOM     23  C   UNL     1       2.420  16.990  22.705  0.00  0.00    +0.000 C 
ATOM     24  C   UNL     1       2.506  15.574  22.154  0.00  0.00    +0.000 C 
ATOM     25  N   UNL     1       1.813  15.584  20.872  0.00  0.00    +0.000 N 
ATOM     26  C   UNL     1       1.541  14.432  20.150  0.00  0.00    +0.000 C 
ATOM     27  O   UNL     1       0.790  14.426  19.175  0.00  0.00    +0.000 OA
BRANCH  21  32
ATOM     28  C   UNL     1      -1.296  18.268  18.132  0.00  0.00    +0.000 A 
ATOM     29  C   UNL     1      -0.444  18.624  17.101  0.00  0.00    +0.000 A 
ATOM     30  C   UNL     1       0.915  18.326  17.180  0.00  0.00    +0.000 A 
ATOM     31  C   UNL     1       1.465  17.690  18.307  0.00  0.00    +0.000 A 
ATOM     32  C   UNL     1       0.624  17.371  19.390  0.00  0.00    +0.000 A 
ATOM     33  C   UNL     1      -0.764  17.652  19.264  0.00  0.00    +0.000 A 
BRANCH  28  35
ATOM     34  C   UNL     1      -3.420  18.554  19.121  0.00  0.00    +0.000 C 
ATOM     35  O   UNL     1      -2.603  18.626  17.960  0.00  0.00    +0.000 OA
ENDBRANCH  28  35
BRANCH  31  36
ATOM     36  O   UNL     1       2.809  17.428  18.411  0.00  0.00    +0.000 OA
ATOM     37  C   UNL     1       3.319  16.476  17.470  0.00  0.00    +0.000 C 
ENDBRANCH  31  36
ENDBRANCH  21  32
ENDBRANCH  20  26
ENDBRANCH   1  20
TORSDOF 7
ENDMDL
MODEL 2
REMARK VINA RESULT:      -7.5      3.703      5.790
REMARK  Name = 
REMARK  13 active torsions:
REMARK  status: ('A' for Active; 'I' for Inactive)
REMARK    1  A    between atoms: C_1  and  O_2
REMARK    2  A    between atoms: O_2  and  C_3
REMARK    3  A    between atoms: C_6  and  O_7
REMARK    4  A    between atoms: O_7  and  C_8
REMARK    5  A    between atoms: C_9  and  C_10
REMARK    6  A    between atoms: C_15  and  C_17
REMARK    7  A    between atoms: C_17  and  N_18
REMARK    8  A    between atoms: C_22  and  C_23
REMARK    9  A    between atoms: C_22  and  C_24
REMARK   10  A    between atoms: C_27  and  C_28
REMARK   11  A    between atoms: C_28  and  C_29
REMARK   12  A    between atoms: C_28  and  C_30
REMARK   13  A    between atoms: C_28  and  C_31
REMARK                            x       y       z     vdW  Elec       q    Type
REMARK                         _______ _______ _______ _____ _____    ______ ____
ROOT
ATOM      1  N   UNL     1      -0.394  11.426  19.969  0.00  0.00    +0.000 N 
ATOM      2  C   UNL     1       0.490  11.735  20.964  0.00  0.00    +0.000 C 
ATOM      3  O   UNL     1       0.843  12.844  21.326  0.00  0.00    +0.000 OA
ATOM      4  N   UNL     1       0.931  10.567  21.533  0.00  0.00    +0.000 N 
ATOM      5  C   UNL     1       0.284   9.397  20.985  0.00  0.00    +0.000 C 
ATOM      6  C   UNL     1      -0.563   8.767  22.099  0.00  0.00    +0.000 C 
ATOM      7  C   UNL     1      -0.625  10.080  19.930  0.00  0.00    +0.000 C 
ATOM      8  O   UNL     1      -1.416   9.514  19.194  0.00  0.00    +0.000 OA
ATOM      9  H   UNL     1       1.684  10.565  22.204  0.00  0.00    +0.000 HD
ENDROOT
BRANCH   5  10
ATOM     10  C   UNL     1       1.268   8.467  20.293  0.00  0.00    +0.000 A 
ATOM     11  C   UNL     1       1.604   7.227  20.844  0.00  0.00    +0.000 A 
ATOM     12  C   UNL     1       2.416   6.328  20.153  0.00  0.00    +0.000 A 
ATOM     13  C   UNL     1       2.918   6.609  18.876  0.00  0.00    +0.000 A 
ATOM     14  C   UNL     1       2.608   7.865  18.333  0.00  0.00    +0.000 A 
ATOM     15  C   UNL     1       1.792   8.771  19.024  0.00  0.00    +0.000 A 
BRANCH  13  16
ATOM     16  C   UNL     1       3.718   5.570  18.069  0.00  0.00    +0.000 C 
ATOM     17  C   UNL     1       2.812   4.460  17.487  0.00  0.00    +0.000 C 
ATOM     18  C   UNL     1       4.428   6.264  16.888  0.00  0.00    +0.000 C 
ATOM     19  C   UNL     1       4.782   4.885  18.946  0.00  0.00    +0.000 C 
ENDBRANCH  13  16
ENDBRANCH   5  10
BRANCH   1  20
ATOM     20  C   UNL     1      -0.931  12.387  19.040  0.00  0.00    +0.000 C 
BRANCH  20  26
ATOM     21  C   UNL     1      -4.767  12.916  19.309  0.00  0.00    +0.000 C 
ATOM     22  C   UNL     1      -5.669  11.774  18.820  0.00  0.00    +0.000 C 
ATOM     23  C   UNL     1      -4.909  11.228  17.618  0.00  0.00    +0.000 C 
ATOM     24  C   UNL     1      -3.444  11.479  17.948  0.00  0.00    +0.000 C 
ATOM     25  N   UNL     1      -3.424  12.376  19.096  0.00  0.00    +0.000 N 
ATOM     26  C   UNL     1      -2.264  12.961  19.579  0.00  0.00    +0.000 C 
ATOM     27  O   UNL     1      -2.279  13.863  20.417  0.00  0.00    +0.000 OA
BRANCH  21  32
ATOM     28  C   UNL     1      -5.485  12.984  23.037  0.00  0.00    +0.000 A 
ATOM     29  C   UNL     1      -5.717  14.325  23.286  0.00  0.00    +0.000 A 
ATOM     30  C   UNL     1      -5.739  15.240  22.236  0.00  0.00    +0.000 A 
ATOM     31  C   UNL     1      -5.499  14.842  20.908  0.00  0.00    +0.000 A 
ATOM     32  C   UNL     1      -5.204  13.491  20.642  0.00  0.00    +0.000 A 
ATOM     33  C   UNL     1      -5.228  12.575  21.729  0.00  0.00    +0.000 A 
BRANCH  28  35
ATOM     34  C   UNL     1      -4.370  12.377  25.028  0.00  0.00    +0.000 C 
ATOM     35  O   UNL     1      -5.465  12.180  24.142  0.00  0.00    +0.000 OA
ENDBRANCH  28  35
BRANCH  31  36
ATOM     36  O   UNL     1      -5.480  15.742  19.871  0.00  0.00    +0.000 OA
ATOM     37  C   UNL     1      -4.615  16.869  20.058  0.00  0.00    +0.000 C 
ENDBRANCH  31  36
ENDBRANCH  21  32
ENDBRANCH  20  26
ENDBRANCH   1  20
TORSDOF 7
ENDMDL
MODEL 3
REMARK VINA RESULT:      -7.5      3.696      5.883
REMARK  Name = 
REMARK  13 active torsions:
REMARK  status: ('A' for Active; 'I' for Inactive)
REMARK    1  A    between atoms: C_1  and  O_2
REMARK    2  A    between atoms: O_2  and  C_3
REMARK    3  A    between atoms: C_6  and  O_7
REMARK    4  A    between atoms: O_7  and  C_8
REMARK    5  A    between atoms: C_9  and  C_10
REMARK    6  A    between atoms: C_15  and  C_17
REMARK    7  A    between atoms: C_17  and  N_18
REMARK    8  A    between atoms: C_22  and  C_23
REMARK    9  A    between atoms: C_22  and  C_24
REMARK   10  A    between atoms: C_27  and  C_28
REMARK   11  A    between atoms: C_28  and  C_29
REMARK   12  A    between atoms: C_28  and  C_30
REMARK   13  A    between atoms: C_28  and  C_31
REMARK                            x       y       z     vdW  Elec       q    Type
REMARK                         _______ _______ _______ _____ _____    ______ ____
ROOT
ATOM      1  N   UNL     1      -0.329  11.433  19.605  0.00  0.00    +0.000 N 
ATOM      2  C   UNL     1       0.692  11.784  20.443  0.00  0.00    +0.000 C 
ATOM      3  O   UNL     1       1.102  12.906  20.685  0.00  0.00    +0.000 OA
ATOM      4  N   UNL     1       1.202  10.643  21.008  0.00  0.00    +0.000 N 
ATOM      5  C   UNL     1       0.475   9.454  20.628  0.00  0.00    +0.000 C 
ATOM      6  C   UNL     1      -0.207   8.901  21.887  0.00  0.00    +0.000 C 
ATOM      7  C   UNL     1      -0.573  10.091  19.678  0.00  0.00    +0.000 C 
ATOM      8  O   UNL     1      -1.467   9.497  19.098  0.00  0.00    +0.000 OA
ATOM      9  H   UNL     1       2.045  10.667  21.563  0.00  0.00    +0.000 HD
ENDROOT
BRANCH   5  10
ATOM     10  C   UNL     1       1.341   8.472  19.856  0.00  0.00    +0.000 A 
ATOM     11  C   UNL     1       1.859   8.796  18.599  0.00  0.00    +0.000 A 
ATOM     12  C   UNL     1       2.746   7.941  17.943  0.00  0.00    +0.000 A 
ATOM     13  C   UNL     1       3.174   6.734  18.513  0.00  0.00    +0.000 A 
ATOM     14  C   UNL     1       2.632   6.392  19.761  0.00  0.00    +0.000 A 
ATOM     15  C   UNL     1       1.741   7.249  20.423  0.00  0.00    +0.000 A 
BRANCH  13  16
ATOM     16  C   UNL     1       4.239   5.851  17.840  0.00  0.00    +0.000 C 
ATOM     17  C   UNL     1       5.384   5.475  18.810  0.00  0.00    +0.000 C 
ATOM     18  C   UNL     1       3.591   4.539  17.348  0.00  0.00    +0.000 C 
ATOM     19  C   UNL     1       4.873   6.566  16.633  0.00  0.00    +0.000 C 
ENDBRANCH  13  16
ENDBRANCH   5  10
BRANCH   1  20
ATOM     20  C   UNL     1      -0.988  12.349  18.710  0.00  0.00    +0.000 C 
BRANCH  20  26
ATOM     21  C   UNL     1      -4.780  12.881  19.345  0.00  0.00    +0.000 C 
ATOM     22  C   UNL     1      -5.726  11.744  18.937  0.00  0.00    +0.000 C 
ATOM     23  C   UNL     1      -5.085  11.205  17.665  0.00  0.00    +0.000 C 
ATOM     24  C   UNL     1      -3.595  11.452  17.856  0.00  0.00    +0.000 C 
ATOM     25  N   UNL     1      -3.465  12.342  19.002  0.00  0.00    +0.000 N 
ATOM     26  C   UNL     1      -2.263  12.921  19.377  0.00  0.00    +0.000 C 
ATOM     27  O   UNL     1      -2.196  13.818  20.218  0.00  0.00    +0.000 OA
BRANCH  21  32
ATOM     28  C   UNL     1      -5.153  12.922  23.124  0.00  0.00    +0.000 A 
ATOM     29  C   UNL     1      -5.348  14.263  23.404  0.00  0.00    +0.000 A 
ATOM     30  C   UNL     1      -5.456  15.188  22.368  0.00  0.00    +0.000 A 
ATOM     31  C   UNL     1      -5.343  14.800  21.020  0.00  0.00    +0.000 A 
ATOM     32  C   UNL     1      -5.088  13.449  20.718  0.00  0.00    +0.000 A 
ATOM     33  C   UNL     1      -5.021  12.523  21.795  0.00  0.00    +0.000 A 
BRANCH  28  35
ATOM     34  C   UNL     1      -4.358  12.664  25.332  0.00  0.00    +0.000 C 
ATOM     35  O   UNL     1      -5.040  12.107  24.216  0.00  0.00    +0.000 OA
ENDBRANCH  28  35
BRANCH  31  36
ATOM     36  O   UNL     1      -5.409  15.709  19.993  0.00  0.00    +0.000 OA
ATOM     37  C   UNL     1      -5.704  17.054  20.388  0.00  0.00    +0.000 C 
ENDBRANCH  31  36
ENDBRANCH  21  32
ENDBRANCH  20  26
ENDBRANCH   1  20
TORSDOF 7
ENDMDL
MODEL 4
REMARK VINA RESULT:      -7.5      4.901     10.576
REMARK  Name = 
REMARK  13 active torsions:
REMARK  status: ('A' for Active; 'I' for Inactive)
REMARK    1  A    between atoms: C_1  and  O_2
REMARK    2  A    between atoms: O_2  and  C_3
REMARK    3  A    between atoms: C_6  and  O_7
REMARK    4  A    between atoms: O_7  and  C_8
REMARK    5  A    between atoms: C_9  and  C_10
REMARK    6  A    between atoms: C_15  and  C_17
REMARK    7  A    between atoms: C_17  and  N_18
REMARK    8  A    between atoms: C_22  and  C_23
REMARK    9  A    between atoms: C_22  and  C_24
REMARK   10  A    between atoms: C_27  and  C_28
REMARK   11  A    between atoms: C_28  and  C_29
REMARK   12  A    between atoms: C_28  and  C_30
REMARK   13  A    between atoms: C_28  and  C_31
REMARK                            x       y       z     vdW  Elec       q    Type
REMARK                         _______ _______ _______ _____ _____    ______ ____
ROOT
ATOM      1  N   UNL     1       1.380   8.130  20.018  0.00  0.00    +0.000 N 
ATOM      2  C   UNL     1       1.495   9.051  21.021  0.00  0.00    +0.000 C 
ATOM      3  O   UNL     1       1.822   8.851  22.178  0.00  0.00    +0.000 OA
ATOM      4  N   UNL     1       1.191  10.288  20.512  0.00  0.00    +0.000 N 
ATOM      5  C   UNL     1       0.932  10.263  19.091  0.00  0.00    +0.000 C 
ATOM      6  C   UNL     1       2.048  11.056  18.399  0.00  0.00    +0.000 C 
ATOM      7  C   UNL     1       1.102   8.744  18.829  0.00  0.00    +0.000 C 
ATOM      8  O   UNL     1       1.010   8.190  17.746  0.00  0.00    +0.000 OA
ATOM      9  H   UNL     1       1.095  11.091  21.116  0.00  0.00    +0.000 HD
ENDROOT
BRANCH   5  10
ATOM     10  C   UNL     1      -0.489  10.688  18.758  0.00  0.00    +0.000 A 
ATOM     11  C   UNL     1      -1.226  10.035  17.766  0.00  0.00    +0.000 A 
ATOM     12  C   UNL     1      -2.567  10.350  17.541  0.00  0.00    +0.000 A 
ATOM     13  C   UNL     1      -3.242  11.313  18.302  0.00  0.00    +0.000 A 
ATOM     14  C   UNL     1      -2.497  11.991  19.278  0.00  0.00    +0.000 A 
ATOM     15  C   UNL     1      -1.150  11.677  19.507  0.00  0.00    +0.000 A 
BRANCH  13  16
ATOM     16  C   UNL     1      -4.749  11.575  18.128  0.00  0.00    +0.000 C 
ATOM     17  C   UNL     1      -5.257  12.702  19.058  0.00  0.00    +0.000 C 
ATOM     18  C   UNL     1      -5.037  12.002  16.673  0.00  0.00    +0.000 C 
ATOM     19  C   UNL     1      -5.573  10.313  18.441  0.00  0.00    +0.000 C 
ENDBRANCH  13  16
ENDBRANCH   5  10
BRANCH   1  20
ATOM     20  C   UNL     1       1.456   6.705  20.218  0.00  0.00    +0.000 C 
BRANCH  20  26
ATOM     21  C   UNL     1       4.198   4.088  19.383  0.00  0.00    +0.000 C 
ATOM     22  C   UNL     1       3.749   2.631  19.210  0.00  0.00    +0.000 C 
ATOM     23  C   UNL     1       2.642   2.489  20.248  0.00  0.00    +0.000 C 
ATOM     24  C   UNL     1       2.031   3.880  20.346  0.00  0.00    +0.000 C 
ATOM     25  N   UNL     1       2.939   4.782  19.650  0.00  0.00    +0.000 N 
ATOM     26  C   UNL     1       2.798   6.161  19.672  0.00  0.00    +0.000 C 
ATOM     27  O   UNL     1       3.671   6.920  19.250  0.00  0.00    +0.000 OA
BRANCH  21  32
ATOM     28  C   UNL     1       5.464   4.778  15.870  0.00  0.00    +0.000 A 
ATOM     29  C   UNL     1       6.610   5.520  16.091  0.00  0.00    +0.000 A 
ATOM     30  C   UNL     1       7.061   5.745  17.390  0.00  0.00    +0.000 A 
ATOM     31  C   UNL     1       6.360   5.256  18.507  0.00  0.00    +0.000 A 
ATOM     32  C   UNL     1       5.161   4.547  18.305  0.00  0.00    +0.000 A 
ATOM     33  C   UNL     1       4.747   4.301  16.967  0.00  0.00    +0.000 A 
BRANCH  28  35
ATOM     34  C   UNL     1       6.037   3.958  13.731  0.00  0.00    +0.000 C 
ATOM     35  O   UNL     1       5.102   4.638  14.559  0.00  0.00    +0.000 OA
ENDBRANCH  28  35
BRANCH  31  36
ATOM     36  O   UNL     1       6.774   5.505  19.792  0.00  0.00    +0.000 OA
ATOM     37  C   UNL     1       8.193   5.591  19.969  0.00  0.00    +0.000 C 
ENDBRANCH  31  36
ENDBRANCH  21  32
ENDBRANCH  20  26
ENDBRANCH   1  20
TORSDOF 7
ENDMDL
MODEL 5
REMARK VINA RESULT:      -7.3      3.745      5.305
REMARK  Name = 
REMARK  13 active torsions:
REMARK  status: ('A' for Active; 'I' for Inactive)
REMARK    1  A    between atoms: C_1  and  O_2
REMARK    2  A    between atoms: O_2  and  C_3
REMARK    3  A    between atoms: C_6  and  O_7
REMARK    4  A    between atoms: O_7  and  C_8
REMARK    5  A    between atoms: C_9  and  C_10
REMARK    6  A    between atoms: C_15  and  C_17
REMARK    7  A    between atoms: C_17  and  N_18
REMARK    8  A    between atoms: C_22  and  C_23
REMARK    9  A    between atoms: C_22  and  C_24
REMARK   10  A    between atoms: C_27  and  C_28
REMARK   11  A    between atoms: C_28  and  C_29
REMARK   12  A    between atoms: C_28  and  C_30
REMARK   13  A    between atoms: C_28  and  C_31
REMARK                            x       y       z     vdW  Elec       q    Type
REMARK                         _______ _______ _______ _____ _____    ______ ____
ROOT
ATOM      1  N   UNL     1      -0.349  11.431  20.061  0.00  0.00    +0.000 N 
ATOM      2  C   UNL     1       0.474  11.635  21.133  0.00  0.00    +0.000 C 
ATOM      3  O   UNL     1       0.782  12.700  21.641  0.00  0.00    +0.000 OA
ATOM      4  N   UNL     1       0.912  10.416  21.584  0.00  0.00    +0.000 N 
ATOM      5  C   UNL     1       0.322   9.308  20.869  0.00  0.00    +0.000 C 
ATOM      6  C   UNL     1      -0.568   8.537  21.852  0.00  0.00    +0.000 C 
ATOM      7  C   UNL     1      -0.546  10.095  19.852  0.00  0.00    +0.000 C 
ATOM      8  O   UNL     1      -1.284   9.607  19.013  0.00  0.00    +0.000 OA
ATOM      9  H   UNL     1       1.628  10.347  22.291  0.00  0.00    +0.000 HD
ENDROOT
BRANCH   5  10
ATOM     10  C   UNL     1       1.362   8.483  20.127  0.00  0.00    +0.000 A 
ATOM     11  C   UNL     1       1.823   7.268  20.641  0.00  0.00    +0.000 A 
ATOM     12  C   UNL     1       2.691   6.458  19.907  0.00  0.00    +0.000 A 
ATOM     13  C   UNL     1       3.125   6.807  18.622  0.00  0.00    +0.000 A 
ATOM     14  C   UNL     1       2.688   8.041  18.116  0.00  0.00    +0.000 A 
ATOM     15  C   UNL     1       1.817   8.857  18.851  0.00  0.00    +0.000 A 
BRANCH  13  16
ATOM     16  C   UNL     1       3.987   5.859  17.770  0.00  0.00    +0.000 C 
ATOM     17  C   UNL     1       4.558   6.559  16.514  0.00  0.00    +0.000 C 
ATOM     18  C   UNL     1       5.181   5.351  18.606  0.00  0.00    +0.000 C 
ATOM     19  C   UNL     1       3.172   4.644  17.291  0.00  0.00    +0.000 C 
ENDBRANCH  13  16
ENDBRANCH   5  10
BRANCH   1  20
ATOM     20  C   UNL     1      -0.858  12.486  19.223  0.00  0.00    +0.000 C 
BRANCH  20  26
ATOM     21  C   UNL     1      -4.520  13.392  20.137  0.00  0.00    +0.000 C 
ATOM     22  C   UNL     1      -5.584  12.305  19.932  0.00  0.00    +0.000 C 
ATOM     23  C   UNL     1      -5.112  11.597  18.669  0.00  0.00    +0.000 C 
ATOM     24  C   UNL     1      -3.596  11.735  18.700  0.00  0.00    +0.000 C 
ATOM     25  N   UNL     1      -3.289  12.714  19.734  0.00  0.00    +0.000 N 
ATOM     26  C   UNL     1      -2.016  13.223  19.940  0.00  0.00    +0.000 C 
ATOM     27  O   UNL     1      -1.801  14.186  20.677  0.00  0.00    +0.000 OA
BRANCH  21  32
ATOM     28  C   UNL     1      -5.341  16.220  22.534  0.00  0.00    +0.000 A 
ATOM     29  C   UNL     1      -5.231  15.619  23.776  0.00  0.00    +0.000 A 
ATOM     30  C   UNL     1      -4.799  14.298  23.880  0.00  0.00    +0.000 A 
ATOM     31  C   UNL     1      -4.491  13.533  22.741  0.00  0.00    +0.000 A 
ATOM     32  C   UNL     1      -4.650  14.109  21.467  0.00  0.00    +0.000 A 
ATOM     33  C   UNL     1      -5.056  15.470  21.394  0.00  0.00    +0.000 A 
BRANCH  28  35
ATOM     34  C   UNL     1      -5.247  18.365  21.552  0.00  0.00    +0.000 C 
ATOM     35  O   UNL     1      -5.794  17.509  22.547  0.00  0.00    +0.000 OA
ENDBRANCH  28  35
BRANCH  31  36
ATOM     36  O   UNL     1      -4.101  12.219  22.831  0.00  0.00    +0.000 OA
ATOM     37  C   UNL     1      -2.771  12.010  23.320  0.00  0.00    +0.000 C 
ENDBRANCH  31  36
ENDBRANCH  21  32
ENDBRANCH  20  26
ENDBRANCH   1  20
TORSDOF 7
ENDMDL
MODEL 6
REMARK VINA RESULT:      -7.3      3.649      5.591
REMARK  Name = 
REMARK  13 active torsions:
REMARK  status: ('A' for Active; 'I' for Inactive)
REMARK    1  A    between atoms: C_1  and  O_2
REMARK    2  A    between atoms: O_2  and  C_3
REMARK    3  A    between atoms: C_6  and  O_7
REMARK    4  A    between atoms: O_7  and  C_8
REMARK    5  A    between atoms: C_9  and  C_10
REMARK    6  A    between atoms: C_15  and  C_17
REMARK    7  A    between atoms: C_17  and  N_18
REMARK    8  A    between atoms: C_22  and  C_23
REMARK    9  A    between atoms: C_22  and  C_24
REMARK   10  A    between atoms: C_27  and  C_28
REMARK   11  A    between atoms: C_28  and  C_29
REMARK   12  A    between atoms: C_28  and  C_30
REMARK   13  A    between atoms: C_28  and  C_31
REMARK                            x       y       z     vdW  Elec       q    Type
REMARK                         _______ _______ _______ _____ _____    ______ ____
ROOT
ATOM      1  N   UNL     1      -0.436  11.755  19.797  0.00  0.00    +0.000 N 
ATOM      2  C   UNL     1       0.738  12.210  20.328  0.00  0.00    +0.000 C 
ATOM      3  O   UNL     1       1.176  13.348  20.296  0.00  0.00    +0.000 OA
ATOM      4  N   UNL     1       1.375  11.161  20.940  0.00  0.00    +0.000 N 
ATOM      5  C   UNL     1       0.598   9.943  20.919  0.00  0.00    +0.000 C 
ATOM      6  C   UNL     1       0.215   9.608  22.366  0.00  0.00    +0.000 C 
ATOM      7  C   UNL     1      -0.640  10.446  20.131  0.00  0.00    +0.000 C 
ATOM      8  O   UNL     1      -1.630   9.788  19.860  0.00  0.00    +0.000 OA
ATOM      9  H   UNL     1       2.318  11.254  21.289  0.00  0.00    +0.000 HD
ENDROOT
BRANCH   5  10
ATOM     10  C   UNL     1       1.289   8.834  20.141  0.00  0.00    +0.000 A 
ATOM     11  C   UNL     1       1.766   9.048  18.845  0.00  0.00    +0.000 A 
ATOM     12  C   UNL     1       2.500   8.067  18.177  0.00  0.00    +0.000 A 
ATOM     13  C   UNL     1       2.810   6.836  18.772  0.00  0.00    +0.000 A 
ATOM     14  C   UNL     1       2.306   6.607  20.061  0.00  0.00    +0.000 A 
ATOM     15  C   UNL     1       1.569   7.591  20.735  0.00  0.00    +0.000 A 
BRANCH  13  16
ATOM     16  C   UNL     1       3.716   5.804  18.077  0.00  0.00    +0.000 C 
ATOM     17  C   UNL     1       4.813   5.260  19.022  0.00  0.00    +0.000 C 
ATOM     18  C   UNL     1       2.868   4.604  17.604  0.00  0.00    +0.000 C 
ATOM     19  C   UNL     1       4.423   6.417  16.854  0.00  0.00    +0.000 C 
ENDBRANCH  13  16
ENDBRANCH   5  10
BRANCH   1  20
ATOM     20  C   UNL     1      -1.287  12.533  18.934  0.00  0.00    +0.000 C 
BRANCH  20  26
ATOM     21  C   UNL     1      -4.870  13.328  20.199  0.00  0.00    +0.000 C 
ATOM     22  C   UNL     1      -5.918  12.213  20.083  0.00  0.00    +0.000 C 
ATOM     23  C   UNL     1      -5.548  11.528  18.774  0.00  0.00    +0.000 C 
ATOM     24  C   UNL     1      -4.040  11.709  18.664  0.00  0.00    +0.000 C 
ATOM     25  N   UNL     1      -3.663  12.688  19.675  0.00  0.00    +0.000 N 
ATOM     26  C   UNL     1      -2.391  13.232  19.764  0.00  0.00    +0.000 C 
ATOM     27  O   UNL     1      -2.134  14.194  20.488  0.00  0.00    +0.000 OA
BRANCH  21  32
ATOM     28  C   UNL     1      -5.600  16.085  22.705  0.00  0.00    +0.000 A 
ATOM     29  C   UNL     1      -5.304  15.491  23.919  0.00  0.00    +0.000 A 
ATOM     30  C   UNL     1      -4.770  14.204  23.958  0.00  0.00    +0.000 A 
ATOM     31  C   UNL     1      -4.545  13.465  22.783  0.00  0.00    +0.000 A 
ATOM     32  C   UNL     1      -4.893  14.031  21.542  0.00  0.00    +0.000 A 
ATOM     33  C   UNL     1      -5.400  15.360  21.532  0.00  0.00    +0.000 A 
BRANCH  28  35
ATOM     34  C   UNL     1      -5.763  18.238  21.750  0.00  0.00    +0.000 C 
ATOM     35  O   UNL     1      -6.139  17.339  22.785  0.00  0.00    +0.000 OA
ENDBRANCH  28  35
BRANCH  31  36
ATOM     36  O   UNL     1      -4.055  12.182  22.813  0.00  0.00    +0.000 OA
ATOM     37  C   UNL     1      -2.697  12.059  23.247  0.00  0.00    +0.000 C 
ENDBRANCH  31  36
ENDBRANCH  21  32
ENDBRANCH  20  26
ENDBRANCH   1  20
TORSDOF 7
ENDMDL
MODEL 7
REMARK VINA RESULT:      -7.3      3.951      6.186
REMARK  Name = 
REMARK  13 active torsions:
REMARK  status: ('A' for Active; 'I' for Inactive)
REMARK    1  A    between atoms: C_1  and  O_2
REMARK    2  A    between atoms: O_2  and  C_3
REMARK    3  A    between atoms: C_6  and  O_7
REMARK    4  A    between atoms: O_7  and  C_8
REMARK    5  A    between atoms: C_9  and  C_10
REMARK    6  A    between atoms: C_15  and  C_17
REMARK    7  A    between atoms: C_17  and  N_18
REMARK    8  A    between atoms: C_22  and  C_23
REMARK    9  A    between atoms: C_22  and  C_24
REMARK   10  A    between atoms: C_27  and  C_28
REMARK   11  A    between atoms: C_28  and  C_29
REMARK   12  A    between atoms: C_28  and  C_30
REMARK   13  A    between atoms: C_28  and  C_31
REMARK                            x       y       z     vdW  Elec       q    Type
REMARK                         _______ _______ _______ _____ _____    ______ ____
ROOT
ATOM      1  N   UNL     1      -0.996  11.215  18.907  0.00  0.00    +0.000 N 
ATOM      2  C   UNL     1       0.122  11.980  18.727  0.00  0.00    +0.000 C 
ATOM      3  O   UNL     1       0.222  13.008  18.080  0.00  0.00    +0.000 OA
ATOM      4  N   UNL     1       1.157  11.408  19.422  0.00  0.00    +0.000 N 
ATOM      5  C   UNL     1       0.750  10.251  20.185  0.00  0.00    +0.000 C 
ATOM      6  C   UNL     1       0.901  10.594  21.673  0.00  0.00    +0.000 C 
ATOM      7  C   UNL     1      -0.749  10.201  19.788  0.00  0.00    +0.000 C 
ATOM      8  O   UNL     1      -1.570   9.397  20.197  0.00  0.00    +0.000 OA
ATOM      9  H   UNL     1       2.103  11.746  19.323  0.00  0.00    +0.000 HD
ENDROOT
BRANCH   5  10
ATOM     10  C   UNL     1       1.449   8.982  19.722  0.00  0.00    +0.000 A 
ATOM     11  C   UNL     1       1.602   7.887  20.576  0.00  0.00    +0.000 A 
ATOM     12  C   UNL     1       2.139   6.684  20.116  0.00  0.00    +0.000 A 
ATOM     13  C   UNL     1       2.533   6.508  18.783  0.00  0.00    +0.000 A 
ATOM     14  C   UNL     1       2.408   7.615  17.931  0.00  0.00    +0.000 A 
ATOM     15  C   UNL     1       1.868   8.824  18.390  0.00  0.00    +0.000 A 
BRANCH  13  16
ATOM     16  C   UNL     1       3.017   5.146  18.252  0.00  0.00    +0.000 C 
ATOM     17  C   UNL     1       3.646   4.276  19.365  0.00  0.00    +0.000 C 
ATOM     18  C   UNL     1       1.824   4.364  17.664  0.00  0.00    +0.000 C 
ATOM     19  C   UNL     1       4.078   5.324  17.150  0.00  0.00    +0.000 C 
ENDBRANCH  13  16
ENDBRANCH   5  10
BRANCH   1  20
ATOM     20  C   UNL     1      -2.231  11.410  18.191  0.00  0.00    +0.000 C 
BRANCH  20  26
ATOM     21  C   UNL     1      -5.595  12.968  19.340  0.00  0.00    +0.000 C 
ATOM     22  C   UNL     1      -6.868  12.145  19.099  0.00  0.00    +0.000 C 
ATOM     23  C   UNL     1      -6.590  11.466  17.764  0.00  0.00    +0.000 C 
ATOM     24  C   UNL     1      -5.078  11.286  17.736  0.00  0.00    +0.000 C 
ATOM     25  N   UNL     1      -4.544  12.088  18.830  0.00  0.00    +0.000 N 
ATOM     26  C   UNL     1      -3.188  12.305  19.016  0.00  0.00    +0.000 C 
ATOM     27  O   UNL     1      -2.756  13.135  19.816  0.00  0.00    +0.000 OA
BRANCH  21  32
ATOM     28  C   UNL     1      -5.436  13.056  23.133  0.00  0.00    +0.000 A 
ATOM     29  C   UNL     1      -5.181  14.389  23.404  0.00  0.00    +0.000 A 
ATOM     30  C   UNL     1      -5.144  15.321  22.368  0.00  0.00    +0.000 A 
ATOM     31  C   UNL     1      -5.331  14.939  21.027  0.00  0.00    +0.000 A 
ATOM     32  C   UNL     1      -5.535  13.579  20.727  0.00  0.00    +0.000 A 
ATOM     33  C   UNL     1      -5.606  12.658  21.808  0.00  0.00    +0.000 A 
BRANCH  28  35
ATOM     34  C   UNL     1      -4.405  12.474  25.176  0.00  0.00    +0.000 C 
ATOM     35  O   UNL     1      -5.428  12.228  24.220  0.00  0.00    +0.000 OA
ENDBRANCH  28  35
BRANCH  31  36
ATOM     36  O   UNL     1      -5.258  15.843  19.996  0.00  0.00    +0.000 OA
ATOM     37  C   UNL     1      -6.459  16.582  19.747  0.00  0.00    +0.000 C 
ENDBRANCH  31  36
ENDBRANCH  21  32
ENDBRANCH  20  26
ENDBRANCH   1  20
TORSDOF 7
ENDMDL
MODEL 8
REMARK VINA RESULT:      -7.3      3.964      5.575
REMARK  Name = 
REMARK  13 active torsions:
REMARK  status: ('A' for Active; 'I' for Inactive)
REMARK    1  A    between atoms: C_1  and  O_2
REMARK    2  A    between atoms: O_2  and  C_3
REMARK    3  A    between atoms: C_6  and  O_7
REMARK    4  A    between atoms: O_7  and  C_8
REMARK    5  A    between atoms: C_9  and  C_10
REMARK    6  A    between atoms: C_15  and  C_17
REMARK    7  A    between atoms: C_17  and  N_18
REMARK    8  A    between atoms: C_22  and  C_23
REMARK    9  A    between atoms: C_22  and  C_24
REMARK   10  A    between atoms: C_27  and  C_28
REMARK   11  A    between atoms: C_28  and  C_29
REMARK   12  A    between atoms: C_28  and  C_30
REMARK   13  A    between atoms: C_28  and  C_31
REMARK                            x       y       z     vdW  Elec       q    Type
REMARK                         _______ _______ _______ _____ _____    ______ ____
ROOT
ATOM      1  N   UNL     1      -0.252  11.380  19.942  0.00  0.00    +0.000 N 
ATOM      2  C   UNL     1       0.715  11.564  20.890  0.00  0.00    +0.000 C 
ATOM      3  O   UNL     1       1.140  12.622  21.321  0.00  0.00    +0.000 OA
ATOM      4  N   UNL     1       1.147  10.334  21.316  0.00  0.00    +0.000 N 
ATOM      5  C   UNL     1       0.413   9.243  20.718  0.00  0.00    +0.000 C 
ATOM      6  C   UNL     1      -0.375   8.543  21.832  0.00  0.00    +0.000 C 
ATOM      7  C   UNL     1      -0.542  10.052  19.801  0.00  0.00    +0.000 C 
ATOM      8  O   UNL     1      -1.408   9.585  19.081  0.00  0.00    +0.000 OA
ATOM      9  H   UNL     1       1.947  10.243  21.924  0.00  0.00    +0.000 HD
ENDROOT
BRANCH   5  10
ATOM     10  C   UNL     1       1.304   8.347  19.871  0.00  0.00    +0.000 A 
ATOM     11  C   UNL     1       1.844   8.796  18.663  0.00  0.00    +0.000 A 
ATOM     12  C   UNL     1       2.751   8.016  17.945  0.00  0.00    +0.000 A 
ATOM     13  C   UNL     1       3.178   6.762  18.403  0.00  0.00    +0.000 A 
ATOM     14  C   UNL     1       2.614   6.295  19.600  0.00  0.00    +0.000 A 
ATOM     15  C   UNL     1       1.703   7.077  20.323  0.00  0.00    +0.000 A 
BRANCH  13  16
ATOM     16  C   UNL     1       4.264   5.956  17.668  0.00  0.00    +0.000 C 
ATOM     17  C   UNL     1       4.840   6.722  16.454  0.00  0.00    +0.000 C 
ATOM     18  C   UNL     1       5.432   5.660  18.633  0.00  0.00    +0.000 C 
ATOM     19  C   UNL     1       3.708   4.618  17.148  0.00  0.00    +0.000 C 
ENDBRANCH  13  16
ENDBRANCH   5  10
BRANCH   1  20
ATOM     20  C   UNL     1      -0.816  12.441  19.147  0.00  0.00    +0.000 C 
BRANCH  20  26
ATOM     21  C   UNL     1      -4.429  12.472  20.565  0.00  0.00    +0.000 C 
ATOM     22  C   UNL     1      -4.679  13.300  21.832  0.00  0.00    +0.000 C 
ATOM     23  C   UNL     1      -3.393  13.108  22.626  0.00  0.00    +0.000 C 
ATOM     24  C   UNL     1      -2.317  12.918  21.566  0.00  0.00    +0.000 C 
ATOM     25  N   UNL     1      -3.010  12.708  20.302  0.00  0.00    +0.000 N 
ATOM     26  C   UNL     1      -2.360  12.334  19.136  0.00  0.00    +0.000 C 
ATOM     27  O   UNL     1      -2.969  11.971  18.129  0.00  0.00    +0.000 OA
BRANCH  21  32
ATOM     28  C   UNL     1      -6.664  14.369  18.151  0.00  0.00    +0.000 A 
ATOM     29  C   UNL     1      -7.228  13.361  17.390  0.00  0.00    +0.000 A 
ATOM     30  C   UNL     1      -6.973  12.025  17.693  0.00  0.00    +0.000 A 
ATOM     31  C   UNL     1      -6.120  11.661  18.752  0.00  0.00    +0.000 A 
ATOM     32  C   UNL     1      -5.492  12.674  19.502  0.00  0.00    +0.000 A 
ATOM     33  C   UNL     1      -5.803  14.026  19.193  0.00  0.00    +0.000 A 
BRANCH  28  35
ATOM     34  C   UNL     1      -7.718  15.748  16.551  0.00  0.00    +0.000 C 
ATOM     35  O   UNL     1      -6.965  15.641  17.752  0.00  0.00    +0.000 OA
ENDBRANCH  28  35
BRANCH  31  36
ATOM     36  O   UNL     1      -5.831  10.349  19.035  0.00  0.00    +0.000 OA
ATOM     37  C   UNL     1      -6.961   9.534  19.365  0.00  0.00    +0.000 C 
ENDBRANCH  31  36
ENDBRANCH  21  32
ENDBRANCH  20  26
ENDBRANCH   1  20
TORSDOF 7
ENDMDL
MODEL 9
REMARK VINA RESULT:      -7.2      2.952      4.032
REMARK  Name = 
REMARK  13 active torsions:
REMARK  status: ('A' for Active; 'I' for Inactive)
REMARK    1  A    between atoms: C_1  and  O_2
REMARK    2  A    between atoms: O_2  and  C_3
REMARK    3  A    between atoms: C_6  and  O_7
REMARK    4  A    between atoms: O_7  and  C_8
REMARK    5  A    between atoms: C_9  and  C_10
REMARK    6  A    between atoms: C_15  and  C_17
REMARK    7  A    between atoms: C_17  and  N_18
REMARK    8  A    between atoms: C_22  and  C_23
REMARK    9  A    between atoms: C_22  and  C_24
REMARK   10  A    between atoms: C_27  and  C_28
REMARK   11  A    between atoms: C_28  and  C_29
REMARK   12  A    between atoms: C_28  and  C_30
REMARK   13  A    between atoms: C_28  and  C_31
REMARK                            x       y       z     vdW  Elec       q    Type
REMARK                         _______ _______ _______ _____ _____    ______ ____
ROOT
ATOM      1  N   UNL     1       0.671  12.305  20.860  0.00  0.00    +0.000 N 
ATOM      2  C   UNL     1      -0.043  11.479  21.683  0.00  0.00    +0.000 C 
ATOM      3  O   UNL     1      -0.366  11.683  22.841  0.00  0.00    +0.000 OA
ATOM      4  N   UNL     1      -0.369  10.344  20.985  0.00  0.00    +0.000 N 
ATOM      5  C   UNL     1       0.050  10.395  19.604  0.00  0.00    +0.000 C 
ATOM      6  C   UNL     1      -1.212  10.418  18.733  0.00  0.00    +0.000 C 
ATOM      7  C   UNL     1       0.740  11.785  19.599  0.00  0.00    +0.000 C 
ATOM      8  O   UNL     1       1.251  12.326  18.633  0.00  0.00    +0.000 OA
ATOM      9  H   UNL     1      -0.789   9.550  21.446  0.00  0.00    +0.000 HD
ENDROOT
BRANCH   5  10
ATOM     10  C   UNL     1       1.067   9.314  19.271  0.00  0.00    +0.000 A 
ATOM     11  C   UNL     1       1.388   8.314  20.193  0.00  0.00    +0.000 A 
ATOM     12  C   UNL     1       2.234   7.260  19.846  0.00  0.00    +0.000 A 
ATOM     13  C   UNL     1       2.784   7.139  18.563  0.00  0.00    +0.000 A 
ATOM     14  C   UNL     1       2.488   8.158  17.645  0.00  0.00    +0.000 A 
ATOM     15  C   UNL     1       1.639   9.219  17.990  0.00  0.00    +0.000 A 
BRANCH  13  16
ATOM     16  C   UNL     1       3.621   5.916  18.149  0.00  0.00    +0.000 C 
ATOM     17  C   UNL     1       2.738   4.723  17.716  0.00  0.00    +0.000 C 
ATOM     18  C   UNL     1       4.528   6.286  16.957  0.00  0.00    +0.000 C 
ATOM     19  C   UNL     1       4.512   5.433  19.310  0.00  0.00    +0.000 C 
ENDBRANCH  13  16
ENDBRANCH   5  10
BRANCH   1  20
ATOM     20  C   UNL     1       1.328  13.509  21.298  0.00  0.00    +0.000 C 
BRANCH  20  26
ATOM     21  C   UNL     1      -1.137  16.505  21.152  0.00  0.00    +0.000 C 
ATOM     22  C   UNL     1      -1.729  16.859  19.782  0.00  0.00    +0.000 C 
ATOM     23  C   UNL     1      -0.575  16.585  18.827  0.00  0.00    +0.000 C 
ATOM     24  C   UNL     1       0.207  15.458  19.489  0.00  0.00    +0.000 C 
ATOM     25  N   UNL     1      -0.303  15.342  20.849  0.00  0.00    +0.000 N 
ATOM     26  C   UNL     1       0.282  14.531  21.809  0.00  0.00    +0.000 C 
ATOM     27  O   UNL     1      -0.030  14.586  22.998  0.00  0.00    +0.000 OA
BRANCH  21  32
ATOM     28  C   UNL     1      -4.181  15.341  23.100  0.00  0.00    +0.000 A 
ATOM     29  C   UNL     1      -4.085  16.051  24.284  0.00  0.00    +0.000 A 
ATOM     30  C   UNL     1      -3.078  17.000  24.453  0.00  0.00    +0.000 A 
ATOM     31  C   UNL     1      -2.121  17.244  23.451  0.00  0.00    +0.000 A 
ATOM     32  C   UNL     1      -2.169  16.491  22.263  0.00  0.00    +0.000 A 
ATOM     33  C   UNL     1      -3.230  15.558  22.104  0.00  0.00    +0.000 A 
BRANCH  28  35
ATOM     34  C   UNL     1      -5.025  13.278  23.880  0.00  0.00    +0.000 C 
ATOM     35  O   UNL     1      -5.191  14.422  23.051  0.00  0.00    +0.000 OA
ENDBRANCH  28  35
BRANCH  31  36
ATOM     36  O   UNL     1      -1.103  18.149  23.623  0.00  0.00    +0.000 OA
ATOM     37  C   UNL     1      -0.065  17.736  24.519  0.00  0.00    +0.000 C 
ENDBRANCH  31  36
ENDBRANCH  21  32
ENDBRANCH  20  26
ENDBRANCH   1  20
TORSDOF 7
ENDMDL
