MODEL 1
REMARK VINA RESULT:      -8.6      0.000      0.000
REMARK  Name = 
REMARK  5 active torsions:
REMARK  status: ('A' for Active; 'I' for Inactive)
REMARK    1  A    between atoms: C_1  and  N_2
REMARK    2  A    between atoms: C_8  and  N_9
REMARK    3  A    between atoms: C_12  and  O_13
REMARK    4  A    between atoms: O_13  and  C_14
REMARK    5  A    between atoms: C_14  and  C_15
REMARK                            x       y       z     vdW  Elec       q    Type
REMARK                         _______ _______ _______ _____ _____    ______ ____
ROOT
ATOM      1  C   UNL     1      -3.650  10.923  18.048  0.00  0.00    +0.000 C 
ATOM      2  N   UNL     1      -2.947  11.612  19.108  0.00  0.00    +0.000 N 
ATOM      3  C   UNL     1      -3.431  12.628  19.889  0.00  0.00    +0.000 A 
ATOM      4  C   UNL     1      -2.456  12.999  20.790  0.00  0.00    +0.000 A 
ATOM      5  C   UNL     1      -1.334  12.150  20.572  0.00  0.00    +0.000 A 
ATOM      6  C   UNL     1      -0.080  12.009  21.199  0.00  0.00    +0.000 A 
ATOM      7  C   UNL     1       0.768  10.963  20.840  0.00  0.00    +0.000 A 
ATOM      8  C   UNL     1       0.417  10.109  19.800  0.00  0.00    +0.000 A 
ATOM      9  C   UNL     1      -0.790  10.278  19.102  0.00  0.00    +0.000 A 
ATOM     10  C   UNL     1      -1.671  11.282  19.530  0.00  0.00    +0.000 A 
ATOM     11  C   UNL     1      -2.639  14.050  21.854  0.00  0.00    +0.000 C 
ATOM     12  C   UNL     1      -2.410  13.449  23.252  0.00  0.00    +0.000 C 
ATOM     13  C   UNL     1      -2.552  14.523  24.308  0.00  0.00    +0.000 C 
ATOM     14  C   UNL     1      -3.983  15.017  24.256  0.00  0.00    +0.000 C 
ATOM     15  C   UNL     1      -4.317  15.577  22.869  0.00  0.00    +0.000 C 
ATOM     16  N   UNL     1      -3.945  14.754  21.709  0.00  0.00    +0.000 NA
ATOM     17  C   UNL     1      -5.061  13.928  21.209  0.00  0.00    +0.000 C 
ATOM     18  C   UNL     1      -4.774  13.259  19.840  0.00  0.00    +0.000 C 
ENDROOT
BRANCH   8  19
ATOM     19  N   UNL     1       1.311   9.080  19.394  0.00  0.00    +0.000 N 
ATOM     20  C   UNL     1       1.508   7.993  20.227  0.00  0.00    +0.000 A 
ATOM     21  C   UNL     1       2.364   7.016  19.926  0.00  0.00    +0.000 A 
ATOM     22  C   UNL     1       3.128   7.080  18.704  0.00  0.00    +0.000 A 
ATOM     23  C   UNL     1       2.974   8.119  17.872  0.00  0.00    +0.000 A 
ATOM     24  C   UNL     1       1.991   9.195  18.164  0.00  0.00    +0.000 A 
ATOM     25  O   UNL     1       1.876  10.113  17.351  0.00  0.00    +0.000 OA
BRANCH  22  26
ATOM     26  O   UNL     1       4.035   6.085  18.400  0.00  0.00    +0.000 OA
BRANCH  26  27
ATOM     27  C   UNL     1       3.684   5.224  17.316  0.00  0.00    +0.000 C 
BRANCH  27  28
ATOM     28  C   UNL     1       3.000   4.002  17.859  0.00  0.00    +0.000 A 
ATOM     29  C   UNL     1       3.740   2.872  18.226  0.00  0.00    +0.000 A 
ATOM     30  C   UNL     1       3.090   1.748  18.740  0.00  0.00    +0.000 A 
ATOM     31  C   UNL     1       1.703   1.744  18.883  0.00  0.00    +0.000 A 
ATOM     32  C   UNL     1       0.963   2.859  18.508  0.00  0.00    +0.000 A 
ATOM     33  C   UNL     1       1.605   3.986  17.994  0.00  0.00    +0.000 A 
ENDBRANCH  27  28
ENDBRANCH  26  27
ENDBRANCH  22  26
ENDBRANCH   8  19
TORSDOF 4
ENDMDL
MODEL 2
REMARK VINA RESULT:      -8.6      1.799      2.737
REMARK  Name = 
REMARK  5 active torsions:
REMARK  status: ('A' for Active; 'I' for Inactive)
REMARK    1  A    between atoms: C_1  and  N_2
REMARK    2  A    between atoms: C_8  and  N_9
REMARK    3  A    between atoms: C_12  and  O_13
REMARK    4  A    between atoms: O_13  and  C_14
REMARK    5  A    between atoms: C_14  and  C_15
REMARK                            x       y       z     vdW  Elec       q    Type
REMARK                         _______ _______ _______ _____ _____    ______ ____
ROOT
ATOM      1  C   UNL     1      -3.443  11.347  18.495  0.00  0.00    +0.000 C 
ATOM      2  N   UNL     1      -2.583  11.949  19.490  0.00  0.00    +0.000 N 
ATOM      3  C   UNL     1      -2.866  13.041  20.267  0.00  0.00    +0.000 A 
ATOM      4  C   UNL     1      -1.793  13.285  21.097  0.00  0.00    +0.000 A 
ATOM      5  C   UNL     1      -0.821  12.277  20.839  0.00  0.00    +0.000 A 
ATOM      6  C   UNL     1       0.437  11.969  21.395  0.00  0.00    +0.000 A 
ATOM      7  C   UNL     1       1.102  10.803  21.018  0.00  0.00    +0.000 A 
ATOM      8  C   UNL     1       0.567   9.988  20.026  0.00  0.00    +0.000 A 
ATOM      9  C   UNL     1      -0.645  10.315  19.396  0.00  0.00    +0.000 A 
ATOM     10  C   UNL     1      -1.343  11.446  19.845  0.00  0.00    +0.000 A 
ATOM     11  C   UNL     1      -1.756  14.373  22.138  0.00  0.00    +0.000 C 
ATOM     12  C   UNL     1      -1.528  13.775  23.537  0.00  0.00    +0.000 C 
ATOM     13  C   UNL     1      -1.448  14.881  24.568  0.00  0.00    +0.000 C 
ATOM     14  C   UNL     1      -2.794  15.576  24.586  0.00  0.00    +0.000 C 
ATOM     15  C   UNL     1      -3.130  16.149  23.205  0.00  0.00    +0.000 C 
ATOM     16  N   UNL     1      -2.954  15.256  22.049  0.00  0.00    +0.000 NA
ATOM     17  C   UNL     1      -4.206  14.591  21.642  0.00  0.00    +0.000 C 
ATOM     18  C   UNL     1      -4.105  13.858  20.279  0.00  0.00    +0.000 C 
ENDROOT
BRANCH   8  19
ATOM     19  N   UNL     1       1.277   8.831  19.599  0.00  0.00    +0.000 N 
ATOM     20  C   UNL     1       1.399   7.760  20.466  0.00  0.00    +0.000 A 
ATOM     21  C   UNL     1       2.087   6.664  20.143  0.00  0.00    +0.000 A 
ATOM     22  C   UNL     1       2.743   6.577  18.861  0.00  0.00    +0.000 A 
ATOM     23  C   UNL     1       2.656   7.596  17.995  0.00  0.00    +0.000 A 
ATOM     24  C   UNL     1       1.855   8.807  18.314  0.00  0.00    +0.000 A 
ATOM     25  O   UNL     1       1.793   9.700  17.469  0.00  0.00    +0.000 OA
BRANCH  22  26
ATOM     26  O   UNL     1       3.478   5.456  18.533  0.00  0.00    +0.000 OA
BRANCH  26  27
ATOM     27  C   UNL     1       4.332   5.575  17.394  0.00  0.00    +0.000 C 
BRANCH  27  28
ATOM     28  C   UNL     1       5.693   6.024  17.844  0.00  0.00    +0.000 A 
ATOM     29  C   UNL     1       6.337   5.391  18.913  0.00  0.00    +0.000 A 
ATOM     30  C   UNL     1       7.607   5.812  19.311  0.00  0.00    +0.000 A 
ATOM     31  C   UNL     1       8.236   6.868  18.651  0.00  0.00    +0.000 A 
ATOM     32  C   UNL     1       7.594   7.507  17.596  0.00  0.00    +0.000 A 
ATOM     33  C   UNL     1       6.325   7.091  17.192  0.00  0.00    +0.000 A 
ENDBRANCH  27  28
ENDBRANCH  26  27
ENDBRANCH  22  26
ENDBRANCH   8  19
TORSDOF 4
ENDMDL
MODEL 3
REMARK VINA RESULT:      -8.6      1.178      1.454
REMARK  Name = 
REMARK  5 active torsions:
REMARK  status: ('A' for Active; 'I' for Inactive)
REMARK    1  A    between atoms: C_1  and  N_2
REMARK    2  A    between atoms: C_8  and  N_9
REMARK    3  A    between atoms: C_12  and  O_13
REMARK    4  A    between atoms: O_13  and  C_14
REMARK    5  A    between atoms: C_14  and  C_15
REMARK                            x       y       z     vdW  Elec       q    Type
REMARK                         _______ _______ _______ _____ _____    ______ ____
ROOT
ATOM      1  C   UNL     1      -3.793  10.401  17.514  0.00  0.00    +0.000 C 
ATOM      2  N   UNL     1      -3.196  11.215  18.550  0.00  0.00    +0.000 N 
ATOM      3  C   UNL     1      -3.793  12.242  19.233  0.00  0.00    +0.000 A 
ATOM      4  C   UNL     1      -2.893  12.749  20.146  0.00  0.00    +0.000 A 
ATOM      5  C   UNL     1      -1.702  11.977  20.039  0.00  0.00    +0.000 A 
ATOM      6  C   UNL     1      -0.472  11.979  20.729  0.00  0.00    +0.000 A 
ATOM      7  C   UNL     1       0.468  10.980  20.484  0.00  0.00    +0.000 A 
ATOM      8  C   UNL     1       0.233  10.031  19.495  0.00  0.00    +0.000 A 
ATOM      9  C   UNL     1      -0.948  10.056  18.735  0.00  0.00    +0.000 A 
ATOM     10  C   UNL     1      -1.921  11.016  19.050  0.00  0.00    +0.000 A 
ATOM     11  C   UNL     1      -3.206  13.853  21.122  0.00  0.00    +0.000 C 
ATOM     12  C   UNL     1      -3.001  13.371  22.568  0.00  0.00    +0.000 C 
ATOM     13  C   UNL     1      -3.274  14.502  23.537  0.00  0.00    +0.000 C 
ATOM     14  C   UNL     1      -4.735  14.877  23.386  0.00  0.00    +0.000 C 
ATOM     15  C   UNL     1      -5.041  15.311  21.950  0.00  0.00    +0.000 C 
ATOM     16  N   UNL     1      -4.552  14.441  20.869  0.00  0.00    +0.000 NA
ATOM     17  C   UNL     1      -5.578  13.499  20.383  0.00  0.00    +0.000 C 
ATOM     18  C   UNL     1      -5.175  12.760  19.081  0.00  0.00    +0.000 C 
ENDROOT
BRANCH   8  19
ATOM     19  N   UNL     1       1.221   9.049  19.204  0.00  0.00    +0.000 N 
ATOM     20  C   UNL     1       1.808   9.036  17.951  0.00  0.00    +0.000 A 
ATOM     21  C   UNL     1       2.709   8.118  17.601  0.00  0.00    +0.000 A 
ATOM     22  C   UNL     1       3.089   7.088  18.539  0.00  0.00    +0.000 A 
ATOM     23  C   UNL     1       2.539   7.060  19.760  0.00  0.00    +0.000 A 
ATOM     24  C   UNL     1       1.569   8.102  20.188  0.00  0.00    +0.000 A 
ATOM     25  O   UNL     1       1.115   8.037  21.331  0.00  0.00    +0.000 OA
BRANCH  22  26
ATOM     26  O   UNL     1       4.001   6.120  18.172  0.00  0.00    +0.000 OA
BRANCH  26  27
ATOM     27  C   UNL     1       3.466   4.960  17.535  0.00  0.00    +0.000 C 
BRANCH  27  28
ATOM     28  C   UNL     1       2.814   4.086  18.569  0.00  0.00    +0.000 A 
ATOM     29  C   UNL     1       3.540   3.619  19.670  0.00  0.00    +0.000 A 
ATOM     30  C   UNL     1       2.917   2.817  20.628  0.00  0.00    +0.000 A 
ATOM     31  C   UNL     1       1.572   2.474  20.489  0.00  0.00    +0.000 A 
ATOM     32  C   UNL     1       0.850   2.926  19.391  0.00  0.00    +0.000 A 
ATOM     33  C   UNL     1       1.466   3.728  18.429  0.00  0.00    +0.000 A 
ENDBRANCH  27  28
ENDBRANCH  26  27
ENDBRANCH  22  26
ENDBRANCH   8  19
TORSDOF 4
ENDMDL
MODEL 4
REMARK VINA RESULT:      -8.5      1.307      1.608
REMARK  Name = 
REMARK  5 active torsions:
REMARK  status: ('A' for Active; 'I' for Inactive)
REMARK    1  A    between atoms: C_1  and  N_2
REMARK    2  A    between atoms: C_8  and  N_9
REMARK    3  A    between atoms: C_12  and  O_13
REMARK    4  A    between atoms: O_13  and  C_14
REMARK    5  A    between atoms: C_14  and  C_15
REMARK                            x       y       z     vdW  Elec       q    Type
REMARK                         _______ _______ _______ _____ _____    ______ ____
ROOT
ATOM      1  C   UNL     1      -4.327  10.769  17.824  0.00  0.00    +0.000 C 
ATOM      2  N   UNL     1      -3.725  11.586  18.854  0.00  0.00    +0.000 N 
ATOM      3  C   UNL     1      -4.322  12.607  19.545  0.00  0.00    +0.000 A 
ATOM      4  C   UNL     1      -3.416  13.121  20.449  0.00  0.00    +0.000 A 
ATOM      5  C   UNL     1      -2.220  12.359  20.328  0.00  0.00    +0.000 A 
ATOM      6  C   UNL     1      -0.983  12.369  21.004  0.00  0.00    +0.000 A 
ATOM      7  C   UNL     1      -0.037  11.379  20.747  0.00  0.00    +0.000 A 
ATOM      8  C   UNL     1      -0.276  10.429  19.759  0.00  0.00    +0.000 A 
ATOM      9  C   UNL     1      -1.465  10.445  19.012  0.00  0.00    +0.000 A 
ATOM     10  C   UNL     1      -2.442  11.397  19.339  0.00  0.00    +0.000 A 
ATOM     11  C   UNL     1      -3.728  14.221  21.429  0.00  0.00    +0.000 C 
ATOM     12  C   UNL     1      -3.502  13.738  22.873  0.00  0.00    +0.000 C 
ATOM     13  C   UNL     1      -3.774  14.866  23.846  0.00  0.00    +0.000 C 
ATOM     14  C   UNL     1      -5.239  15.230  23.712  0.00  0.00    +0.000 C 
ATOM     15  C   UNL     1      -5.565  15.663  22.280  0.00  0.00    +0.000 C 
ATOM     16  N   UNL     1      -5.082  14.799  21.193  0.00  0.00    +0.000 NA
ATOM     17  C   UNL     1      -6.104  13.848  20.717  0.00  0.00    +0.000 C 
ATOM     18  C   UNL     1      -5.710  13.115  19.409  0.00  0.00    +0.000 C 
ENDROOT
BRANCH   8  19
ATOM     19  N   UNL     1       0.717   9.456  19.456  0.00  0.00    +0.000 N 
ATOM     20  C   UNL     1       1.273   9.435  18.189  0.00  0.00    +0.000 A 
ATOM     21  C   UNL     1       2.177   8.523  17.828  0.00  0.00    +0.000 A 
ATOM     22  C   UNL     1       2.592   7.510  18.768  0.00  0.00    +0.000 A 
ATOM     23  C   UNL     1       2.072   7.490  20.003  0.00  0.00    +0.000 A 
ATOM     24  C   UNL     1       1.100   8.525  20.442  0.00  0.00    +0.000 A 
ATOM     25  O   UNL     1       0.675   8.468  21.596  0.00  0.00    +0.000 OA
BRANCH  22  26
ATOM     26  O   UNL     1       3.507   6.548  18.391  0.00  0.00    +0.000 OA
BRANCH  26  27
ATOM     27  C   UNL     1       3.814   5.554  19.369  0.00  0.00    +0.000 C 
BRANCH  27  28
ATOM     28  C   UNL     1       2.926   4.361  19.156  0.00  0.00    +0.000 A 
ATOM     29  C   UNL     1       3.038   3.584  17.998  0.00  0.00    +0.000 A 
ATOM     30  C   UNL     1       2.213   2.472  17.820  0.00  0.00    +0.000 A 
ATOM     31  C   UNL     1       1.271   2.135  18.791  0.00  0.00    +0.000 A 
ATOM     32  C   UNL     1       1.147   2.912  19.937  0.00  0.00    +0.000 A 
ATOM     33  C   UNL     1       1.968   4.025  20.122  0.00  0.00    +0.000 A 
ENDBRANCH  27  28
ENDBRANCH  26  27
ENDBRANCH  22  26
ENDBRANCH   8  19
TORSDOF 4
ENDMDL
MODEL 5
REMARK VINA RESULT:      -8.5      1.288      1.622
REMARK  Name = 
REMARK  5 active torsions:
REMARK  status: ('A' for Active; 'I' for Inactive)
REMARK    1  A    between atoms: C_1  and  N_2
REMARK    2  A    between atoms: C_8  and  N_9
REMARK    3  A    between atoms: C_12  and  O_13
REMARK    4  A    between atoms: O_13  and  C_14
REMARK    5  A    between atoms: C_14  and  C_15
REMARK                            x       y       z     vdW  Elec       q    Type
REMARK                         _______ _______ _______ _____ _____    ______ ____
ROOT
ATOM      1  C   UNL     1      -3.928  11.550  18.538  0.00  0.00    +0.000 C 
ATOM      2  N   UNL     1      -3.142  12.208  19.558  0.00  0.00    +0.000 N 
ATOM      3  C   UNL     1      -3.546  13.234  20.371  0.00  0.00    +0.000 A 
ATOM      4  C   UNL     1      -2.508  13.566  21.215  0.00  0.00    +0.000 A 
ATOM      5  C   UNL     1      -1.429  12.682  20.927  0.00  0.00    +0.000 A 
ATOM      6  C   UNL     1      -0.146  12.496  21.479  0.00  0.00    +0.000 A 
ATOM      7  C   UNL     1       0.645  11.425  21.065  0.00  0.00    +0.000 A 
ATOM      8  C   UNL     1       0.205  10.591  20.043  0.00  0.00    +0.000 A 
ATOM      9  C   UNL     1      -1.034  10.804  19.418  0.00  0.00    +0.000 A 
ATOM     10  C   UNL     1      -1.855  11.834  19.903  0.00  0.00    +0.000 A 
ATOM     11  C   UNL     1      -2.593  14.614  22.294  0.00  0.00    +0.000 C 
ATOM     12  C   UNL     1      -2.302  13.996  23.673  0.00  0.00    +0.000 C 
ATOM     13  C   UNL     1      -2.347  15.067  24.742  0.00  0.00    +0.000 C 
ATOM     14  C   UNL     1      -3.762  15.607  24.776  0.00  0.00    +0.000 C 
ATOM     15  C   UNL     1      -4.158  16.187  23.415  0.00  0.00    +0.000 C 
ATOM     16  N   UNL     1      -3.882  15.361  22.230  0.00  0.00    +0.000 NA
ATOM     17  C   UNL     1      -5.052  14.576  21.792  0.00  0.00    +0.000 C 
ATOM     18  C   UNL     1      -4.868  13.907  20.405  0.00  0.00    +0.000 C 
ENDROOT
BRANCH   8  19
ATOM     19  N   UNL     1       1.040   9.536  19.580  0.00  0.00    +0.000 N 
ATOM     20  C   UNL     1       1.453   9.536  18.259  0.00  0.00    +0.000 A 
ATOM     21  C   UNL     1       2.201   8.556  17.752  0.00  0.00    +0.000 A 
ATOM     22  C   UNL     1       2.593   7.444  18.584  0.00  0.00    +0.000 A 
ATOM     23  C   UNL     1       2.208   7.402  19.867  0.00  0.00    +0.000 A 
ATOM     24  C   UNL     1       1.415   8.507  20.466  0.00  0.00    +0.000 A 
ATOM     25  O   UNL     1       1.110   8.422  21.656  0.00  0.00    +0.000 OA
BRANCH  22  26
ATOM     26  O   UNL     1       3.345   6.414  18.057  0.00  0.00    +0.000 OA
BRANCH  26  27
ATOM     27  C   UNL     1       3.837   5.452  18.991  0.00  0.00    +0.000 C 
BRANCH  27  28
ATOM     28  C   UNL     1       2.770   4.426  19.249  0.00  0.00    +0.000 A 
ATOM     29  C   UNL     1       2.085   3.825  18.188  0.00  0.00    +0.000 A 
ATOM     30  C   UNL     1       1.105   2.864  18.445  0.00  0.00    +0.000 A 
ATOM     31  C   UNL     1       0.800   2.505  19.758  0.00  0.00    +0.000 A 
ATOM     32  C   UNL     1       1.470   3.109  20.815  0.00  0.00    +0.000 A 
ATOM     33  C   UNL     1       2.451   4.070  20.567  0.00  0.00    +0.000 A 
ENDBRANCH  27  28
ENDBRANCH  26  27
ENDBRANCH  22  26
ENDBRANCH   8  19
TORSDOF 4
ENDMDL
MODEL 6
REMARK VINA RESULT:      -8.5      2.413      3.418
REMARK  Name = 
REMARK  5 active torsions:
REMARK  status: ('A' for Active; 'I' for Inactive)
REMARK    1  A    between atoms: C_1  and  N_2
REMARK    2  A    between atoms: C_8  and  N_9
REMARK    3  A    between atoms: C_12  and  O_13
REMARK    4  A    between atoms: O_13  and  C_14
REMARK    5  A    between atoms: C_14  and  C_15
REMARK                            x       y       z     vdW  Elec       q    Type
REMARK                         _______ _______ _______ _____ _____    ______ ____
ROOT
ATOM      1  C   UNL     1       1.068  13.776  18.734  0.00  0.00    +0.000 C 
ATOM      2  N   UNL     1       0.487  13.208  19.930  0.00  0.00    +0.000 N 
ATOM      3  C   UNL     1      -0.296  13.855  20.849  0.00  0.00    +0.000 A 
ATOM      4  C   UNL     1      -0.660  12.960  21.832  0.00  0.00    +0.000 A 
ATOM      5  C   UNL     1      -0.101  11.698  21.483  0.00  0.00    +0.000 A 
ATOM      6  C   UNL     1      -0.163  10.411  22.053  0.00  0.00    +0.000 A 
ATOM      7  C   UNL     1       0.387   9.321  21.381  0.00  0.00    +0.000 A 
ATOM      8  C   UNL     1       1.077   9.515  20.189  0.00  0.00    +0.000 A 
ATOM      9  C   UNL     1       1.226  10.799  19.641  0.00  0.00    +0.000 A 
ATOM     10  C   UNL     1       0.595  11.874  20.284  0.00  0.00    +0.000 A 
ATOM     11  C   UNL     1      -1.570  13.290  22.986  0.00  0.00    +0.000 C 
ATOM     12  C   UNL     1      -2.808  12.376  22.978  0.00  0.00    +0.000 C 
ATOM     13  C   UNL     1      -3.691  12.688  24.167  0.00  0.00    +0.000 C 
ATOM     14  C   UNL     1      -4.178  14.113  24.004  0.00  0.00    +0.000 C 
ATOM     15  C   UNL     1      -2.998  15.088  23.938  0.00  0.00    +0.000 C 
ATOM     16  N   UNL     1      -1.896  14.745  23.027  0.00  0.00    +0.000 NA
ATOM     17  C   UNL     1      -2.007  15.409  21.715  0.00  0.00    +0.000 C 
ATOM     18  C   UNL     1      -0.734  15.273  20.840  0.00  0.00    +0.000 C 
ENDROOT
BRANCH   8  19
ATOM     19  N   UNL     1       1.690   8.409  19.536  0.00  0.00    +0.000 N 
ATOM     20  C   UNL     1       2.014   7.287  20.277  0.00  0.00    +0.000 A 
ATOM     21  C   UNL     1       2.628   6.234  19.736  0.00  0.00    +0.000 A 
ATOM     22  C   UNL     1       2.986   6.251  18.338  0.00  0.00    +0.000 A 
ATOM     23  C   UNL     1       2.698   7.321  17.586  0.00  0.00    +0.000 A 
ATOM     24  C   UNL     1       1.971   8.486  18.157  0.00  0.00    +0.000 A 
ATOM     25  O   UNL     1       1.713   9.431  17.412  0.00  0.00    +0.000 OA
BRANCH  22  26
ATOM     26  O   UNL     1       3.645   5.175  17.778  0.00  0.00    +0.000 OA
BRANCH  26  27
ATOM     27  C   UNL     1       4.616   5.483  16.778  0.00  0.00    +0.000 C 
BRANCH  27  28
ATOM     28  C   UNL     1       5.865   5.990  17.442  0.00  0.00    +0.000 A 
ATOM     29  C   UNL     1       6.449   7.196  17.040  0.00  0.00    +0.000 A 
ATOM     30  C   UNL     1       7.603   7.659  17.676  0.00  0.00    +0.000 A 
ATOM     31  C   UNL     1       8.181   6.920  18.707  0.00  0.00    +0.000 A 
ATOM     32  C   UNL     1       7.611   5.715  19.101  0.00  0.00    +0.000 A 
ATOM     33  C   UNL     1       6.457   5.245  18.471  0.00  0.00    +0.000 A 
ENDBRANCH  27  28
ENDBRANCH  26  27
ENDBRANCH  22  26
ENDBRANCH   8  19
TORSDOF 4
ENDMDL
MODEL 7
REMARK VINA RESULT:      -8.4      2.398     10.470
REMARK  Name = 
REMARK  5 active torsions:
REMARK  status: ('A' for Active; 'I' for Inactive)
REMARK    1  A    between atoms: C_1  and  N_2
REMARK    2  A    between atoms: C_8  and  N_9
REMARK    3  A    between atoms: C_12  and  O_13
REMARK    4  A    between atoms: O_13  and  C_14
REMARK    5  A    between atoms: C_14  and  C_15
REMARK                            x       y       z     vdW  Elec       q    Type
REMARK                         _______ _______ _______ _____ _____    ______ ____
ROOT
ATOM      1  C   UNL     1       1.717   5.296  20.980  0.00  0.00    +0.000 C 
ATOM      2  N   UNL     1       2.500   5.907  19.928  0.00  0.00    +0.000 N 
ATOM      3  C   UNL     1       3.550   5.343  19.254  0.00  0.00    +0.000 A 
ATOM      4  C   UNL     1       4.014   6.245  18.320  0.00  0.00    +0.000 A 
ATOM      5  C   UNL     1       3.189   7.403  18.405  0.00  0.00    +0.000 A 
ATOM      6  C   UNL     1       3.133   8.616  17.690  0.00  0.00    +0.000 A 
ATOM      7  C   UNL     1       2.093   9.515  17.919  0.00  0.00    +0.000 A 
ATOM      8  C   UNL     1       1.159   9.259  18.917  0.00  0.00    +0.000 A 
ATOM      9  C   UNL     1       1.240   8.097  19.701  0.00  0.00    +0.000 A 
ATOM     10  C   UNL     1       2.242   7.161  19.403  0.00  0.00    +0.000 A 
ATOM     11  C   UNL     1       5.128   5.962  17.346  0.00  0.00    +0.000 C 
ATOM     12  C   UNL     1       4.632   6.114  15.898  0.00  0.00    +0.000 C 
ATOM     13  C   UNL     1       5.771   5.871  14.931  0.00  0.00    +0.000 C 
ATOM     14  C   UNL     1       6.212   4.433  15.110  0.00  0.00    +0.000 C 
ATOM     15  C   UNL     1       6.664   4.177  16.551  0.00  0.00    +0.000 C 
ATOM     16  N   UNL     1       5.777   4.648  17.625  0.00  0.00    +0.000 NA
ATOM     17  C   UNL     1       4.883   3.592  18.136  0.00  0.00    +0.000 C 
ATOM     18  C   UNL     1       4.131   3.989  19.433  0.00  0.00    +0.000 C 
ENDROOT
BRANCH   8  19
ATOM     19  N   UNL     1       0.135  10.207  19.191  0.00  0.00    +0.000 N 
ATOM     20  C   UNL     1       0.233  10.994  20.324  0.00  0.00    +0.000 A 
ATOM     21  C   UNL     1      -0.712  11.872  20.661  0.00  0.00    +0.000 A 
ATOM     22  C   UNL     1      -1.889  12.013  19.837  0.00  0.00    +0.000 A 
ATOM     23  C   UNL     1      -2.027  11.265  18.735  0.00  0.00    +0.000 A 
ATOM     24  C   UNL     1      -0.964  10.315  18.315  0.00  0.00    +0.000 A 
ATOM     25  O   UNL     1      -1.137   9.671  17.280  0.00  0.00    +0.000 OA
BRANCH  22  26
ATOM     26  O   UNL     1      -2.883  12.901  20.195  0.00  0.00    +0.000 OA
BRANCH  26  27
ATOM     27  C   UNL     1      -2.666  13.637  21.399  0.00  0.00    +0.000 C 
BRANCH  27  28
ATOM     28  C   UNL     1      -3.707  13.249  22.410  0.00  0.00    +0.000 A 
ATOM     29  C   UNL     1      -3.338  12.836  23.695  0.00  0.00    +0.000 A 
ATOM     30  C   UNL     1      -4.319  12.490  24.626  0.00  0.00    +0.000 A 
ATOM     31  C   UNL     1      -5.668  12.547  24.278  0.00  0.00    +0.000 A 
ATOM     32  C   UNL     1      -6.039  12.945  22.999  0.00  0.00    +0.000 A 
ATOM     33  C   UNL     1      -5.064  13.293  22.063  0.00  0.00    +0.000 A 
ENDBRANCH  27  28
ENDBRANCH  26  27
ENDBRANCH  22  26
ENDBRANCH   8  19
TORSDOF 4
ENDMDL
MODEL 8
REMARK VINA RESULT:      -8.4      1.581      2.155
REMARK  Name = 
REMARK  5 active torsions:
REMARK  status: ('A' for Active; 'I' for Inactive)
REMARK    1  A    between atoms: C_1  and  N_2
REMARK    2  A    between atoms: C_8  and  N_9
REMARK    3  A    between atoms: C_12  and  O_13
REMARK    4  A    between atoms: O_13  and  C_14
REMARK    5  A    between atoms: C_14  and  C_15
REMARK                            x       y       z     vdW  Elec       q    Type
REMARK                         _______ _______ _______ _____ _____    ______ ____
ROOT
ATOM      1  C   UNL     1      -4.756  11.056  17.430  0.00  0.00    +0.000 C 
ATOM      2  N   UNL     1      -4.291  11.815  18.569  0.00  0.00    +0.000 N 
ATOM      3  C   UNL     1      -5.002  12.747  19.279  0.00  0.00    +0.000 A 
ATOM      4  C   UNL     1      -4.207  13.229  20.297  0.00  0.00    +0.000 A 
ATOM      5  C   UNL     1      -2.965  12.538  20.228  0.00  0.00    +0.000 A 
ATOM      6  C   UNL     1      -1.793  12.554  21.012  0.00  0.00    +0.000 A 
ATOM      7  C   UNL     1      -0.776  11.634  20.768  0.00  0.00    +0.000 A 
ATOM      8  C   UNL     1      -0.875  10.757  19.693  0.00  0.00    +0.000 A 
ATOM      9  C   UNL     1      -1.994  10.776  18.845  0.00  0.00    +0.000 A 
ATOM     10  C   UNL     1      -3.047  11.650  19.153  0.00  0.00    +0.000 A 
ATOM     11  C   UNL     1      -4.663  14.231  21.327  0.00  0.00    +0.000 C 
ATOM     12  C   UNL     1      -4.537  13.645  22.744  0.00  0.00    +0.000 C 
ATOM     13  C   UNL     1      -4.954  14.676  23.771  0.00  0.00    +0.000 C 
ATOM     14  C   UNL     1      -6.420  14.978  23.533  0.00  0.00    +0.000 C 
ATOM     15  C   UNL     1      -6.644  15.509  22.114  0.00  0.00    +0.000 C 
ATOM     16  N   UNL     1      -6.021  14.760  21.012  0.00  0.00    +0.000 NA
ATOM     17  C   UNL     1      -6.945  13.802  20.375  0.00  0.00    +0.000 C 
ATOM     18  C   UNL     1      -6.399  13.196  19.056  0.00  0.00    +0.000 C 
ENDROOT
BRANCH   8  19
ATOM     19  N   UNL     1       0.193   9.861  19.408  0.00  0.00    +0.000 N 
ATOM     20  C   UNL     1       0.621   9.719  18.100  0.00  0.00    +0.000 A 
ATOM     21  C   UNL     1       1.588   8.866  17.760  0.00  0.00    +0.000 A 
ATOM     22  C   UNL     1       2.210   8.045  18.771  0.00  0.00    +0.000 A 
ATOM     23  C   UNL     1       1.820   8.145  20.048  0.00  0.00    +0.000 A 
ATOM     24  C   UNL     1       0.779   9.124  20.457  0.00  0.00    +0.000 A 
ATOM     25  O   UNL     1       0.478   9.186  21.649  0.00  0.00    +0.000 OA
BRANCH  22  26
ATOM     26  O   UNL     1       3.193   7.140  18.420  0.00  0.00    +0.000 OA
BRANCH  26  27
ATOM     27  C   UNL     1       3.519   6.154  19.400  0.00  0.00    +0.000 C 
BRANCH  27  28
ATOM     28  C   UNL     1       2.592   4.981  19.246  0.00  0.00    +0.000 A 
ATOM     29  C   UNL     1       1.890   4.476  20.346  0.00  0.00    +0.000 A 
ATOM     30  C   UNL     1       1.025   3.393  20.183  0.00  0.00    +0.000 A 
ATOM     31  C   UNL     1       0.861   2.807  18.928  0.00  0.00    +0.000 A 
ATOM     32  C   UNL     1       1.566   3.298  17.836  0.00  0.00    +0.000 A 
ATOM     33  C   UNL     1       2.433   4.381  17.990  0.00  0.00    +0.000 A 
ENDBRANCH  27  28
ENDBRANCH  26  27
ENDBRANCH  22  26
ENDBRANCH   8  19
TORSDOF 4
ENDMDL
MODEL 9
REMARK VINA RESULT:      -8.3      2.487     10.579
REMARK  Name = 
REMARK  5 active torsions:
REMARK  status: ('A' for Active; 'I' for Inactive)
REMARK    1  A    between atoms: C_1  and  N_2
REMARK    2  A    between atoms: C_8  and  N_9
REMARK    3  A    between atoms: C_12  and  O_13
REMARK    4  A    between atoms: O_13  and  C_14
REMARK    5  A    between atoms: C_14  and  C_15
REMARK                            x       y       z     vdW  Elec       q    Type
REMARK                         _______ _______ _______ _____ _____    ______ ____
ROOT
ATOM      1  C   UNL     1       2.001   5.018  21.006  0.00  0.00    +0.000 C 
ATOM      2  N   UNL     1       2.715   5.674  19.933  0.00  0.00    +0.000 N 
ATOM      3  C   UNL     1       3.737   5.150  19.187  0.00  0.00    +0.000 A 
ATOM      4  C   UNL     1       4.133   6.088  18.257  0.00  0.00    +0.000 A 
ATOM      5  C   UNL     1       3.294   7.226  18.420  0.00  0.00    +0.000 A 
ATOM      6  C   UNL     1       3.178   8.458  17.745  0.00  0.00    +0.000 A 
ATOM      7  C   UNL     1       2.136   9.331  18.056  0.00  0.00    +0.000 A 
ATOM      8  C   UNL     1       1.262   9.027  19.095  0.00  0.00    +0.000 A 
ATOM      9  C   UNL     1       1.406   7.845  19.839  0.00  0.00    +0.000 A 
ATOM     10  C   UNL     1       2.407   6.938  19.459  0.00  0.00    +0.000 A 
ATOM     11  C   UNL     1       5.198   5.854  17.217  0.00  0.00    +0.000 C 
ATOM     12  C   UNL     1       4.622   6.039  15.802  0.00  0.00    +0.000 C 
ATOM     13  C   UNL     1       5.711   5.846  14.769  0.00  0.00    +0.000 C 
ATOM     14  C   UNL     1       6.187   4.412  14.881  0.00  0.00    +0.000 C 
ATOM     15  C   UNL     1       6.721   4.123  16.288  0.00  0.00    +0.000 C 
ATOM     16  N   UNL     1       5.884   4.546  17.421  0.00  0.00    +0.000 NA
ATOM     17  C   UNL     1       5.038   3.459  17.947  0.00  0.00    +0.000 C 
ATOM     18  C   UNL     1       4.351   3.803  19.294  0.00  0.00    +0.000 C 
ENDROOT
BRANCH   8  19
ATOM     19  N   UNL     1       0.238   9.948  19.451  0.00  0.00    +0.000 N 
ATOM     20  C   UNL     1      -0.787  10.193  18.555  0.00  0.00    +0.000 A 
ATOM     21  C   UNL     1      -1.755  11.074  18.810  0.00  0.00    +0.000 A 
ATOM     22  C   UNL     1      -1.744  11.816  20.048  0.00  0.00    +0.000 A 
ATOM     23  C   UNL     1      -0.766  11.615  20.940  0.00  0.00    +0.000 A 
ATOM     24  C   UNL     1       0.296  10.603  20.698  0.00  0.00    +0.000 A 
ATOM     25  O   UNL     1       1.155  10.446  21.565  0.00  0.00    +0.000 OA
BRANCH  22  26
ATOM     26  O   UNL     1      -2.729  12.749  20.305  0.00  0.00    +0.000 OA
BRANCH  26  27
ATOM     27  C   UNL     1      -2.566  13.524  21.493  0.00  0.00    +0.000 C 
BRANCH  27  28
ATOM     28  C   UNL     1      -3.675  13.194  22.452  0.00  0.00    +0.000 A 
ATOM     29  C   UNL     1      -3.391  12.738  23.744  0.00  0.00    +0.000 A 
ATOM     30  C   UNL     1      -4.433  12.448  24.627  0.00  0.00    +0.000 A 
ATOM     31  C   UNL     1      -5.759  12.603  24.223  0.00  0.00    +0.000 A 
ATOM     32  C   UNL     1      -6.046  13.043  22.937  0.00  0.00    +0.000 A 
ATOM     33  C   UNL     1      -5.010  13.336  22.049  0.00  0.00    +0.000 A 
ENDBRANCH  27  28
ENDBRANCH  26  27
ENDBRANCH  22  26
ENDBRANCH   8  19
TORSDOF 4
ENDMDL
