MODEL 1
REMARK VINA RESULT:      -8.5      0.000      0.000
REMARK  Name = 
REMARK  8 active torsions:
REMARK  status: ('A' for Active; 'I' for Inactive)
REMARK    1  A    between atoms: C_1  and  O_2
REMARK    2  A    between atoms: O_2  and  C_3
REMARK    3  A    between atoms: C_13  and  C_14
REMARK    4  A    between atoms: N_16  and  C_17
REMARK    5  A    between atoms: C_20  and  S_21
REMARK    6  A    between atoms: S_21  and  N_22
REMARK    7  A    between atoms: C_27  and  C_28
REMARK    8  A    between atoms: C_31  and  C_32
REMARK                            x       y       z     vdW  Elec       q    Type
REMARK                         _______ _______ _______ _____ _____    ______ ____
ROOT
ATOM      1  C   UNL     1      -1.200  12.563  20.849  0.00  0.00    +0.000 C 
ATOM      2  N   UNL     1      -0.376  11.561  20.919  0.00  0.00    +0.000 NA
ATOM      3  N   UNL     1      -0.178  11.104  19.654  0.00  0.00    +0.000 N 
ATOM      4  C   UNL     1      -0.957  11.818  18.639  0.00  0.00    +0.000 C 
ATOM      5  C   UNL     1      -1.689  12.880  19.456  0.00  0.00    +0.000 C 
ENDROOT
BRANCH   1  16
ATOM      6  C   UNL     1      -0.684  14.055  22.829  0.00  0.00    +0.000 A 
ATOM      7  C   UNL     1      -1.106  14.702  24.001  0.00  0.00    +0.000 A 
ATOM      8  C   UNL     1      -2.424  14.607  24.437  0.00  0.00    +0.000 A 
ATOM      9  C   UNL     1      -3.354  13.901  23.684  0.00  0.00    +0.000 A 
ATOM     10  C   UNL     1      -4.730  13.783  24.139  0.00  0.00    +0.000 A 
ATOM     11  C   UNL     1      -5.617  13.134  23.388  0.00  0.00    +0.000 A 
ATOM     12  C   UNL     1      -5.260  12.534  22.092  0.00  0.00    +0.000 A 
ATOM     13  O   UNL     1      -6.119  11.988  21.404  0.00  0.00    +0.000 OA
ATOM     14  O   UNL     1      -3.934  12.637  21.702  0.00  0.00    +0.000 OA
ATOM     15  C   UNL     1      -2.952  13.292  22.491  0.00  0.00    +0.000 A 
ATOM     16  C   UNL     1      -1.615  13.343  22.047  0.00  0.00    +0.000 A 
BRANCH   6  18
ATOM     17  C   UNL     1       1.060  15.373  21.908  0.00  0.00    +0.000 C 
ATOM     18  O   UNL     1       0.625  14.116  22.425  0.00  0.00    +0.000 OA
ENDBRANCH   6  18
ENDBRANCH   1  16
BRANCH   3  19
ATOM     19  C   UNL     1       0.643  10.008  19.393  0.00  0.00    +0.000 A 
ATOM     20  C   UNL     1       0.935   9.069  20.397  0.00  0.00    +0.000 A 
ATOM     21  C   UNL     1       1.709   7.935  20.136  0.00  0.00    +0.000 A 
ATOM     22  C   UNL     1       2.205   7.728  18.850  0.00  0.00    +0.000 A 
ATOM     23  C   UNL     1       1.966   8.654  17.840  0.00  0.00    +0.000 A 
ATOM     24  C   UNL     1       1.194   9.781  18.118  0.00  0.00    +0.000 A 
BRANCH  22  25
ATOM     25  S   UNL     1       3.125   6.270  18.487  0.00  0.00    +0.000 S 
ATOM     26  O   UNL     1       2.247   5.274  17.920  0.00  0.00    +0.000 OA
ATOM     27  O   UNL     1       4.383   6.631  17.878  0.00  0.00    +0.000 OA
BRANCH  25  28
ATOM     28  N   UNL     1       3.490   5.738  20.037  0.00  0.00    +0.000 NA
ATOM     29  H   UNL     1       3.196   6.427  20.728  0.00  0.00    +0.000 HD
ATOM     30  H   UNL     1       3.134   4.795  20.184  0.00  0.00    +0.000 HD
ENDBRANCH  25  28
ENDBRANCH  22  25
ENDBRANCH   3  19
BRANCH   4  31
ATOM     31  C   UNL     1      -1.911  10.980  17.849  0.00  0.00    +0.000 A 
ATOM     32  C   UNL     1      -2.713   9.906  18.182  0.00  0.00    +0.000 A 
ATOM     33  C   UNL     1      -3.301   9.461  16.979  0.00  0.00    +0.000 A 
ATOM     34  C   UNL     1      -2.827  10.285  15.983  0.00  0.00    +0.000 A 
ATOM     35  C   UNL     1      -3.037  10.329  14.524  0.00  0.00    +0.000 C 
ATOM     36  O   UNL     1      -1.986  11.221  16.507  0.00  0.00    +0.000 OA
ENDBRANCH   4  31
TORSDOF 6
ENDMDL
MODEL 2
REMARK VINA RESULT:      -8.3      1.332      2.021
REMARK  Name = 
REMARK  8 active torsions:
REMARK  status: ('A' for Active; 'I' for Inactive)
REMARK    1  A    between atoms: C_1  and  O_2
REMARK    2  A    between atoms: O_2  and  C_3
REMARK    3  A    between atoms: C_13  and  C_14
REMARK    4  A    between atoms: N_16  and  C_17
REMARK    5  A    between atoms: C_20  and  S_21
REMARK    6  A    between atoms: S_21  and  N_22
REMARK    7  A    between atoms: C_27  and  C_28
REMARK    8  A    between atoms: C_31  and  C_32
REMARK                            x       y       z     vdW  Elec       q    Type
REMARK                         _______ _______ _______ _____ _____    ______ ____
ROOT
ATOM      1  C   UNL     1      -0.077  12.974  20.551  0.00  0.00    +0.000 C 
ATOM      2  N   UNL     1       0.520  11.845  20.790  0.00  0.00    +0.000 NA
ATOM      3  N   UNL     1       0.441  11.093  19.660  0.00  0.00    +0.000 N 
ATOM      4  C   UNL     1      -0.302  11.735  18.574  0.00  0.00    +0.000 C 
ATOM      5  C   UNL     1      -0.676  13.090  19.170  0.00  0.00    +0.000 C 
ENDROOT
BRANCH   1  16
ATOM      6  C   UNL     1       0.857  15.049  21.663  0.00  0.00    +0.000 A 
ATOM      7  C   UNL     1       0.792  16.010  22.684  0.00  0.00    +0.000 A 
ATOM      8  C   UNL     1      -0.225  15.979  23.635  0.00  0.00    +0.000 A 
ATOM      9  C   UNL     1      -1.221  15.013  23.551  0.00  0.00    +0.000 A 
ATOM     10  C   UNL     1      -2.279  14.963  24.548  0.00  0.00    +0.000 A 
ATOM     11  C   UNL     1      -3.246  14.055  24.434  0.00  0.00    +0.000 A 
ATOM     12  C   UNL     1      -3.296  13.095  23.319  0.00  0.00    +0.000 A 
ATOM     13  O   UNL     1      -4.232  12.307  23.221  0.00  0.00    +0.000 OA
ATOM     14  O   UNL     1      -2.256  13.150  22.404  0.00  0.00    +0.000 OA
ATOM     15  C   UNL     1      -1.189  14.081  22.510  0.00  0.00    +0.000 A 
ATOM     16  C   UNL     1      -0.150  14.069  21.557  0.00  0.00    +0.000 A 
BRANCH   6  18
ATOM     17  C   UNL     1       3.163  14.676  21.256  0.00  0.00    +0.000 C 
ATOM     18  O   UNL     1       1.883  15.058  20.754  0.00  0.00    +0.000 OA
ENDBRANCH   6  18
ENDBRANCH   1  16
BRANCH   3  19
ATOM     19  C   UNL     1       0.970   9.804  19.602  0.00  0.00    +0.000 A 
ATOM     20  C   UNL     1       1.635   9.348  18.451  0.00  0.00    +0.000 A 
ATOM     21  C   UNL     1       2.221   8.080  18.399  0.00  0.00    +0.000 A 
ATOM     22  C   UNL     1       2.144   7.246  19.513  0.00  0.00    +0.000 A 
ATOM     23  C   UNL     1       1.463   7.650  20.657  0.00  0.00    +0.000 A 
ATOM     24  C   UNL     1       0.882   8.917  20.691  0.00  0.00    +0.000 A 
BRANCH  22  25
ATOM     25  S   UNL     1       2.935   5.671  19.489  0.00  0.00    +0.000 S 
ATOM     26  O   UNL     1       2.270   4.813  18.537  0.00  0.00    +0.000 OA
ATOM     27  O   UNL     1       4.368   5.849  19.503  0.00  0.00    +0.000 OA
BRANCH  25  28
ATOM     28  N   UNL     1       2.518   5.091  21.007  0.00  0.00    +0.000 NA
ATOM     29  H   UNL     1       3.353   4.919  21.564  0.00  0.00    +0.000 HD
ATOM     30  H   UNL     1       1.822   5.695  21.442  0.00  0.00    +0.000 HD
ENDBRANCH  25  28
ENDBRANCH  22  25
ENDBRANCH   3  19
BRANCH   4  31
ATOM     31  C   UNL     1      -1.511  10.997  18.093  0.00  0.00    +0.000 A 
ATOM     32  C   UNL     1      -1.676   9.914  17.252  0.00  0.00    +0.000 A 
ATOM     33  C   UNL     1      -3.067   9.749  17.083  0.00  0.00    +0.000 A 
ATOM     34  C   UNL     1      -3.671  10.738  17.827  0.00  0.00    +0.000 A 
ATOM     35  C   UNL     1      -5.079  11.119  18.045  0.00  0.00    +0.000 C 
ATOM     36  O   UNL     1      -2.729  11.497  18.454  0.00  0.00    +0.000 OA
ENDBRANCH   4  31
TORSDOF 6
ENDMDL
MODEL 3
REMARK VINA RESULT:      -8.1      1.049      1.462
REMARK  Name = 
REMARK  8 active torsions:
REMARK  status: ('A' for Active; 'I' for Inactive)
REMARK    1  A    between atoms: C_1  and  O_2
REMARK    2  A    between atoms: O_2  and  C_3
REMARK    3  A    between atoms: C_13  and  C_14
REMARK    4  A    between atoms: N_16  and  C_17
REMARK    5  A    between atoms: C_20  and  S_21
REMARK    6  A    between atoms: S_21  and  N_22
REMARK    7  A    between atoms: C_27  and  C_28
REMARK    8  A    between atoms: C_31  and  C_32
REMARK                            x       y       z     vdW  Elec       q    Type
REMARK                         _______ _______ _______ _____ _____    ______ ____
ROOT
ATOM      1  C   UNL     1      -0.153  13.118  20.526  0.00  0.00    +0.000 C 
ATOM      2  N   UNL     1       0.529  12.024  20.689  0.00  0.00    +0.000 NA
ATOM      3  N   UNL     1       0.478  11.333  19.519  0.00  0.00    +0.000 N 
ATOM      4  C   UNL     1      -0.334  11.978  18.485  0.00  0.00    +0.000 C 
ATOM      5  C   UNL     1      -0.790  13.267  19.166  0.00  0.00    +0.000 C 
ENDROOT
BRANCH   1  16
ATOM      6  C   UNL     1       0.687  15.154  21.777  0.00  0.00    +0.000 A 
ATOM      7  C   UNL     1       0.571  16.048  22.853  0.00  0.00    +0.000 A 
ATOM      8  C   UNL     1      -0.459  15.923  23.781  0.00  0.00    +0.000 A 
ATOM      9  C   UNL     1      -1.418  14.930  23.622  0.00  0.00    +0.000 A 
ATOM     10  C   UNL     1      -2.489  14.782  24.595  0.00  0.00    +0.000 A 
ATOM     11  C   UNL     1      -3.420  13.850  24.410  0.00  0.00    +0.000 A 
ATOM     12  C   UNL     1      -3.417  12.958  23.238  0.00  0.00    +0.000 A 
ATOM     13  O   UNL     1      -4.323  12.144  23.076  0.00  0.00    +0.000 OA
ATOM     14  O   UNL     1      -2.366  13.104  22.347  0.00  0.00    +0.000 OA
ATOM     15  C   UNL     1      -1.336  14.065  22.528  0.00  0.00    +0.000 A 
ATOM     16  C   UNL     1      -0.282  14.147  21.595  0.00  0.00    +0.000 A 
BRANCH   6  18
ATOM     17  C   UNL     1       1.661  16.346  19.973  0.00  0.00    +0.000 C 
ATOM     18  O   UNL     1       1.727  15.254  20.889  0.00  0.00    +0.000 OA
ENDBRANCH   6  18
ENDBRANCH   1  16
BRANCH   3  19
ATOM     19  C   UNL     1       1.097  10.091  19.378  0.00  0.00    +0.000 A 
ATOM     20  C   UNL     1       1.131   9.175  20.443  0.00  0.00    +0.000 A 
ATOM     21  C   UNL     1       1.696   7.905  20.299  0.00  0.00    +0.000 A 
ATOM     22  C   UNL     1       2.240   7.535  19.070  0.00  0.00    +0.000 A 
ATOM     23  C   UNL     1       2.256   8.428  18.003  0.00  0.00    +0.000 A 
ATOM     24  C   UNL     1       1.690   9.692  18.165  0.00  0.00    +0.000 A 
BRANCH  22  25
ATOM     25  S   UNL     1       2.895   5.915  18.850  0.00  0.00    +0.000 S 
ATOM     26  O   UNL     1       1.981   5.128  18.057  0.00  0.00    +0.000 OA
ATOM     27  O   UNL     1       4.305   6.000  18.552  0.00  0.00    +0.000 OA
BRANCH  25  28
ATOM     28  N   UNL     1       2.781   5.319  20.415  0.00  0.00    +0.000 NA
ATOM     29  H   UNL     1       1.833   5.003  20.608  0.00  0.00    +0.000 HD
ATOM     30  H   UNL     1       3.513   4.632  20.591  0.00  0.00    +0.000 HD
ENDBRANCH  25  28
ENDBRANCH  22  25
ENDBRANCH   3  19
BRANCH   4  31
ATOM     31  C   UNL     1      -1.497  11.182  17.986  0.00  0.00    +0.000 A 
ATOM     32  C   UNL     1      -2.258  10.177  18.551  0.00  0.00    +0.000 A 
ATOM     33  C   UNL     1      -3.141   9.733  17.545  0.00  0.00    +0.000 A 
ATOM     34  C   UNL     1      -2.871  10.488  16.426  0.00  0.00    +0.000 A 
ATOM     35  C   UNL     1      -3.421  10.497  15.057  0.00  0.00    +0.000 C 
ATOM     36  O   UNL     1      -1.876  11.381  16.689  0.00  0.00    +0.000 OA
ENDBRANCH   4  31
TORSDOF 6
ENDMDL
MODEL 4
REMARK VINA RESULT:      -8.1      1.159      1.824
REMARK  Name = 
REMARK  8 active torsions:
REMARK  status: ('A' for Active; 'I' for Inactive)
REMARK    1  A    between atoms: C_1  and  O_2
REMARK    2  A    between atoms: O_2  and  C_3
REMARK    3  A    between atoms: C_13  and  C_14
REMARK    4  A    between atoms: N_16  and  C_17
REMARK    5  A    between atoms: C_20  and  S_21
REMARK    6  A    between atoms: S_21  and  N_22
REMARK    7  A    between atoms: C_27  and  C_28
REMARK    8  A    between atoms: C_31  and  C_32
REMARK                            x       y       z     vdW  Elec       q    Type
REMARK                         _______ _______ _______ _____ _____    ______ ____
ROOT
ATOM      1  C   UNL     1      -0.152  13.002  20.484  0.00  0.00    +0.000 C 
ATOM      2  N   UNL     1       0.488  11.885  20.664  0.00  0.00    +0.000 NA
ATOM      3  N   UNL     1       0.430  11.188  19.499  0.00  0.00    +0.000 N 
ATOM      4  C   UNL     1      -0.343  11.854  18.448  0.00  0.00    +0.000 C 
ATOM      5  C   UNL     1      -0.762  13.164  19.112  0.00  0.00    +0.000 C 
ENDROOT
BRANCH   1  16
ATOM      6  C   UNL     1       0.745  15.012  21.737  0.00  0.00    +0.000 A 
ATOM      7  C   UNL     1       0.645  15.917  22.805  0.00  0.00    +0.000 A 
ATOM      8  C   UNL     1      -0.407  15.840  23.714  0.00  0.00    +0.000 A 
ATOM      9  C   UNL     1      -1.401  14.885  23.544  0.00  0.00    +0.000 A 
ATOM     10  C   UNL     1      -2.495  14.786  24.496  0.00  0.00    +0.000 A 
ATOM     11  C   UNL     1      -3.459  13.890  24.300  0.00  0.00    +0.000 A 
ATOM     12  C   UNL     1      -3.470  12.990  23.134  0.00  0.00    +0.000 A 
ATOM     13  O   UNL     1      -4.404  12.212  22.960  0.00  0.00    +0.000 OA
ATOM     14  O   UNL     1      -2.397  13.089  22.262  0.00  0.00    +0.000 OA
ATOM     15  C   UNL     1      -1.333  14.009  22.456  0.00  0.00    +0.000 A 
ATOM     16  C   UNL     1      -0.259  14.043  21.543  0.00  0.00    +0.000 A 
BRANCH   6  18
ATOM     17  C   UNL     1       3.073  14.701  21.411  0.00  0.00    +0.000 C 
ATOM     18  O   UNL     1       1.805  15.064  20.869  0.00  0.00    +0.000 OA
ENDBRANCH   6  18
ENDBRANCH   1  16
BRANCH   3  19
ATOM     19  C   UNL     1       1.005   9.924  19.375  0.00  0.00    +0.000 A 
ATOM     20  C   UNL     1       1.546   9.493  18.151  0.00  0.00    +0.000 A 
ATOM     21  C   UNL     1       2.178   8.253  18.026  0.00  0.00    +0.000 A 
ATOM     22  C   UNL     1       2.275   7.420  19.140  0.00  0.00    +0.000 A 
ATOM     23  C   UNL     1       1.720   7.798  20.359  0.00  0.00    +0.000 A 
ATOM     24  C   UNL     1       1.091   9.038  20.465  0.00  0.00    +0.000 A 
BRANCH  22  25
ATOM     25  S   UNL     1       3.127   5.883  19.017  0.00  0.00    +0.000 S 
ATOM     26  O   UNL     1       4.402   6.089  18.371  0.00  0.00    +0.000 OA
ATOM     27  O   UNL     1       2.994   5.156  20.257  0.00  0.00    +0.000 OA
BRANCH  25  28
ATOM     28  N   UNL     1       2.164   5.083  17.899  0.00  0.00    +0.000 NA
ATOM     29  H   UNL     1       1.215   5.452  17.917  0.00  0.00    +0.000 HD
ATOM     30  H   UNL     1       2.611   5.076  16.983  0.00  0.00    +0.000 HD
ENDBRANCH  25  28
ENDBRANCH  22  25
ENDBRANCH   3  19
BRANCH   4  31
ATOM     31  C   UNL     1      -1.526  11.097  17.936  0.00  0.00    +0.000 A 
ATOM     32  C   UNL     1      -2.323  10.115  18.492  0.00  0.00    +0.000 A 
ATOM     33  C   UNL     1      -3.211   9.702  17.477  0.00  0.00    +0.000 A 
ATOM     34  C   UNL     1      -2.908  10.452  16.362  0.00  0.00    +0.000 A 
ATOM     35  C   UNL     1      -3.446  10.481  14.989  0.00  0.00    +0.000 C 
ATOM     36  O   UNL     1      -1.887  11.312  16.637  0.00  0.00    +0.000 OA
ENDBRANCH   4  31
TORSDOF 6
ENDMDL
MODEL 5
REMARK VINA RESULT:      -8.0      2.083      4.789
REMARK  Name = 
REMARK  8 active torsions:
REMARK  status: ('A' for Active; 'I' for Inactive)
REMARK    1  A    between atoms: C_1  and  O_2
REMARK    2  A    between atoms: O_2  and  C_3
REMARK    3  A    between atoms: C_13  and  C_14
REMARK    4  A    between atoms: N_16  and  C_17
REMARK    5  A    between atoms: C_20  and  S_21
REMARK    6  A    between atoms: S_21  and  N_22
REMARK    7  A    between atoms: C_27  and  C_28
REMARK    8  A    between atoms: C_31  and  C_32
REMARK                            x       y       z     vdW  Elec       q    Type
REMARK                         _______ _______ _______ _____ _____    ______ ____
ROOT
ATOM      1  C   UNL     1      -1.960  11.418  18.937  0.00  0.00    +0.000 C 
ATOM      2  N   UNL     1      -1.298  10.349  18.608  0.00  0.00    +0.000 NA
ATOM      3  N   UNL     1      -0.086  10.414  19.219  0.00  0.00    +0.000 N 
ATOM      4  C   UNL     1       0.121  11.639  19.995  0.00  0.00    +0.000 C 
ATOM      5  C   UNL     1      -1.207  12.376  19.828  0.00  0.00    +0.000 C 
ENDROOT
BRANCH   1  16
ATOM      6  C   UNL     1      -3.722  11.571  17.124  0.00  0.00    +0.000 A 
ATOM      7  C   UNL     1      -5.027  11.902  16.728  0.00  0.00    +0.000 A 
ATOM      8  C   UNL     1      -5.956  12.380  17.648  0.00  0.00    +0.000 A 
ATOM      9  C   UNL     1      -5.609  12.491  18.989  0.00  0.00    +0.000 A 
ATOM     10  C   UNL     1      -6.567  13.003  19.955  0.00  0.00    +0.000 A 
ATOM     11  C   UNL     1      -6.232  13.070  21.242  0.00  0.00    +0.000 A 
ATOM     12  C   UNL     1      -4.917  12.627  21.735  0.00  0.00    +0.000 A 
ATOM     13  O   UNL     1      -4.664  12.655  22.936  0.00  0.00    +0.000 OA
ATOM     14  O   UNL     1      -4.016  12.173  20.784  0.00  0.00    +0.000 OA
ATOM     15  C   UNL     1      -4.325  12.119  19.399  0.00  0.00    +0.000 A 
ATOM     16  C   UNL     1      -3.355  11.667  18.481  0.00  0.00    +0.000 A 
BRANCH   6  18
ATOM     17  C   UNL     1      -3.321  10.485  15.054  0.00  0.00    +0.000 C 
ATOM     18  O   UNL     1      -2.797  11.140  16.208  0.00  0.00    +0.000 OA
ENDBRANCH   6  18
ENDBRANCH   1  16
BRANCH   3  19
ATOM     19  C   UNL     1       0.875   9.419  19.042  0.00  0.00    +0.000 A 
ATOM     20  C   UNL     1       1.216   8.550  20.093  0.00  0.00    +0.000 A 
ATOM     21  C   UNL     1       2.134   7.511  19.915  0.00  0.00    +0.000 A 
ATOM     22  C   UNL     1       2.729   7.332  18.667  0.00  0.00    +0.000 A 
ATOM     23  C   UNL     1       2.443   8.195  17.614  0.00  0.00    +0.000 A 
ATOM     24  C   UNL     1       1.526   9.227  17.810  0.00  0.00    +0.000 A 
BRANCH  22  25
ATOM     25  S   UNL     1       3.838   5.988  18.406  0.00  0.00    +0.000 S 
ATOM     26  O   UNL     1       4.488   5.651  19.651  0.00  0.00    +0.000 OA
ATOM     27  O   UNL     1       3.206   4.996  17.568  0.00  0.00    +0.000 OA
BRANCH  25  28
ATOM     28  N   UNL     1       5.007   6.729  17.458  0.00  0.00    +0.000 NA
ATOM     29  H   UNL     1       5.365   6.078  16.760  0.00  0.00    +0.000 HD
ATOM     30  H   UNL     1       4.661   7.614  17.090  0.00  0.00    +0.000 HD
ENDBRANCH  25  28
ENDBRANCH  22  25
ENDBRANCH   3  19
BRANCH   4  31
ATOM     31  C   UNL     1       1.275  12.488  19.567  0.00  0.00    +0.000 A 
ATOM     32  C   UNL     1       1.878  12.704  18.343  0.00  0.00    +0.000 A 
ATOM     33  C   UNL     1       3.002  13.521  18.591  0.00  0.00    +0.000 A 
ATOM     34  C   UNL     1       3.022  13.757  19.948  0.00  0.00    +0.000 A 
ATOM     35  C   UNL     1       3.939  14.503  20.828  0.00  0.00    +0.000 C 
ATOM     36  O   UNL     1       1.966  13.138  20.549  0.00  0.00    +0.000 OA
ENDBRANCH   4  31
TORSDOF 6
ENDMDL
MODEL 6
REMARK VINA RESULT:      -8.0      0.979      1.088
REMARK  Name = 
REMARK  8 active torsions:
REMARK  status: ('A' for Active; 'I' for Inactive)
REMARK    1  A    between atoms: C_1  and  O_2
REMARK    2  A    between atoms: O_2  and  C_3
REMARK    3  A    between atoms: C_13  and  C_14
REMARK    4  A    between atoms: N_16  and  C_17
REMARK    5  A    between atoms: C_20  and  S_21
REMARK    6  A    between atoms: S_21  and  N_22
REMARK    7  A    between atoms: C_27  and  C_28
REMARK    8  A    between atoms: C_31  and  C_32
REMARK                            x       y       z     vdW  Elec       q    Type
REMARK                         _______ _______ _______ _____ _____    ______ ____
ROOT
ATOM      1  C   UNL     1      -0.780  12.789  21.051  0.00  0.00    +0.000 C 
ATOM      2  N   UNL     1      -0.131  11.686  21.276  0.00  0.00    +0.000 NA
ATOM      3  N   UNL     1       0.095  11.093  20.074  0.00  0.00    +0.000 N 
ATOM      4  C   UNL     1      -0.476  11.819  18.938  0.00  0.00    +0.000 C 
ATOM      5  C   UNL     1      -1.098  13.048  19.598  0.00  0.00    +0.000 C 
ENDROOT
BRANCH   1  16
ATOM      6  C   UNL     1      -0.220  14.563  22.771  0.00  0.00    +0.000 A 
ATOM      7  C   UNL     1      -0.609  15.366  23.854  0.00  0.00    +0.000 A 
ATOM      8  C   UNL     1      -1.906  15.311  24.357  0.00  0.00    +0.000 A 
ATOM      9  C   UNL     1      -2.849  14.486  23.754  0.00  0.00    +0.000 A 
ATOM     10  C   UNL     1      -4.202  14.411  24.281  0.00  0.00    +0.000 A 
ATOM     11  C   UNL     1      -5.103  13.645  23.672  0.00  0.00    +0.000 A 
ATOM     12  C   UNL     1      -4.784  12.868  22.461  0.00  0.00    +0.000 A 
ATOM     13  O   UNL     1      -5.657  12.213  21.898  0.00  0.00    +0.000 OA
ATOM     14  O   UNL     1      -3.478  12.938  22.003  0.00  0.00    +0.000 OA
ATOM     15  C   UNL     1      -2.481  13.718  22.646  0.00  0.00    +0.000 A 
ATOM     16  C   UNL     1      -1.164  13.728  22.141  0.00  0.00    +0.000 A 
BRANCH   6  18
ATOM     17  C   UNL     1       1.550  15.858  21.868  0.00  0.00    +0.000 C 
ATOM     18  O   UNL     1       1.070  14.588  22.305  0.00  0.00    +0.000 OA
ENDBRANCH   6  18
ENDBRANCH   1  16
BRANCH   3  19
ATOM     19  C   UNL     1       0.754   9.868  19.977  0.00  0.00    +0.000 A 
ATOM     20  C   UNL     1       0.668   8.917  21.009  0.00  0.00    +0.000 A 
ATOM     21  C   UNL     1       1.274   7.663  20.901  0.00  0.00    +0.000 A 
ATOM     22  C   UNL     1       1.983   7.344  19.745  0.00  0.00    +0.000 A 
ATOM     23  C   UNL     1       2.120   8.272  18.717  0.00  0.00    +0.000 A 
ATOM     24  C   UNL     1       1.510   9.520  18.842  0.00  0.00    +0.000 A 
BRANCH  22  25
ATOM     25  S   UNL     1       2.696   5.743  19.564  0.00  0.00    +0.000 S 
ATOM     26  O   UNL     1       1.920   4.973  18.621  0.00  0.00    +0.000 OA
ATOM     27  O   UNL     1       4.132   5.861  19.474  0.00  0.00    +0.000 OA
BRANCH  25  28
ATOM     28  N   UNL     1       2.373   5.087  21.075  0.00  0.00    +0.000 NA
ATOM     29  H   UNL     1       3.189   5.167  21.680  0.00  0.00    +0.000 HD
ATOM     30  H   UNL     1       1.510   5.473  21.455  0.00  0.00    +0.000 HD
ENDBRANCH  25  28
ENDBRANCH  22  25
ENDBRANCH   3  19
BRANCH   4  31
ATOM     31  C   UNL     1      -1.482  11.065  18.128  0.00  0.00    +0.000 A 
ATOM     32  C   UNL     1      -1.381   9.978  17.283  0.00  0.00    +0.000 A 
ATOM     33  C   UNL     1      -2.659   9.796  16.713  0.00  0.00    +0.000 A 
ATOM     34  C   UNL     1      -3.466  10.779  17.240  0.00  0.00    +0.000 A 
ATOM     35  C   UNL     1      -4.880  11.143  17.033  0.00  0.00    +0.000 C 
ATOM     36  O   UNL     1      -2.758  11.552  18.112  0.00  0.00    +0.000 OA
ENDBRANCH   4  31
TORSDOF 6
ENDMDL
MODEL 7
REMARK VINA RESULT:      -8.0      1.450      3.699
REMARK  Name = 
REMARK  8 active torsions:
REMARK  status: ('A' for Active; 'I' for Inactive)
REMARK    1  A    between atoms: C_1  and  O_2
REMARK    2  A    between atoms: O_2  and  C_3
REMARK    3  A    between atoms: C_13  and  C_14
REMARK    4  A    between atoms: N_16  and  C_17
REMARK    5  A    between atoms: C_20  and  S_21
REMARK    6  A    between atoms: S_21  and  N_22
REMARK    7  A    between atoms: C_27  and  C_28
REMARK    8  A    between atoms: C_31  and  C_32
REMARK                            x       y       z     vdW  Elec       q    Type
REMARK                         _______ _______ _______ _____ _____    ______ ____
ROOT
ATOM      1  C   UNL     1      -0.223  12.824  20.768  0.00  0.00    +0.000 C 
ATOM      2  N   UNL     1       0.491  11.739  20.798  0.00  0.00    +0.000 NA
ATOM      3  N   UNL     1       0.394  11.152  19.576  0.00  0.00    +0.000 N 
ATOM      4  C   UNL     1      -0.484  11.863  18.645  0.00  0.00    +0.000 C 
ATOM      5  C   UNL     1      -0.932  13.075  19.459  0.00  0.00    +0.000 C 
ENDROOT
BRANCH   1  16
ATOM      6  C   UNL     1      -1.188  13.504  23.009  0.00  0.00    +0.000 A 
ATOM      7  C   UNL     1      -1.311  14.450  24.038  0.00  0.00    +0.000 A 
ATOM      8  C   UNL     1      -0.628  15.661  23.984  0.00  0.00    +0.000 A 
ATOM      9  C   UNL     1       0.228  15.927  22.922  0.00  0.00    +0.000 A 
ATOM     10  C   UNL     1       0.934  17.196  22.848  0.00  0.00    +0.000 A 
ATOM     11  C   UNL     1       1.777  17.421  21.844  0.00  0.00    +0.000 A 
ATOM     12  C   UNL     1       2.037  16.420  20.796  0.00  0.00    +0.000 A 
ATOM     13  O   UNL     1       2.861  16.645  19.913  0.00  0.00    +0.000 OA
ATOM     14  O   UNL     1       1.324  15.234  20.878  0.00  0.00    +0.000 OA
ATOM     15  C   UNL     1       0.391  14.970  21.916  0.00  0.00    +0.000 A 
ATOM     16  C   UNL     1      -0.318  13.752  21.929  0.00  0.00    +0.000 A 
BRANCH   6  18
ATOM     17  C   UNL     1      -3.313  12.453  22.936  0.00  0.00    +0.000 C 
ATOM     18  O   UNL     1      -1.896  12.330  23.045  0.00  0.00    +0.000 OA
ENDBRANCH   6  18
ENDBRANCH   1  16
BRANCH   3  19
ATOM     19  C   UNL     1       1.032   9.944  19.294  0.00  0.00    +0.000 A 
ATOM     20  C   UNL     1       1.633   9.720  18.043  0.00  0.00    +0.000 A 
ATOM     21  C   UNL     1       2.326   8.539  17.765  0.00  0.00    +0.000 A 
ATOM     22  C   UNL     1       2.424   7.557  18.750  0.00  0.00    +0.000 A 
ATOM     23  C   UNL     1       1.812   7.729  19.987  0.00  0.00    +0.000 A 
ATOM     24  C   UNL     1       1.123   8.913  20.246  0.00  0.00    +0.000 A 
BRANCH  22  25
ATOM     25  S   UNL     1       3.351   6.090  18.440  0.00  0.00    +0.000 S 
ATOM     26  O   UNL     1       2.503   5.110  17.804  0.00  0.00    +0.000 OA
ATOM     27  O   UNL     1       4.653   6.441  17.924  0.00  0.00    +0.000 OA
BRANCH  25  28
ATOM     28  N   UNL     1       3.598   5.543  20.007  0.00  0.00    +0.000 NA
ATOM     29  H   UNL     1       2.817   5.807  20.604  0.00  0.00    +0.000 HD
ATOM     30  H   UNL     1       3.829   4.550  20.007  0.00  0.00    +0.000 HD
ENDBRANCH  25  28
ENDBRANCH  22  25
ENDBRANCH   3  19
BRANCH   4  31
ATOM     31  C   UNL     1      -1.654  11.083  18.136  0.00  0.00    +0.000 A 
ATOM     32  C   UNL     1      -1.765  10.035  17.243  0.00  0.00    +0.000 A 
ATOM     33  C   UNL     1      -3.146   9.801  17.074  0.00  0.00    +0.000 A 
ATOM     34  C   UNL     1      -3.798  10.717  17.869  0.00  0.00    +0.000 A 
ATOM     35  C   UNL     1      -5.223  11.007  18.113  0.00  0.00    +0.000 C 
ATOM     36  O   UNL     1      -2.895  11.496  18.528  0.00  0.00    +0.000 OA
ENDBRANCH   4  31
TORSDOF 6
ENDMDL
MODEL 8
REMARK VINA RESULT:      -7.9      1.341      3.457
REMARK  Name = 
REMARK  8 active torsions:
REMARK  status: ('A' for Active; 'I' for Inactive)
REMARK    1  A    between atoms: C_1  and  O_2
REMARK    2  A    between atoms: O_2  and  C_3
REMARK    3  A    between atoms: C_13  and  C_14
REMARK    4  A    between atoms: N_16  and  C_17
REMARK    5  A    between atoms: C_20  and  S_21
REMARK    6  A    between atoms: S_21  and  N_22
REMARK    7  A    between atoms: C_27  and  C_28
REMARK    8  A    between atoms: C_31  and  C_32
REMARK                            x       y       z     vdW  Elec       q    Type
REMARK                         _______ _______ _______ _____ _____    ______ ____
ROOT
ATOM      1  C   UNL     1      -0.237  12.874  20.813  0.00  0.00    +0.000 C 
ATOM      2  N   UNL     1       0.484  11.794  20.864  0.00  0.00    +0.000 NA
ATOM      3  N   UNL     1       0.454  11.225  19.629  0.00  0.00    +0.000 N 
ATOM      4  C   UNL     1      -0.384  11.943  18.667  0.00  0.00    +0.000 C 
ATOM      5  C   UNL     1      -0.884  13.138  19.475  0.00  0.00    +0.000 C 
ENDROOT
BRANCH   1  16
ATOM      6  C   UNL     1      -1.293  13.493  23.031  0.00  0.00    +0.000 A 
ATOM      7  C   UNL     1      -1.479  14.421  24.067  0.00  0.00    +0.000 A 
ATOM      8  C   UNL     1      -0.834  15.655  24.049  0.00  0.00    +0.000 A 
ATOM      9  C   UNL     1       0.046  15.961  23.017  0.00  0.00    +0.000 A 
ATOM     10  C   UNL     1       0.713  17.253  22.982  0.00  0.00    +0.000 A 
ATOM     11  C   UNL     1       1.579  17.518  22.007  0.00  0.00    +0.000 A 
ATOM     12  C   UNL     1       1.904  16.538  20.956  0.00  0.00    +0.000 A 
ATOM     13  O   UNL     1       2.747  16.801  20.103  0.00  0.00    +0.000 OA
ATOM     14  O   UNL     1       1.227  15.329  21.001  0.00  0.00    +0.000 OA
ATOM     15  C   UNL     1       0.271  15.023  22.006  0.00  0.00    +0.000 A 
ATOM     16  C   UNL     1      -0.399  13.783  21.982  0.00  0.00    +0.000 A 
BRANCH   6  18
ATOM     17  C   UNL     1      -3.296  12.329  23.540  0.00  0.00    +0.000 C 
ATOM     18  O   UNL     1      -1.964  12.297  23.030  0.00  0.00    +0.000 OA
ENDBRANCH   6  18
ENDBRANCH   1  16
BRANCH   3  19
ATOM     19  C   UNL     1       1.116  10.027  19.361  0.00  0.00    +0.000 A 
ATOM     20  C   UNL     1       1.223   9.026  20.342  0.00  0.00    +0.000 A 
ATOM     21  C   UNL     1       1.832   7.798  20.070  0.00  0.00    +0.000 A 
ATOM     22  C   UNL     1       2.348   7.558  18.798  0.00  0.00    +0.000 A 
ATOM     23  C   UNL     1       2.292   8.539  17.813  0.00  0.00    +0.000 A 
ATOM     24  C   UNL     1       1.682   9.759  18.102  0.00  0.00    +0.000 A 
BRANCH  22  25
ATOM     25  S   UNL     1       3.060   5.991  18.419  0.00  0.00    +0.000 S 
ATOM     26  O   UNL     1       2.043   5.117  17.884  0.00  0.00    +0.000 OA
ATOM     27  O   UNL     1       4.336   6.183  17.771  0.00  0.00    +0.000 OA
BRANCH  25  28
ATOM     28  N   UNL     1       3.397   5.421  19.961  0.00  0.00    +0.000 NA
ATOM     29  H   UNL     1       4.251   5.845  20.318  0.00  0.00    +0.000 HD
ATOM     30  H   UNL     1       2.580   5.515  20.563  0.00  0.00    +0.000 HD
ENDBRANCH  25  28
ENDBRANCH  22  25
ENDBRANCH   3  19
BRANCH   4  31
ATOM     31  C   UNL     1      -1.520  11.161  18.088  0.00  0.00    +0.000 A 
ATOM     32  C   UNL     1      -2.287  10.121  18.576  0.00  0.00    +0.000 A 
ATOM     33  C   UNL     1      -3.131   9.719  17.519  0.00  0.00    +0.000 A 
ATOM     34  C   UNL     1      -2.832  10.532  16.449  0.00  0.00    +0.000 A 
ATOM     35  C   UNL     1      -3.334  10.603  15.064  0.00  0.00    +0.000 C 
ATOM     36  O   UNL     1      -1.857  11.420  16.791  0.00  0.00    +0.000 OA
ENDBRANCH   4  31
TORSDOF 6
ENDMDL
MODEL 9
REMARK VINA RESULT:      -7.9      1.558      3.625
REMARK  Name = 
REMARK  8 active torsions:
REMARK  status: ('A' for Active; 'I' for Inactive)
REMARK    1  A    between atoms: C_1  and  O_2
REMARK    2  A    between atoms: O_2  and  C_3
REMARK    3  A    between atoms: C_13  and  C_14
REMARK    4  A    between atoms: N_16  and  C_17
REMARK    5  A    between atoms: C_20  and  S_21
REMARK    6  A    between atoms: S_21  and  N_22
REMARK    7  A    between atoms: C_27  and  C_28
REMARK    8  A    between atoms: C_31  and  C_32
REMARK                            x       y       z     vdW  Elec       q    Type
REMARK                         _______ _______ _______ _____ _____    ______ ____
ROOT
ATOM      1  C   UNL     1      -0.363  12.815  20.906  0.00  0.00    +0.000 C 
ATOM      2  N   UNL     1       0.376  11.748  20.956  0.00  0.00    +0.000 NA
ATOM      3  N   UNL     1       0.346  11.171  19.726  0.00  0.00    +0.000 N 
ATOM      4  C   UNL     1      -0.512  11.869  18.766  0.00  0.00    +0.000 C 
ATOM      5  C   UNL     1      -1.025  13.061  19.572  0.00  0.00    +0.000 C 
ENDROOT
BRANCH   1  16
ATOM      6  C   UNL     1      -1.471  13.472  23.087  0.00  0.00    +0.000 A 
ATOM      7  C   UNL     1      -1.657  14.405  24.118  0.00  0.00    +0.000 A 
ATOM      8  C   UNL     1      -0.965  15.613  24.126  0.00  0.00    +0.000 A 
ATOM      9  C   UNL     1      -0.039  15.887  23.126  0.00  0.00    +0.000 A 
ATOM     10  C   UNL     1       0.679  17.152  23.117  0.00  0.00    +0.000 A 
ATOM     11  C   UNL     1       1.588  17.384  22.173  0.00  0.00    +0.000 A 
ATOM     12  C   UNL     1       1.911  16.394  21.132  0.00  0.00    +0.000 A 
ATOM     13  O   UNL     1       2.793  16.625  20.309  0.00  0.00    +0.000 OA
ATOM     14  O   UNL     1       1.187  15.212  21.151  0.00  0.00    +0.000 OA
ATOM     15  C   UNL     1       0.186  14.942  22.121  0.00  0.00    +0.000 A 
ATOM     16  C   UNL     1      -0.530  13.728  22.070  0.00  0.00    +0.000 A 
BRANCH   6  18
ATOM     17  C   UNL     1      -3.419  12.309  23.778  0.00  0.00    +0.000 C 
ATOM     18  O   UNL     1      -2.186  12.302  23.060  0.00  0.00    +0.000 OA
ENDBRANCH   6  18
ENDBRANCH   1  16
BRANCH   3  19
ATOM     19  C   UNL     1       1.026   9.983  19.459  0.00  0.00    +0.000 A 
ATOM     20  C   UNL     1       1.117   8.970  20.429  0.00  0.00    +0.000 A 
ATOM     21  C   UNL     1       1.745   7.751  20.157  0.00  0.00    +0.000 A 
ATOM     22  C   UNL     1       2.295   7.532  18.896  0.00  0.00    +0.000 A 
ATOM     23  C   UNL     1       2.255   8.526  17.922  0.00  0.00    +0.000 A 
ATOM     24  C   UNL     1       1.627   9.736  18.211  0.00  0.00    +0.000 A 
BRANCH  22  25
ATOM     25  S   UNL     1       3.031   5.977  18.514  0.00  0.00    +0.000 S 
ATOM     26  O   UNL     1       3.762   5.496  19.662  0.00  0.00    +0.000 OA
ATOM     27  O   UNL     1       2.083   5.157  17.798  0.00  0.00    +0.000 OA
BRANCH  25  28
ATOM     28  N   UNL     1       4.187   6.448  17.391  0.00  0.00    +0.000 NA
ATOM     29  H   UNL     1       4.418   7.433  17.510  0.00  0.00    +0.000 HD
ATOM     30  H   UNL     1       4.981   5.809  17.407  0.00  0.00    +0.000 HD
ENDBRANCH  25  28
ENDBRANCH  22  25
ENDBRANCH   3  19
BRANCH   4  31
ATOM     31  C   UNL     1      -1.639  11.064  18.202  0.00  0.00    +0.000 A 
ATOM     32  C   UNL     1      -1.685  10.014  17.306  0.00  0.00    +0.000 A 
ATOM     33  C   UNL     1      -3.051   9.751  17.071  0.00  0.00    +0.000 A 
ATOM     34  C   UNL     1      -3.760  10.652  17.833  0.00  0.00    +0.000 A 
ATOM     35  C   UNL     1      -5.201  10.911  18.010  0.00  0.00    +0.000 C 
ATOM     36  O   UNL     1      -2.906  11.450  18.534  0.00  0.00    +0.000 OA
ENDBRANCH   4  31
TORSDOF 6
ENDMDL
