MODEL 1
REMARK VINA RESULT:      -7.9      0.000      0.000
REMARK  Name = 
REMARK  16 active torsions:
REMARK  status: ('A' for Active; 'I' for Inactive)
REMARK    1  A    between atoms: C_1  and  C_2
REMARK    2  A    between atoms: C_2  and  C_3
REMARK    3  A    between atoms: C_3  and  C_4
REMARK    4  A    between atoms: C_4  and  C_5
REMARK    5  A    between atoms: C_5  and  C_6
REMARK    6  A    between atoms: C_6  and  C_7
REMARK    7  A    between atoms: C_7  and  C_8
REMARK    8  A    between atoms: C_8  and  C_9
REMARK    9  A    between atoms: C_9  and  C_10
REMARK   10  A    between atoms: C_10  and  C_11
REMARK   11  A    between atoms: C_11  and  C_12
REMARK   12  A    between atoms: C_12  and  C_14
REMARK   13  A    between atoms: C_17  and  O_18
REMARK   14  A    between atoms: C_19  and  C_20
REMARK   15  A    between atoms: N_22  and  C_23
REMARK   16  A    between atoms: C_23  and  C_24
REMARK                            x       y       z     vdW  Elec       q    Type
REMARK                         _______ _______ _______ _____ _____    ______ ____
ROOT
ATOM      1  C   UNL     1       2.608   4.759  18.559  0.00  0.00    +0.000 A 
ATOM      2  C   UNL     1       2.558   4.457  19.924  0.00  0.00    +0.000 A 
ATOM      3  C   UNL     1       2.271   5.457  20.846  0.00  0.00    +0.000 A 
ATOM      4  C   UNL     1       2.040   6.767  20.403  0.00  0.00    +0.000 A 
ATOM      5  C   UNL     1       2.126   7.108  19.039  0.00  0.00    +0.000 A 
ATOM      6  C   UNL     1       2.413   6.088  18.127  0.00  0.00    +0.000 A 
ENDROOT
BRANCH   5   7
ATOM      7  C   UNL     1       1.922   8.506  18.503  0.00  0.00    +0.000 C 
ATOM      8  O   UNL     1       2.448   8.857  17.442  0.00  0.00    +0.000 OA
ATOM      9  N   UNL     1       1.088   9.318  19.231  0.00  0.00    +0.000 N 
ATOM     10  H   UNL     1       0.693   8.907  20.072  0.00  0.00    +0.000 HD
BRANCH   9  11
ATOM     11  C   UNL     1       0.744  10.689  18.886  0.00  0.00    +0.000 C 
BRANCH  11  12
ATOM     12  C   UNL     1      -0.708  10.879  18.474  0.00  0.00    +0.000 A 
ATOM     13  C   UNL     1      -1.579  11.694  19.216  0.00  0.00    +0.000 A 
ATOM     14  C   UNL     1      -2.926  11.840  18.865  0.00  0.00    +0.000 A 
ATOM     15  C   UNL     1      -3.432  11.188  17.741  0.00  0.00    +0.000 A 
ATOM     16 CL   UNL     1      -5.102  11.428  17.369  0.00  0.00    +0.000 Cl
ATOM     17  C   UNL     1      -2.582  10.390  16.976  0.00  0.00    +0.000 A 
ATOM     18 CL   UNL     1      -3.144   9.553  15.570  0.00  0.00    +0.000 Cl
ATOM     19  C   UNL     1      -1.229  10.235  17.337  0.00  0.00    +0.000 A 
ENDBRANCH  11  12
ENDBRANCH   9  11
ENDBRANCH   5   7
BRANCH   1  20
ATOM     20  C   UNL     1       2.865   3.669  17.581  0.00  0.00    +0.000 C 
ATOM     21  O   UNL     1       1.928   3.234  16.899  0.00  0.00    +0.000 OA
BRANCH  20  22
ATOM     22  C   UNL     1       4.284   3.148  17.473  0.00  0.00    +0.000 C 
BRANCH  22  23
ATOM     23  C   UNL     1       5.301   4.162  17.968  0.00  0.00    +0.000 C 
BRANCH  23  24
ATOM     24  C   UNL     1       6.194   4.642  16.833  0.00  0.00    +0.000 C 
BRANCH  24  25
ATOM     25  C   UNL     1       5.430   5.615  15.945  0.00  0.00    +0.000 C 
BRANCH  25  26
ATOM     26  C   UNL     1       5.340   5.082  14.524  0.00  0.00    +0.000 C 
BRANCH  26  27
ATOM     27  C   UNL     1       6.318   3.933  14.332  0.00  0.00    +0.000 C 
BRANCH  27  28
ATOM     28  C   UNL     1       6.516   3.655  12.851  0.00  0.00    +0.000 C 
BRANCH  28  29
ATOM     29  C   UNL     1       5.271   3.005  12.266  0.00  0.00    +0.000 C 
BRANCH  29  30
ATOM     30  C   UNL     1       4.699   3.870  11.153  0.00  0.00    +0.000 C 
BRANCH  30  32
ATOM     31  C   UNL     1       2.812   4.160   9.541  0.00  0.00    +0.000 C 
ATOM     32  C   UNL     1       3.357   3.325  10.684  0.00  0.00    +0.000 C 
ENDBRANCH  30  32
ENDBRANCH  29  30
ENDBRANCH  28  29
ENDBRANCH  27  28
ENDBRANCH  26  27
ENDBRANCH  25  26
ENDBRANCH  24  25
ENDBRANCH  23  24
ENDBRANCH  22  23
ENDBRANCH  20  22
ENDBRANCH   1  20
BRANCH   4  33
ATOM     33  O   UNL     1       1.736   7.712  21.348  0.00  0.00    +0.000 OA
ATOM     34  H   UNL     1       1.020   7.371  21.915  0.00  0.00    +0.000 HD
ENDBRANCH   4  33
TORSDOF 15
ENDMDL
MODEL 2
REMARK VINA RESULT:      -7.4      2.100      3.978
REMARK  Name = 
REMARK  16 active torsions:
REMARK  status: ('A' for Active; 'I' for Inactive)
REMARK    1  A    between atoms: C_1  and  C_2
REMARK    2  A    between atoms: C_2  and  C_3
REMARK    3  A    between atoms: C_3  and  C_4
REMARK    4  A    between atoms: C_4  and  C_5
REMARK    5  A    between atoms: C_5  and  C_6
REMARK    6  A    between atoms: C_6  and  C_7
REMARK    7  A    between atoms: C_7  and  C_8
REMARK    8  A    between atoms: C_8  and  C_9
REMARK    9  A    between atoms: C_9  and  C_10
REMARK   10  A    between atoms: C_10  and  C_11
REMARK   11  A    between atoms: C_11  and  C_12
REMARK   12  A    between atoms: C_12  and  C_14
REMARK   13  A    between atoms: C_17  and  O_18
REMARK   14  A    between atoms: C_19  and  C_20
REMARK   15  A    between atoms: N_22  and  C_23
REMARK   16  A    between atoms: C_23  and  C_24
REMARK                            x       y       z     vdW  Elec       q    Type
REMARK                         _______ _______ _______ _____ _____    ______ ____
ROOT
ATOM      1  C   UNL     1       2.762   6.793  19.405  0.00  0.00    +0.000 A 
ATOM      2  C   UNL     1       3.106   7.030  18.070  0.00  0.00    +0.000 A 
ATOM      3  C   UNL     1       2.645   8.174  17.428  0.00  0.00    +0.000 A 
ATOM      4  C   UNL     1       1.833   9.083  18.120  0.00  0.00    +0.000 A 
ATOM      5  C   UNL     1       1.437   8.849  19.452  0.00  0.00    +0.000 A 
ATOM      6  C   UNL     1       1.911   7.694  20.081  0.00  0.00    +0.000 A 
ENDROOT
BRANCH   5   7
ATOM      7  C   UNL     1       0.536   9.771  20.240  0.00  0.00    +0.000 C 
ATOM      8  O   UNL     1      -0.052   9.367  21.248  0.00  0.00    +0.000 OA
ATOM      9  N   UNL     1       0.464  11.069  19.799  0.00  0.00    +0.000 N 
ATOM     10  H   UNL     1       1.016  11.288  18.975  0.00  0.00    +0.000 HD
BRANCH   9  11
ATOM     11  C   UNL     1      -0.327  12.121  20.420  0.00  0.00    +0.000 C 
BRANCH  11  12
ATOM     12  C   UNL     1      -1.778  12.156  19.964  0.00  0.00    +0.000 A 
ATOM     13  C   UNL     1      -2.771  12.789  20.731  0.00  0.00    +0.000 A 
ATOM     14  C   UNL     1      -4.114  12.789  20.337  0.00  0.00    +0.000 A 
ATOM     15  C   UNL     1      -4.495  12.172  19.146  0.00  0.00    +0.000 A 
ATOM     16 CL   UNL     1      -6.170  12.225  18.726  0.00  0.00    +0.000 Cl
ATOM     17  C   UNL     1      -3.525  11.555  18.357  0.00  0.00    +0.000 A 
ATOM     18 CL   UNL     1      -3.929  10.770  16.870  0.00  0.00    +0.000 Cl
ATOM     19  C   UNL     1      -2.175  11.546  18.761  0.00  0.00    +0.000 A 
ENDBRANCH  11  12
ENDBRANCH   9  11
ENDBRANCH   5   7
BRANCH   1  20
ATOM     20  C   UNL     1       3.303   5.592  20.094  0.00  0.00    +0.000 C 
ATOM     21  O   UNL     1       4.491   5.283  19.930  0.00  0.00    +0.000 OA
BRANCH  20  22
ATOM     22  C   UNL     1       2.355   4.805  20.975  0.00  0.00    +0.000 C 
BRANCH  22  23
ATOM     23  C   UNL     1       1.068   4.450  20.250  0.00  0.00    +0.000 C 
BRANCH  23  24
ATOM     24  C   UNL     1       0.806   2.952  20.301  0.00  0.00    +0.000 C 
BRANCH  24  25
ATOM     25  C   UNL     1       0.736   2.387  18.889  0.00  0.00    +0.000 C 
BRANCH  25  26
ATOM     26  C   UNL     1       1.669   3.150  17.963  0.00  0.00    +0.000 C 
BRANCH  26  27
ATOM     27  C   UNL     1       2.827   2.260  17.536  0.00  0.00    +0.000 C 
BRANCH  27  28
ATOM     28  C   UNL     1       4.144   3.000  17.696  0.00  0.00    +0.000 C 
BRANCH  28  29
ATOM     29  C   UNL     1       4.436   3.833  16.457  0.00  0.00    +0.000 C 
BRANCH  29  30
ATOM     30  C   UNL     1       5.611   4.764  16.713  0.00  0.00    +0.000 C 
BRANCH  30  32
ATOM     31  C   UNL     1       5.818   4.273  14.272  0.00  0.00    +0.000 C 
ATOM     32  C   UNL     1       6.261   5.183  15.401  0.00  0.00    +0.000 C 
ENDBRANCH  30  32
ENDBRANCH  29  30
ENDBRANCH  28  29
ENDBRANCH  27  28
ENDBRANCH  26  27
ENDBRANCH  25  26
ENDBRANCH  24  25
ENDBRANCH  23  24
ENDBRANCH  22  23
ENDBRANCH  20  22
ENDBRANCH   1  20
BRANCH   4  33
ATOM     33  O   UNL     1       1.426  10.208  17.452  0.00  0.00    +0.000 OA
ATOM     34  H   UNL     1       0.497  10.392  17.682  0.00  0.00    +0.000 HD
ENDBRANCH   4  33
TORSDOF 15
ENDMDL
MODEL 3
REMARK VINA RESULT:      -7.3      4.094      6.527
REMARK  Name = 
REMARK  16 active torsions:
REMARK  status: ('A' for Active; 'I' for Inactive)
REMARK    1  A    between atoms: C_1  and  C_2
REMARK    2  A    between atoms: C_2  and  C_3
REMARK    3  A    between atoms: C_3  and  C_4
REMARK    4  A    between atoms: C_4  and  C_5
REMARK    5  A    between atoms: C_5  and  C_6
REMARK    6  A    between atoms: C_6  and  C_7
REMARK    7  A    between atoms: C_7  and  C_8
REMARK    8  A    between atoms: C_8  and  C_9
REMARK    9  A    between atoms: C_9  and  C_10
REMARK   10  A    between atoms: C_10  and  C_11
REMARK   11  A    between atoms: C_11  and  C_12
REMARK   12  A    between atoms: C_12  and  C_14
REMARK   13  A    between atoms: C_17  and  O_18
REMARK   14  A    between atoms: C_19  and  C_20
REMARK   15  A    between atoms: N_22  and  C_23
REMARK   16  A    between atoms: C_23  and  C_24
REMARK                            x       y       z     vdW  Elec       q    Type
REMARK                         _______ _______ _______ _____ _____    ______ ____
ROOT
ATOM      1  C   UNL     1       4.564   5.136  17.026  0.00  0.00    +0.000 A 
ATOM      2  C   UNL     1       4.462   3.764  16.774  0.00  0.00    +0.000 A 
ATOM      3  C   UNL     1       3.582   2.986  17.519  0.00  0.00    +0.000 A 
ATOM      4  C   UNL     1       2.805   3.580  18.523  0.00  0.00    +0.000 A 
ATOM      5  C   UNL     1       2.918   4.951  18.825  0.00  0.00    +0.000 A 
ATOM      6  C   UNL     1       3.807   5.717  18.065  0.00  0.00    +0.000 A 
ENDROOT
BRANCH   5   7
ATOM      7  C   UNL     1       2.136   5.642  19.917  0.00  0.00    +0.000 C 
ATOM      8  O   UNL     1       1.452   4.990  20.712  0.00  0.00    +0.000 OA
ATOM      9  N   UNL     1       2.280   7.006  19.995  0.00  0.00    +0.000 N 
ATOM     10  H   UNL     1       2.892   7.426  19.302  0.00  0.00    +0.000 HD
BRANCH   9  11
ATOM     11  C   UNL     1       1.632   7.861  20.977  0.00  0.00    +0.000 C 
BRANCH  11  12
ATOM     12  C   UNL     1       0.940   9.078  20.381  0.00  0.00    +0.000 A 
ATOM     13  C   UNL     1       1.150   9.458  19.045  0.00  0.00    +0.000 A 
ATOM     14  C   UNL     1       0.548  10.600  18.503  0.00  0.00    +0.000 A 
ATOM     15  C   UNL     1      -0.303  11.380  19.285  0.00  0.00    +0.000 A 
ATOM     16 CL   UNL     1      -1.015  12.767  18.539  0.00  0.00    +0.000 Cl
ATOM     17  C   UNL     1      -0.545  11.011  20.607  0.00  0.00    +0.000 A 
ATOM     18 CL   UNL     1      -1.589  11.936  21.631  0.00  0.00    +0.000 Cl
ATOM     19  C   UNL     1       0.071   9.868  21.154  0.00  0.00    +0.000 A 
ENDBRANCH  11  12
ENDBRANCH   9  11
ENDBRANCH   5   7
BRANCH   1  20
ATOM     20  C   UNL     1       5.471   5.963  16.188  0.00  0.00    +0.000 C 
ATOM     21  O   UNL     1       4.985   6.779  15.393  0.00  0.00    +0.000 OA
BRANCH  20  22
ATOM     22  C   UNL     1       6.962   5.759  16.361  0.00  0.00    +0.000 C 
BRANCH  22  23
ATOM     23  C   UNL     1       7.307   5.230  17.742  0.00  0.00    +0.000 C 
BRANCH  23  24
ATOM     24  C   UNL     1       7.719   6.359  18.675  0.00  0.00    +0.000 C 
BRANCH  24  25
ATOM     25  C   UNL     1       7.752   7.677  17.914  0.00  0.00    +0.000 C 
BRANCH  25  26
ATOM     26  C   UNL     1       8.737   8.640  18.556  0.00  0.00    +0.000 C 
BRANCH  26  27
ATOM     27  C   UNL     1       8.329  10.077  18.272  0.00  0.00    +0.000 C 
BRANCH  27  28
ATOM     28  C   UNL     1       9.561  10.949  18.099  0.00  0.00    +0.000 C 
BRANCH  28  29
ATOM     29  C   UNL     1       9.624  11.998  19.200  0.00  0.00    +0.000 C 
BRANCH  29  30
ATOM     30  C   UNL     1       9.681  11.327  20.564  0.00  0.00    +0.000 C 
BRANCH  30  32
ATOM     31  C   UNL     1       8.522  13.496  21.010  0.00  0.00    +0.000 C 
ATOM     32  C   UNL     1       9.089  12.234  21.634  0.00  0.00    +0.000 C 
ENDBRANCH  30  32
ENDBRANCH  29  30
ENDBRANCH  28  29
ENDBRANCH  27  28
ENDBRANCH  26  27
ENDBRANCH  25  26
ENDBRANCH  24  25
ENDBRANCH  23  24
ENDBRANCH  22  23
ENDBRANCH  20  22
ENDBRANCH   1  20
BRANCH   4  33
ATOM     33  O   UNL     1       1.934   2.776  19.211  0.00  0.00    +0.000 OA
ATOM     34  H   UNL     1       1.475   2.194  18.577  0.00  0.00    +0.000 HD
ENDBRANCH   4  33
TORSDOF 15
ENDMDL
MODEL 4
REMARK VINA RESULT:      -7.3      2.893      4.639
REMARK  Name = 
REMARK  16 active torsions:
REMARK  status: ('A' for Active; 'I' for Inactive)
REMARK    1  A    between atoms: C_1  and  C_2
REMARK    2  A    between atoms: C_2  and  C_3
REMARK    3  A    between atoms: C_3  and  C_4
REMARK    4  A    between atoms: C_4  and  C_5
REMARK    5  A    between atoms: C_5  and  C_6
REMARK    6  A    between atoms: C_6  and  C_7
REMARK    7  A    between atoms: C_7  and  C_8
REMARK    8  A    between atoms: C_8  and  C_9
REMARK    9  A    between atoms: C_9  and  C_10
REMARK   10  A    between atoms: C_10  and  C_11
REMARK   11  A    between atoms: C_11  and  C_12
REMARK   12  A    between atoms: C_12  and  C_14
REMARK   13  A    between atoms: C_17  and  O_18
REMARK   14  A    between atoms: C_19  and  C_20
REMARK   15  A    between atoms: N_22  and  C_23
REMARK   16  A    between atoms: C_23  and  C_24
REMARK                            x       y       z     vdW  Elec       q    Type
REMARK                         _______ _______ _______ _____ _____    ______ ____
ROOT
ATOM      1  C   UNL     1       2.093   7.545  19.506  0.00  0.00    +0.000 A 
ATOM      2  C   UNL     1       2.337   7.881  18.170  0.00  0.00    +0.000 A 
ATOM      3  C   UNL     1       1.964   9.131  17.690  0.00  0.00    +0.000 A 
ATOM      4  C   UNL     1       1.338  10.048  18.546  0.00  0.00    +0.000 A 
ATOM      5  C   UNL     1       1.042   9.721  19.884  0.00  0.00    +0.000 A 
ATOM      6  C   UNL     1       1.427   8.459  20.349  0.00  0.00    +0.000 A 
ENDROOT
BRANCH   5   7
ATOM      7  C   UNL     1       0.340  10.650  20.846  0.00  0.00    +0.000 C 
ATOM      8  O   UNL     1       0.650  10.673  22.041  0.00  0.00    +0.000 OA
ATOM      9  N   UNL     1      -0.604  11.484  20.300  0.00  0.00    +0.000 N 
ATOM     10  H   UNL     1      -0.752  11.392  19.300  0.00  0.00    +0.000 HD
BRANCH   9  11
ATOM     11  C   UNL     1      -1.383  12.465  21.042  0.00  0.00    +0.000 C 
BRANCH  11  12
ATOM     12  C   UNL     1      -2.868  12.459  20.708  0.00  0.00    +0.000 A 
ATOM     13  C   UNL     1      -3.840  12.708  21.691  0.00  0.00    +0.000 A 
ATOM     14  C   UNL     1      -5.208  12.664  21.399  0.00  0.00    +0.000 A 
ATOM     15  C   UNL     1      -5.638  12.390  20.101  0.00  0.00    +0.000 A 
ATOM     16 CL   UNL     1      -7.343  12.363  19.820  0.00  0.00    +0.000 Cl
ATOM     17  C   UNL     1      -4.692  12.160  19.103  0.00  0.00    +0.000 A 
ATOM     18 CL   UNL     1      -5.158  11.814  17.474  0.00  0.00    +0.000 Cl
ATOM     19  C   UNL     1      -3.315  12.194  19.402  0.00  0.00    +0.000 A 
ENDBRANCH  11  12
ENDBRANCH   9  11
ENDBRANCH   5   7
BRANCH   1  20
ATOM     20  C   UNL     1       2.544   6.224  20.018  0.00  0.00    +0.000 C 
ATOM     21  O   UNL     1       3.716   5.871  19.835  0.00  0.00    +0.000 OA
BRANCH  20  22
ATOM     22  C   UNL     1       1.525   5.373  20.749  0.00  0.00    +0.000 C 
BRANCH  22  23
ATOM     23  C   UNL     1       2.110   4.046  21.199  0.00  0.00    +0.000 C 
BRANCH  23  24
ATOM     24  C   UNL     1       1.172   2.894  20.869  0.00  0.00    +0.000 C 
BRANCH  24  25
ATOM     25  C   UNL     1       1.772   2.034  19.765  0.00  0.00    +0.000 C 
BRANCH  25  26
ATOM     26  C   UNL     1       1.761   2.782  18.442  0.00  0.00    +0.000 C 
BRANCH  26  27
ATOM     27  C   UNL     1       2.874   2.270  17.540  0.00  0.00    +0.000 C 
BRANCH  27  28
ATOM     28  C   UNL     1       4.071   3.203  17.602  0.00  0.00    +0.000 C 
BRANCH  28  29
ATOM     29  C   UNL     1       3.763   4.506  16.880  0.00  0.00    +0.000 C 
BRANCH  29  30
ATOM     30  C   UNL     1       5.053   5.197  16.465  0.00  0.00    +0.000 C 
BRANCH  30  32
ATOM     31  C   UNL     1       7.366   4.558  17.166  0.00  0.00    +0.000 C 
ATOM     32  C   UNL     1       6.177   4.183  16.301  0.00  0.00    +0.000 C 
ENDBRANCH  30  32
ENDBRANCH  29  30
ENDBRANCH  28  29
ENDBRANCH  27  28
ENDBRANCH  26  27
ENDBRANCH  25  26
ENDBRANCH  24  25
ENDBRANCH  23  24
ENDBRANCH  22  23
ENDBRANCH  20  22
ENDBRANCH   1  20
BRANCH   4  33
ATOM     33  O   UNL     1       1.013  11.276  18.033  0.00  0.00    +0.000 OA
ATOM     34  H   UNL     1       0.085  11.474  18.257  0.00  0.00    +0.000 HD
ENDBRANCH   4  33
TORSDOF 15
ENDMDL
MODEL 5
REMARK VINA RESULT:      -7.2      3.707      5.875
REMARK  Name = 
REMARK  16 active torsions:
REMARK  status: ('A' for Active; 'I' for Inactive)
REMARK    1  A    between atoms: C_1  and  C_2
REMARK    2  A    between atoms: C_2  and  C_3
REMARK    3  A    between atoms: C_3  and  C_4
REMARK    4  A    between atoms: C_4  and  C_5
REMARK    5  A    between atoms: C_5  and  C_6
REMARK    6  A    between atoms: C_6  and  C_7
REMARK    7  A    between atoms: C_7  and  C_8
REMARK    8  A    between atoms: C_8  and  C_9
REMARK    9  A    between atoms: C_9  and  C_10
REMARK   10  A    between atoms: C_10  and  C_11
REMARK   11  A    between atoms: C_11  and  C_12
REMARK   12  A    between atoms: C_12  and  C_14
REMARK   13  A    between atoms: C_17  and  O_18
REMARK   14  A    between atoms: C_19  and  C_20
REMARK   15  A    between atoms: N_22  and  C_23
REMARK   16  A    between atoms: C_23  and  C_24
REMARK                            x       y       z     vdW  Elec       q    Type
REMARK                         _______ _______ _______ _____ _____    ______ ____
ROOT
ATOM      1  C   UNL     1       1.505   8.699  19.421  0.00  0.00    +0.000 A 
ATOM      2  C   UNL     1       1.609   7.719  20.413  0.00  0.00    +0.000 A 
ATOM      3  C   UNL     1       0.973   7.901  21.637  0.00  0.00    +0.000 A 
ATOM      4  C   UNL     1       0.235   9.069  21.872  0.00  0.00    +0.000 A 
ATOM      5  C   UNL     1       0.148  10.091  20.905  0.00  0.00    +0.000 A 
ATOM      6  C   UNL     1       0.793   9.889  19.682  0.00  0.00    +0.000 A 
ENDROOT
BRANCH   5   7
ATOM      7  C   UNL     1      -0.601  11.386  21.111  0.00  0.00    +0.000 C 
ATOM      8  O   UNL     1      -0.445  12.048  22.142  0.00  0.00    +0.000 OA
ATOM      9  N   UNL     1      -1.404  11.793  20.073  0.00  0.00    +0.000 N 
ATOM     10  H   UNL     1      -1.428  11.177  19.266  0.00  0.00    +0.000 HD
BRANCH   9  11
ATOM     11  C   UNL     1      -2.196  13.013  20.057  0.00  0.00    +0.000 C 
BRANCH  11  12
ATOM     12  C   UNL     1      -3.615  12.839  20.578  0.00  0.00    +0.000 A 
ATOM     13  C   UNL     1      -4.674  12.499  19.720  0.00  0.00    +0.000 A 
ATOM     14  C   UNL     1      -5.987  12.377  20.187  0.00  0.00    +0.000 A 
ATOM     15  C   UNL     1      -6.271  12.572  21.539  0.00  0.00    +0.000 A 
ATOM     16 CL   UNL     1      -7.916  12.394  22.037  0.00  0.00    +0.000 Cl
ATOM     17  C   UNL     1      -5.233  12.890  22.414  0.00  0.00    +0.000 A 
ATOM     18 CL   UNL     1      -5.516  13.146  24.102  0.00  0.00    +0.000 Cl
ATOM     19  C   UNL     1      -3.913  13.023  21.940  0.00  0.00    +0.000 A 
ENDBRANCH  11  12
ENDBRANCH   9  11
ENDBRANCH   5   7
BRANCH   1  20
ATOM     20  C   UNL     1       2.147   8.468  18.100  0.00  0.00    +0.000 C 
ATOM     21  O   UNL     1       2.455   9.440  17.398  0.00  0.00    +0.000 OA
BRANCH  20  22
ATOM     22  C   UNL     1       2.396   7.032  17.686  0.00  0.00    +0.000 C 
BRANCH  22  23
ATOM     23  C   UNL     1       3.873   6.680  17.711  0.00  0.00    +0.000 C 
BRANCH  23  24
ATOM     24  C   UNL     1       4.084   5.230  18.120  0.00  0.00    +0.000 C 
BRANCH  24  25
ATOM     25  C   UNL     1       3.799   4.309  16.942  0.00  0.00    +0.000 C 
BRANCH  25  26
ATOM     26  C   UNL     1       2.767   3.260  17.322  0.00  0.00    +0.000 C 
BRANCH  26  27
ATOM     27  C   UNL     1       1.524   3.928  17.888  0.00  0.00    +0.000 C 
BRANCH  27  28
ATOM     28  C   UNL     1       0.980   3.122  19.056  0.00  0.00    +0.000 C 
BRANCH  28  29
ATOM     29  C   UNL     1       0.885   3.994  20.299  0.00  0.00    +0.000 C 
BRANCH  29  30
ATOM     30  C   UNL     1       2.235   4.063  20.998  0.00  0.00    +0.000 C 
BRANCH  30  32
ATOM     31  C   UNL     1       4.043   2.366  20.687  0.00  0.00    +0.000 C 
ATOM     32  C   UNL     1       2.721   2.669  21.368  0.00  0.00    +0.000 C 
ENDBRANCH  30  32
ENDBRANCH  29  30
ENDBRANCH  28  29
ENDBRANCH  27  28
ENDBRANCH  26  27
ENDBRANCH  25  26
ENDBRANCH  24  25
ENDBRANCH  23  24
ENDBRANCH  22  23
ENDBRANCH  20  22
ENDBRANCH   1  20
BRANCH   4  33
ATOM     33  O   UNL     1      -0.395   9.190  23.083  0.00  0.00    +0.000 OA
ATOM     34  H   UNL     1      -0.752  10.094  23.162  0.00  0.00    +0.000 HD
ENDBRANCH   4  33
TORSDOF 15
ENDMDL
MODEL 6
REMARK VINA RESULT:      -7.1      1.724      2.855
REMARK  Name = 
REMARK  16 active torsions:
REMARK  status: ('A' for Active; 'I' for Inactive)
REMARK    1  A    between atoms: C_1  and  C_2
REMARK    2  A    between atoms: C_2  and  C_3
REMARK    3  A    between atoms: C_3  and  C_4
REMARK    4  A    between atoms: C_4  and  C_5
REMARK    5  A    between atoms: C_5  and  C_6
REMARK    6  A    between atoms: C_6  and  C_7
REMARK    7  A    between atoms: C_7  and  C_8
REMARK    8  A    between atoms: C_8  and  C_9
REMARK    9  A    between atoms: C_9  and  C_10
REMARK   10  A    between atoms: C_10  and  C_11
REMARK   11  A    between atoms: C_11  and  C_12
REMARK   12  A    between atoms: C_12  and  C_14
REMARK   13  A    between atoms: C_17  and  O_18
REMARK   14  A    between atoms: C_19  and  C_20
REMARK   15  A    between atoms: N_22  and  C_23
REMARK   16  A    between atoms: C_23  and  C_24
REMARK                            x       y       z     vdW  Elec       q    Type
REMARK                         _______ _______ _______ _____ _____    ______ ____
ROOT
ATOM      1  C   UNL     1       2.437   6.593  19.295  0.00  0.00    +0.000 A 
ATOM      2  C   UNL     1       2.925   6.864  18.013  0.00  0.00    +0.000 A 
ATOM      3  C   UNL     1       2.738   8.121  17.451  0.00  0.00    +0.000 A 
ATOM      4  C   UNL     1       2.055   9.112  18.171  0.00  0.00    +0.000 A 
ATOM      5  C   UNL     1       1.517   8.854  19.447  0.00  0.00    +0.000 A 
ATOM      6  C   UNL     1       1.717   7.584  19.995  0.00  0.00    +0.000 A 
ENDROOT
BRANCH   5   7
ATOM      7  C   UNL     1       0.742   9.867  20.257  0.00  0.00    +0.000 C 
ATOM      8  O   UNL     1       0.925   9.972  21.474  0.00  0.00    +0.000 OA
ATOM      9  N   UNL     1      -0.114  10.677  19.554  0.00  0.00    +0.000 N 
ATOM     10  H   UNL     1      -0.157  10.513  18.552  0.00  0.00    +0.000 HD
BRANCH   9  11
ATOM     11  C   UNL     1      -0.940  11.726  20.134  0.00  0.00    +0.000 C 
BRANCH  11  12
ATOM     12  C   UNL     1      -2.318  11.852  19.502  0.00  0.00    +0.000 A 
ATOM     13  C   UNL     1      -3.392  12.432  20.197  0.00  0.00    +0.000 A 
ATOM     14  C   UNL     1      -4.671  12.514  19.635  0.00  0.00    +0.000 A 
ATOM     15  C   UNL     1      -4.902  12.035  18.346  0.00  0.00    +0.000 A 
ATOM     16 CL   UNL     1      -6.506  12.182  17.721  0.00  0.00    +0.000 Cl
ATOM     17  C   UNL     1      -3.847  11.474  17.627  0.00  0.00    +0.000 A 
ATOM     18 CL   UNL     1      -4.065  10.861  16.025  0.00  0.00    +0.000 Cl
ATOM     19  C   UNL     1      -2.562  11.383  18.199  0.00  0.00    +0.000 A 
ENDBRANCH  11  12
ENDBRANCH   9  11
ENDBRANCH   5   7
BRANCH   1  20
ATOM     20  C   UNL     1       2.689   5.260  19.904  0.00  0.00    +0.000 C 
ATOM     21  O   UNL     1       2.445   5.086  21.105  0.00  0.00    +0.000 OA
BRANCH  20  22
ATOM     22  C   UNL     1       3.238   4.173  19.001  0.00  0.00    +0.000 C 
BRANCH  22  23
ATOM     23  C   UNL     1       4.571   3.643  19.496  0.00  0.00    +0.000 C 
BRANCH  23  24
ATOM     24  C   UNL     1       5.624   4.742  19.518  0.00  0.00    +0.000 C 
BRANCH  24  25
ATOM     25  C   UNL     1       5.903   5.224  18.101  0.00  0.00    +0.000 C 
BRANCH  25  26
ATOM     26  C   UNL     1       7.278   4.767  17.643  0.00  0.00    +0.000 C 
BRANCH  26  27
ATOM     27  C   UNL     1       7.283   4.545  16.138  0.00  0.00    +0.000 C 
BRANCH  27  28
ATOM     28  C   UNL     1       6.305   5.492  15.465  0.00  0.00    +0.000 C 
BRANCH  28  29
ATOM     29  C   UNL     1       5.389   4.723  14.525  0.00  0.00    +0.000 C 
BRANCH  29  30
ATOM     30  C   UNL     1       6.119   3.524  13.940  0.00  0.00    +0.000 C 
BRANCH  30  32
ATOM     31  C   UNL     1       5.610   2.543  11.699  0.00  0.00    +0.000 C 
ATOM     32  C   UNL     1       6.292   3.681  12.435  0.00  0.00    +0.000 C 
ENDBRANCH  30  32
ENDBRANCH  29  30
ENDBRANCH  28  29
ENDBRANCH  27  28
ENDBRANCH  26  27
ENDBRANCH  25  26
ENDBRANCH  24  25
ENDBRANCH  23  24
ENDBRANCH  22  23
ENDBRANCH  20  22
ENDBRANCH   1  20
BRANCH   4  33
ATOM     33  O   UNL     1       1.919  10.343  17.584  0.00  0.00    +0.000 OA
ATOM     34  H   UNL     1       2.180  11.028  18.228  0.00  0.00    +0.000 HD
ENDBRANCH   4  33
TORSDOF 15
ENDMDL
MODEL 7
REMARK VINA RESULT:      -7.0      2.737      3.946
REMARK  Name = 
REMARK  16 active torsions:
REMARK  status: ('A' for Active; 'I' for Inactive)
REMARK    1  A    between atoms: C_1  and  C_2
REMARK    2  A    between atoms: C_2  and  C_3
REMARK    3  A    between atoms: C_3  and  C_4
REMARK    4  A    between atoms: C_4  and  C_5
REMARK    5  A    between atoms: C_5  and  C_6
REMARK    6  A    between atoms: C_6  and  C_7
REMARK    7  A    between atoms: C_7  and  C_8
REMARK    8  A    between atoms: C_8  and  C_9
REMARK    9  A    between atoms: C_9  and  C_10
REMARK   10  A    between atoms: C_10  and  C_11
REMARK   11  A    between atoms: C_11  and  C_12
REMARK   12  A    between atoms: C_12  and  C_14
REMARK   13  A    between atoms: C_17  and  O_18
REMARK   14  A    between atoms: C_19  and  C_20
REMARK   15  A    between atoms: N_22  and  C_23
REMARK   16  A    between atoms: C_23  and  C_24
REMARK                            x       y       z     vdW  Elec       q    Type
REMARK                         _______ _______ _______ _____ _____    ______ ____
ROOT
ATOM      1  C   UNL     1       2.421   6.587  19.429  0.00  0.00    +0.000 A 
ATOM      2  C   UNL     1       2.334   7.195  18.172  0.00  0.00    +0.000 A 
ATOM      3  C   UNL     1       1.842   8.490  18.060  0.00  0.00    +0.000 A 
ATOM      4  C   UNL     1       1.429   9.180  19.209  0.00  0.00    +0.000 A 
ATOM      5  C   UNL     1       1.466   8.577  20.482  0.00  0.00    +0.000 A 
ATOM      6  C   UNL     1       1.965   7.275  20.573  0.00  0.00    +0.000 A 
ENDROOT
BRANCH   5   7
ATOM      7  C   UNL     1       1.003   9.254  21.751  0.00  0.00    +0.000 C 
ATOM      8  O   UNL     1       1.773   9.396  22.706  0.00  0.00    +0.000 OA
ATOM      9  N   UNL     1      -0.282   9.737  21.745  0.00  0.00    +0.000 N 
ATOM     10  H   UNL     1      -0.808   9.585  20.890  0.00  0.00    +0.000 HD
BRANCH   9  11
ATOM     11  C   UNL     1      -0.919  10.434  22.852  0.00  0.00    +0.000 C 
BRANCH  11  12
ATOM     12  C   UNL     1      -1.679  11.687  22.442  0.00  0.00    +0.000 A 
ATOM     13  C   UNL     1      -1.549  12.233  21.155  0.00  0.00    +0.000 A 
ATOM     14  C   UNL     1      -2.214  13.408  20.786  0.00  0.00    +0.000 A 
ATOM     15  C   UNL     1      -3.049  14.056  21.695  0.00  0.00    +0.000 A 
ATOM     16 CL   UNL     1      -3.842  15.494  21.159  0.00  0.00    +0.000 Cl
ATOM     17  C   UNL     1      -3.211  13.521  22.973  0.00  0.00    +0.000 A 
ATOM     18 CL   UNL     1      -4.232  14.274  24.149  0.00  0.00    +0.000 Cl
ATOM     19  C   UNL     1      -2.532  12.344  23.346  0.00  0.00    +0.000 A 
ENDBRANCH  11  12
ENDBRANCH   9  11
ENDBRANCH   5   7
BRANCH   1  20
ATOM     20  C   UNL     1       2.997   5.221  19.538  0.00  0.00    +0.000 C 
ATOM     21  O   UNL     1       2.833   4.576  20.582  0.00  0.00    +0.000 OA
BRANCH  20  22
ATOM     22  C   UNL     1       3.760   4.687  18.343  0.00  0.00    +0.000 C 
BRANCH  22  23
ATOM     23  C   UNL     1       5.130   4.162  18.732  0.00  0.00    +0.000 C 
BRANCH  23  24
ATOM     24  C   UNL     1       5.977   5.256  19.367  0.00  0.00    +0.000 C 
BRANCH  24  25
ATOM     25  C   UNL     1       7.269   5.435  18.583  0.00  0.00    +0.000 C 
BRANCH  25  26
ATOM     26  C   UNL     1       7.198   4.690  17.260  0.00  0.00    +0.000 C 
BRANCH  26  27
ATOM     27  C   UNL     1       6.838   5.648  16.136  0.00  0.00    +0.000 C 
BRANCH  27  28
ATOM     28  C   UNL     1       5.916   4.966  15.139  0.00  0.00    +0.000 C 
BRANCH  28  29
ATOM     29  C   UNL     1       6.685   4.587  13.883  0.00  0.00    +0.000 C 
BRANCH  29  30
ATOM     30  C   UNL     1       6.054   3.368  13.226  0.00  0.00    +0.000 C 
BRANCH  30  32
ATOM     31  C   UNL     1       4.283   3.135  11.479  0.00  0.00    +0.000 C 
ATOM     32  C   UNL     1       5.668   3.673  11.785  0.00  0.00    +0.000 C 
ENDBRANCH  30  32
ENDBRANCH  29  30
ENDBRANCH  28  29
ENDBRANCH  27  28
ENDBRANCH  26  27
ENDBRANCH  25  26
ENDBRANCH  24  25
ENDBRANCH  23  24
ENDBRANCH  22  23
ENDBRANCH  20  22
ENDBRANCH   1  20
BRANCH   4  33
ATOM     33  O   UNL     1       0.976  10.464  19.050  0.00  0.00    +0.000 OA
ATOM     34  H   UNL     1       1.722  11.029  18.778  0.00  0.00    +0.000 HD
ENDBRANCH   4  33
TORSDOF 15
ENDMDL
MODEL 8
REMARK VINA RESULT:      -7.0      3.493      5.238
REMARK  Name = 
REMARK  16 active torsions:
REMARK  status: ('A' for Active; 'I' for Inactive)
REMARK    1  A    between atoms: C_1  and  C_2
REMARK    2  A    between atoms: C_2  and  C_3
REMARK    3  A    between atoms: C_3  and  C_4
REMARK    4  A    between atoms: C_4  and  C_5
REMARK    5  A    between atoms: C_5  and  C_6
REMARK    6  A    between atoms: C_6  and  C_7
REMARK    7  A    between atoms: C_7  and  C_8
REMARK    8  A    between atoms: C_8  and  C_9
REMARK    9  A    between atoms: C_9  and  C_10
REMARK   10  A    between atoms: C_10  and  C_11
REMARK   11  A    between atoms: C_11  and  C_12
REMARK   12  A    between atoms: C_12  and  C_14
REMARK   13  A    between atoms: C_17  and  O_18
REMARK   14  A    between atoms: C_19  and  C_20
REMARK   15  A    between atoms: N_22  and  C_23
REMARK   16  A    between atoms: C_23  and  C_24
REMARK                            x       y       z     vdW  Elec       q    Type
REMARK                         _______ _______ _______ _____ _____    ______ ____
ROOT
ATOM      1  C   UNL     1       2.125   7.366  19.519  0.00  0.00    +0.000 A 
ATOM      2  C   UNL     1       2.057   8.108  18.335  0.00  0.00    +0.000 A 
ATOM      3  C   UNL     1       1.526   9.393  18.351  0.00  0.00    +0.000 A 
ATOM      4  C   UNL     1       1.055   9.937  19.555  0.00  0.00    +0.000 A 
ATOM      5  C   UNL     1       1.073   9.197  20.753  0.00  0.00    +0.000 A 
ATOM      6  C   UNL     1       1.612   7.907  20.716  0.00  0.00    +0.000 A 
ENDROOT
BRANCH   5   7
ATOM      7  C   UNL     1       0.548   9.713  22.073  0.00  0.00    +0.000 C 
ATOM      8  O   UNL     1       1.170   9.509  23.120  0.00  0.00    +0.000 OA
ATOM      9  N   UNL     1      -0.607  10.452  22.018  0.00  0.00    +0.000 N 
ATOM     10  H   UNL     1      -1.011  10.574  21.094  0.00  0.00    +0.000 HD
BRANCH   9  11
ATOM     11  C   UNL     1      -1.271  11.054  23.165  0.00  0.00    +0.000 C 
BRANCH  11  12
ATOM     12  C   UNL     1      -1.918  12.399  22.871  0.00  0.00    +0.000 A 
ATOM     13  C   UNL     1      -1.162  13.583  22.837  0.00  0.00    +0.000 A 
ATOM     14  C   UNL     1      -1.759  14.828  22.608  0.00  0.00    +0.000 A 
ATOM     15  C   UNL     1      -3.132  14.916  22.384  0.00  0.00    +0.000 A 
ATOM     16 CL   UNL     1      -3.790  16.489  22.100  0.00  0.00    +0.000 Cl
ATOM     17  C   UNL     1      -3.901  13.753  22.393  0.00  0.00    +0.000 A 
ATOM     18 CL   UNL     1      -5.609  13.792  22.123  0.00  0.00    +0.000 Cl
ATOM     19  C   UNL     1      -3.300  12.501  22.634  0.00  0.00    +0.000 A 
ENDBRANCH  11  12
ENDBRANCH   9  11
ENDBRANCH   5   7
BRANCH   1  20
ATOM     20  C   UNL     1       2.742   6.014  19.495  0.00  0.00    +0.000 C 
ATOM     21  O   UNL     1       3.976   5.911  19.507  0.00  0.00    +0.000 OA
BRANCH  20  22
ATOM     22  C   UNL     1       1.809   4.821  19.461  0.00  0.00    +0.000 C 
BRANCH  22  23
ATOM     23  C   UNL     1       2.495   3.550  19.929  0.00  0.00    +0.000 C 
BRANCH  23  24
ATOM     24  C   UNL     1       2.123   2.368  19.044  0.00  0.00    +0.000 C 
BRANCH  24  25
ATOM     25  C   UNL     1       2.519   2.653  17.602  0.00  0.00    +0.000 C 
BRANCH  25  26
ATOM     26  C   UNL     1       4.023   2.837  17.489  0.00  0.00    +0.000 C 
BRANCH  26  27
ATOM     27  C   UNL     1       4.341   4.039  16.612  0.00  0.00    +0.000 C 
BRANCH  27  28
ATOM     28  C   UNL     1       5.751   3.927  16.058  0.00  0.00    +0.000 C 
BRANCH  28  29
ATOM     29  C   UNL     1       6.585   5.124  16.491  0.00  0.00    +0.000 C 
BRANCH  29  30
ATOM     30  C   UNL     1       7.511   4.734  17.633  0.00  0.00    +0.000 C 
BRANCH  30  32
ATOM     31  C   UNL     1       7.792   7.191  17.993  0.00  0.00    +0.000 C 
ATOM     32  C   UNL     1       7.586   5.848  18.668  0.00  0.00    +0.000 C 
ENDBRANCH  30  32
ENDBRANCH  29  30
ENDBRANCH  28  29
ENDBRANCH  27  28
ENDBRANCH  26  27
ENDBRANCH  25  26
ENDBRANCH  24  25
ENDBRANCH  23  24
ENDBRANCH  22  23
ENDBRANCH  20  22
ENDBRANCH   1  20
BRANCH   4  33
ATOM     33  O   UNL     1       0.564  11.216  19.524  0.00  0.00    +0.000 OA
ATOM     34  H   UNL     1       0.208  11.438  20.405  0.00  0.00    +0.000 HD
ENDBRANCH   4  33
TORSDOF 15
ENDMDL
MODEL 9
REMARK VINA RESULT:      -7.0      2.336      3.603
REMARK  Name = 
REMARK  16 active torsions:
REMARK  status: ('A' for Active; 'I' for Inactive)
REMARK    1  A    between atoms: C_1  and  C_2
REMARK    2  A    between atoms: C_2  and  C_3
REMARK    3  A    between atoms: C_3  and  C_4
REMARK    4  A    between atoms: C_4  and  C_5
REMARK    5  A    between atoms: C_5  and  C_6
REMARK    6  A    between atoms: C_6  and  C_7
REMARK    7  A    between atoms: C_7  and  C_8
REMARK    8  A    between atoms: C_8  and  C_9
REMARK    9  A    between atoms: C_9  and  C_10
REMARK   10  A    between atoms: C_10  and  C_11
REMARK   11  A    between atoms: C_11  and  C_12
REMARK   12  A    between atoms: C_12  and  C_14
REMARK   13  A    between atoms: C_17  and  O_18
REMARK   14  A    between atoms: C_19  and  C_20
REMARK   15  A    between atoms: N_22  and  C_23
REMARK   16  A    between atoms: C_23  and  C_24
REMARK                            x       y       z     vdW  Elec       q    Type
REMARK                         _______ _______ _______ _____ _____    ______ ____
ROOT
ATOM      1  C   UNL     1       2.246   6.821  19.632  0.00  0.00    +0.000 A 
ATOM      2  C   UNL     1       2.458   7.194  18.301  0.00  0.00    +0.000 A 
ATOM      3  C   UNL     1       2.062   8.452  17.862  0.00  0.00    +0.000 A 
ATOM      4  C   UNL     1       1.445   9.340  18.755  0.00  0.00    +0.000 A 
ATOM      5  C   UNL     1       1.182   8.975  20.090  0.00  0.00    +0.000 A 
ATOM      6  C   UNL     1       1.589   7.706  20.513  0.00  0.00    +0.000 A 
ENDROOT
BRANCH   5   7
ATOM      7  C   UNL     1       0.491   9.871  21.090  0.00  0.00    +0.000 C 
ATOM      8  O   UNL     1      -0.109   9.391  22.057  0.00  0.00    +0.000 OA
ATOM      9  N   UNL     1       0.621  11.222  20.884  0.00  0.00    +0.000 N 
ATOM     10  H   UNL     1       1.163  11.495  20.069  0.00  0.00    +0.000 HD
BRANCH   9  11
ATOM     11  C   UNL     1       0.052  12.258  21.734  0.00  0.00    +0.000 C 
BRANCH  11  12
ATOM     12  C   UNL     1      -1.459  12.395  21.617  0.00  0.00    +0.000 A 
ATOM     13  C   UNL     1      -2.087  12.532  20.368  0.00  0.00    +0.000 A 
ATOM     14  C   UNL     1      -3.472  12.700  20.257  0.00  0.00    +0.000 A 
ATOM     15  C   UNL     1      -4.269  12.712  21.401  0.00  0.00    +0.000 A 
ATOM     16 CL   UNL     1      -5.971  12.914  21.178  0.00  0.00    +0.000 Cl
ATOM     17  C   UNL     1      -3.672  12.557  22.651  0.00  0.00    +0.000 A 
ATOM     18 CL   UNL     1      -4.603  12.563  24.109  0.00  0.00    +0.000 Cl
ATOM     19  C   UNL     1      -2.276  12.399  22.761  0.00  0.00    +0.000 A 
ENDBRANCH  11  12
ENDBRANCH   9  11
ENDBRANCH   5   7
BRANCH   1  20
ATOM     20  C   UNL     1       2.721   5.492  20.099  0.00  0.00    +0.000 C 
ATOM     21  O   UNL     1       2.271   5.024  21.154  0.00  0.00    +0.000 OA
BRANCH  20  22
ATOM     22  C   UNL     1       3.744   4.774  19.242  0.00  0.00    +0.000 C 
BRANCH  22  23
ATOM     23  C   UNL     1       3.099   3.743  18.333  0.00  0.00    +0.000 C 
BRANCH  23  24
ATOM     24  C   UNL     1       3.824   3.661  16.997  0.00  0.00    +0.000 C 
BRANCH  24  25
ATOM     25  C   UNL     1       5.166   4.375  17.088  0.00  0.00    +0.000 C 
BRANCH  25  26
ATOM     26  C   UNL     1       5.136   5.669  16.291  0.00  0.00    +0.000 C 
BRANCH  26  27
ATOM     27  C   UNL     1       5.914   5.506  14.995  0.00  0.00    +0.000 C 
BRANCH  27  28
ATOM     28  C   UNL     1       5.314   4.389  14.159  0.00  0.00    +0.000 C 
BRANCH  28  29
ATOM     29  C   UNL     1       6.400   3.690  13.354  0.00  0.00    +0.000 C 
BRANCH  29  30
ATOM     30  C   UNL     1       5.838   3.197  12.029  0.00  0.00    +0.000 C 
BRANCH  30  32
ATOM     31  C   UNL     1       3.715   2.892  10.747  0.00  0.00    +0.000 C 
ATOM     32  C   UNL     1       4.412   3.692  11.832  0.00  0.00    +0.000 C 
ENDBRANCH  30  32
ENDBRANCH  29  30
ENDBRANCH  28  29
ENDBRANCH  27  28
ENDBRANCH  26  27
ENDBRANCH  25  26
ENDBRANCH  24  25
ENDBRANCH  23  24
ENDBRANCH  22  23
ENDBRANCH  20  22
ENDBRANCH   1  20
BRANCH   4  33
ATOM     33  O   UNL     1       1.097  10.578  18.282  0.00  0.00    +0.000 OA
ATOM     34  H   UNL     1       0.749  11.110  19.021  0.00  0.00    +0.000 HD
ENDBRANCH   4  33
TORSDOF 15
ENDMDL
