MODEL 1
REMARK VINA RESULT:      -8.0      0.000      0.000
REMARK  Name = 
REMARK  5 active torsions:
REMARK  status: ('A' for Active; 'I' for Inactive)
REMARK    1  A    between atoms: C_1  and  C_2
REMARK    2  A    between atoms: C_6  and  N_7
REMARK    3  A    between atoms: C_8  and  C_10
REMARK    4  A    between atoms: C_11  and  C_12
REMARK    5  A    between atoms: C_18  and  C_19
REMARK                            x       y       z     vdW  Elec       q    Type
REMARK                         _______ _______ _______ _____ _____    ______ ____
ROOT
ATOM      1  N   UNL     1       6.868   7.344  16.878  0.00  0.00    +0.000 N 
ATOM      2  C   UNL     1       7.751   7.615  17.911  0.00  0.00    +0.000 C 
ATOM      3  O   UNL     1       8.175   6.833  18.752  0.00  0.00    +0.000 OA
ATOM      4  H   UNL     1       6.646   8.110  16.266  0.00  0.00    +0.000 HD
ENDROOT
BRANCH   1  10
ATOM      5  C   UNL     1       3.026   4.104  17.308  0.00  0.00    +0.000 C 
ATOM      6  C   UNL     1       4.385   4.512  16.794  0.00  0.00    +0.000 A 
ATOM      7  C   UNL     1       5.062   3.609  15.963  0.00  0.00    +0.000 A 
ATOM      8  C   UNL     1       6.308   3.929  15.454  0.00  0.00    +0.000 A 
ATOM      9  C   UNL     1       6.889   5.155  15.764  0.00  0.00    +0.000 A 
ATOM     10  C   UNL     1       6.249   6.093  16.589  0.00  0.00    +0.000 A 
ATOM     11  C   UNL     1       4.977   5.765  17.127  0.00  0.00    +0.000 A 
ATOM     12  C   UNL     1       4.200   6.677  18.047  0.00  0.00    +0.000 C 
ENDBRANCH   1  10
BRANCH   2  13
ATOM     13  C   UNL     1       8.189   9.040  17.942  0.00  0.00    +0.000 C 
ATOM     14  C   UNL     1       9.038   9.428  18.909  0.00  0.00    +0.000 C 
BRANCH  14  15
ATOM     15  C   UNL     1       9.549  10.792  19.083  0.00  0.00    +0.000 A 
ATOM     16  C   UNL     1       9.739  11.359  20.348  0.00  0.00    +0.000 A 
ATOM     17  C   UNL     1      10.266  12.647  20.476  0.00  0.00    +0.000 A 
ATOM     18  C   UNL     1      10.619  13.373  19.340  0.00  0.00    +0.000 A 
ATOM     19  C   UNL     1      10.457  12.810  18.077  0.00  0.00    +0.000 A 
ATOM     20  C   UNL     1       9.927  11.525  17.949  0.00  0.00    +0.000 A 
ENDBRANCH  14  15
ENDBRANCH   2  13
TORSDOF 3
ENDMDL
MODEL 2
REMARK VINA RESULT:      -8.0      0.207      1.124
REMARK  Name = 
REMARK  5 active torsions:
REMARK  status: ('A' for Active; 'I' for Inactive)
REMARK    1  A    between atoms: C_1  and  C_2
REMARK    2  A    between atoms: C_6  and  N_7
REMARK    3  A    between atoms: C_8  and  C_10
REMARK    4  A    between atoms: C_11  and  C_12
REMARK    5  A    between atoms: C_18  and  C_19
REMARK                            x       y       z     vdW  Elec       q    Type
REMARK                         _______ _______ _______ _____ _____    ______ ____
ROOT
ATOM      1  N   UNL     1       6.862   7.254  16.800  0.00  0.00    +0.000 N 
ATOM      2  C   UNL     1       7.699   7.534  17.867  0.00  0.00    +0.000 C 
ATOM      3  O   UNL     1       8.103   6.753  18.720  0.00  0.00    +0.000 OA
ATOM      4  H   UNL     1       6.650   8.021  16.183  0.00  0.00    +0.000 HD
ENDROOT
BRANCH   1  10
ATOM      5  C   UNL     1       3.163   3.854  17.246  0.00  0.00    +0.000 C 
ATOM      6  C   UNL     1       4.481   4.336  16.692  0.00  0.00    +0.000 A 
ATOM      7  C   UNL     1       5.151   3.500  15.789  0.00  0.00    +0.000 A 
ATOM      8  C   UNL     1       6.359   3.889  15.241  0.00  0.00    +0.000 A 
ATOM      9  C   UNL     1       6.909   5.122  15.583  0.00  0.00    +0.000 A 
ATOM     10  C   UNL     1       6.276   5.995  16.479  0.00  0.00    +0.000 A 
ATOM     11  C   UNL     1       5.043   5.595  17.058  0.00  0.00    +0.000 A 
ATOM     12  C   UNL     1       4.277   6.433  18.054  0.00  0.00    +0.000 C 
ENDBRANCH   1  10
BRANCH   2  13
ATOM     13  C   UNL     1       8.112   8.965  17.923  0.00  0.00    +0.000 C 
ATOM     14  C   UNL     1       8.995   9.340  18.865  0.00  0.00    +0.000 C 
BRANCH  14  15
ATOM     15  C   UNL     1       9.488  10.709  19.060  0.00  0.00    +0.000 A 
ATOM     16  C   UNL     1       9.774  11.556  17.985  0.00  0.00    +0.000 A 
ATOM     17  C   UNL     1      10.203  12.867  18.209  0.00  0.00    +0.000 A 
ATOM     18  C   UNL     1      10.336  13.345  19.511  0.00  0.00    +0.000 A 
ATOM     19  C   UNL     1      10.031  12.518  20.589  0.00  0.00    +0.000 A 
ATOM     20  C   UNL     1       9.606  11.207  20.365  0.00  0.00    +0.000 A 
ENDBRANCH  14  15
ENDBRANCH   2  13
TORSDOF 3
ENDMDL
MODEL 3
REMARK VINA RESULT:      -7.8      5.527      7.274
REMARK  Name = 
REMARK  5 active torsions:
REMARK  status: ('A' for Active; 'I' for Inactive)
REMARK    1  A    between atoms: C_1  and  C_2
REMARK    2  A    between atoms: C_6  and  N_7
REMARK    3  A    between atoms: C_8  and  C_10
REMARK    4  A    between atoms: C_11  and  C_12
REMARK    5  A    between atoms: C_18  and  C_19
REMARK                            x       y       z     vdW  Elec       q    Type
REMARK                         _______ _______ _______ _____ _____    ______ ____
ROOT
ATOM      1  N   UNL     1       4.365   4.738  17.886  0.00  0.00    +0.000 N 
ATOM      2  C   UNL     1       5.731   4.564  18.037  0.00  0.00    +0.000 C 
ATOM      3  O   UNL     1       6.358   4.474  19.086  0.00  0.00    +0.000 OA
ATOM      4  H   UNL     1       4.020   4.770  16.942  0.00  0.00    +0.000 HD
ENDROOT
BRANCH   1  10
ATOM      5  C   UNL     1       1.421   2.746  21.465  0.00  0.00    +0.000 C 
ATOM      6  C   UNL     1       1.964   3.907  20.668  0.00  0.00    +0.000 A 
ATOM      7  C   UNL     1       1.504   5.190  20.993  0.00  0.00    +0.000 A 
ATOM      8  C   UNL     1       1.970   6.294  20.304  0.00  0.00    +0.000 A 
ATOM      9  C   UNL     1       2.907   6.131  19.286  0.00  0.00    +0.000 A 
ATOM     10  C   UNL     1       3.400   4.868  18.926  0.00  0.00    +0.000 A 
ATOM     11  C   UNL     1       2.913   3.728  19.619  0.00  0.00    +0.000 A 
ATOM     12  C   UNL     1       3.346   2.315  19.308  0.00  0.00    +0.000 C 
ENDBRANCH   1  10
BRANCH   2  13
ATOM     13  C   UNL     1       6.456   4.491  16.736  0.00  0.00    +0.000 C 
ATOM     14  C   UNL     1       5.735   4.434  15.604  0.00  0.00    +0.000 C 
BRANCH  14  15
ATOM     15  C   UNL     1       6.297   4.344  14.251  0.00  0.00    +0.000 A 
ATOM     16  C   UNL     1       5.771   3.482  13.283  0.00  0.00    +0.000 A 
ATOM     17  C   UNL     1       6.307   3.453  11.993  0.00  0.00    +0.000 A 
ATOM     18  C   UNL     1       7.365   4.296  11.657  0.00  0.00    +0.000 A 
ATOM     19  C   UNL     1       7.882   5.174  12.606  0.00  0.00    +0.000 A 
ATOM     20  C   UNL     1       7.348   5.201  13.896  0.00  0.00    +0.000 A 
ENDBRANCH  14  15
ENDBRANCH   2  13
TORSDOF 3
ENDMDL
MODEL 4
REMARK VINA RESULT:      -7.8      5.528      7.281
REMARK  Name = 
REMARK  5 active torsions:
REMARK  status: ('A' for Active; 'I' for Inactive)
REMARK    1  A    between atoms: C_1  and  C_2
REMARK    2  A    between atoms: C_6  and  N_7
REMARK    3  A    between atoms: C_8  and  C_10
REMARK    4  A    between atoms: C_11  and  C_12
REMARK    5  A    between atoms: C_18  and  C_19
REMARK                            x       y       z     vdW  Elec       q    Type
REMARK                         _______ _______ _______ _____ _____    ______ ____
ROOT
ATOM      1  N   UNL     1       4.341   4.768  17.900  0.00  0.00    +0.000 N 
ATOM      2  C   UNL     1       5.704   4.571  18.042  0.00  0.00    +0.000 C 
ATOM      3  O   UNL     1       6.333   4.443  19.085  0.00  0.00    +0.000 OA
ATOM      4  H   UNL     1       3.992   4.830  16.958  0.00  0.00    +0.000 HD
ENDROOT
BRANCH   1  10
ATOM      5  C   UNL     1       1.377   2.728  21.435  0.00  0.00    +0.000 C 
ATOM      6  C   UNL     1       1.935   3.900  20.666  0.00  0.00    +0.000 A 
ATOM      7  C   UNL     1       1.496   5.182  21.027  0.00  0.00    +0.000 A 
ATOM      8  C   UNL     1       1.977   6.297  20.366  0.00  0.00    +0.000 A 
ATOM      9  C   UNL     1       2.907   6.146  19.341  0.00  0.00    +0.000 A 
ATOM     10  C   UNL     1       3.380   4.886  18.946  0.00  0.00    +0.000 A 
ATOM     11  C   UNL     1       2.879   3.735  19.610  0.00  0.00    +0.000 A 
ATOM     12  C   UNL     1       3.289   2.325  19.261  0.00  0.00    +0.000 C 
ENDBRANCH   1  10
BRANCH   2  13
ATOM     13  C   UNL     1       6.424   4.521  16.737  0.00  0.00    +0.000 C 
ATOM     14  C   UNL     1       5.698   4.495  15.606  0.00  0.00    +0.000 C 
BRANCH  14  15
ATOM     15  C   UNL     1       6.255   4.431  14.249  0.00  0.00    +0.000 A 
ATOM     16  C   UNL     1       7.361   5.193  13.863  0.00  0.00    +0.000 A 
ATOM     17  C   UNL     1       7.889   5.075  12.574  0.00  0.00    +0.000 A 
ATOM     18  C   UNL     1       7.321   4.184  11.666  0.00  0.00    +0.000 A 
ATOM     19  C   UNL     1       6.234   3.403  12.047  0.00  0.00    +0.000 A 
ATOM     20  C   UNL     1       5.705   3.523  13.333  0.00  0.00    +0.000 A 
ENDBRANCH  14  15
ENDBRANCH   2  13
TORSDOF 3
ENDMDL
MODEL 5
REMARK VINA RESULT:      -7.7      1.209      1.209
REMARK  Name = 
REMARK  5 active torsions:
REMARK  status: ('A' for Active; 'I' for Inactive)
REMARK    1  A    between atoms: C_1  and  C_2
REMARK    2  A    between atoms: C_6  and  N_7
REMARK    3  A    between atoms: C_8  and  C_10
REMARK    4  A    between atoms: C_11  and  C_12
REMARK    5  A    between atoms: C_18  and  C_19
REMARK                            x       y       z     vdW  Elec       q    Type
REMARK                         _______ _______ _______ _____ _____    ______ ____
ROOT
ATOM      1  N   UNL     1       7.690   6.435  17.590  0.00  0.00    +0.000 N 
ATOM      2  C   UNL     1       7.486   7.805  17.569  0.00  0.00    +0.000 C 
ATOM      3  O   UNL     1       6.582   8.414  17.010  0.00  0.00    +0.000 OA
ATOM      4  H   UNL     1       8.478   6.108  18.122  0.00  0.00    +0.000 HD
ENDROOT
BRANCH   1  10
ATOM      5  C   UNL     1       3.789   3.237  17.532  0.00  0.00    +0.000 C 
ATOM      6  C   UNL     1       5.002   3.884  16.910  0.00  0.00    +0.000 A 
ATOM      7  C   UNL     1       5.347   3.498  15.608  0.00  0.00    +0.000 A 
ATOM      8  C   UNL     1       6.444   4.060  14.980  0.00  0.00    +0.000 A 
ATOM      9  C   UNL     1       7.204   5.020  15.643  0.00  0.00    +0.000 A 
ATOM     10  C   UNL     1       6.896   5.443  16.945  0.00  0.00    +0.000 A 
ATOM     11  C   UNL     1       5.781   4.858  17.601  0.00  0.00    +0.000 A 
ATOM     12  C   UNL     1       5.363   5.208  19.009  0.00  0.00    +0.000 C 
ENDBRANCH   1  10
BRANCH   2  13
ATOM     13  C   UNL     1       8.523   8.559  18.331  0.00  0.00    +0.000 C 
ATOM     14  C   UNL     1       8.632   9.883  18.123  0.00  0.00    +0.000 C 
BRANCH  14  15
ATOM     15  C   UNL     1       9.608  10.760  18.781  0.00  0.00    +0.000 A 
ATOM     16  C   UNL     1       9.586  10.995  20.159  0.00  0.00    +0.000 A 
ATOM     17  C   UNL     1      10.557  11.804  20.756  0.00  0.00    +0.000 A 
ATOM     18  C   UNL     1      11.565  12.374  19.981  0.00  0.00    +0.000 A 
ATOM     19  C   UNL     1      11.610  12.128  18.611  0.00  0.00    +0.000 A 
ATOM     20  C   UNL     1      10.639  11.322  18.014  0.00  0.00    +0.000 A 
ENDBRANCH  14  15
ENDBRANCH   2  13
TORSDOF 3
ENDMDL
MODEL 6
REMARK VINA RESULT:      -7.7      1.209      1.601
REMARK  Name = 
REMARK  5 active torsions:
REMARK  status: ('A' for Active; 'I' for Inactive)
REMARK    1  A    between atoms: C_1  and  C_2
REMARK    2  A    between atoms: C_6  and  N_7
REMARK    3  A    between atoms: C_8  and  C_10
REMARK    4  A    between atoms: C_11  and  C_12
REMARK    5  A    between atoms: C_18  and  C_19
REMARK                            x       y       z     vdW  Elec       q    Type
REMARK                         _______ _______ _______ _____ _____    ______ ____
ROOT
ATOM      1  N   UNL     1       7.697   6.422  17.608  0.00  0.00    +0.000 N 
ATOM      2  C   UNL     1       7.521   7.796  17.587  0.00  0.00    +0.000 C 
ATOM      3  O   UNL     1       6.628   8.423  17.030  0.00  0.00    +0.000 OA
ATOM      4  H   UNL     1       8.481   6.079  18.137  0.00  0.00    +0.000 HD
ENDROOT
BRANCH   1  10
ATOM      5  C   UNL     1       3.774   3.251  17.594  0.00  0.00    +0.000 C 
ATOM      6  C   UNL     1       4.976   3.901  16.952  0.00  0.00    +0.000 A 
ATOM      7  C   UNL     1       5.287   3.533  15.636  0.00  0.00    +0.000 A 
ATOM      8  C   UNL     1       6.371   4.099  14.991  0.00  0.00    +0.000 A 
ATOM      9  C   UNL     1       7.154   5.043  15.650  0.00  0.00    +0.000 A 
ATOM     10  C   UNL     1       6.881   5.446  16.966  0.00  0.00    +0.000 A 
ATOM     11  C   UNL     1       5.778   4.857  17.640  0.00  0.00    +0.000 A 
ATOM     12  C   UNL     1       5.398   5.187  19.064  0.00  0.00    +0.000 C 
ENDBRANCH   1  10
BRANCH   2  13
ATOM     13  C   UNL     1       8.576   8.530  18.343  0.00  0.00    +0.000 C 
ATOM     14  C   UNL     1       8.656   9.864  18.199  0.00  0.00    +0.000 C 
BRANCH  14  15
ATOM     15  C   UNL     1       9.644  10.724  18.860  0.00  0.00    +0.000 A 
ATOM     16  C   UNL     1      10.693  11.328  18.159  0.00  0.00    +0.000 A 
ATOM     17  C   UNL     1      11.591  12.174  18.816  0.00  0.00    +0.000 A 
ATOM     18  C   UNL     1      11.439  12.432  20.177  0.00  0.00    +0.000 A 
ATOM     19  C   UNL     1      10.386  11.855  20.881  0.00  0.00    +0.000 A 
ATOM     20  C   UNL     1       9.490  11.008  20.225  0.00  0.00    +0.000 A 
ENDBRANCH  14  15
ENDBRANCH   2  13
TORSDOF 3
ENDMDL
MODEL 7
REMARK VINA RESULT:      -7.6      5.521      7.193
REMARK  Name = 
REMARK  5 active torsions:
REMARK  status: ('A' for Active; 'I' for Inactive)
REMARK    1  A    between atoms: C_1  and  C_2
REMARK    2  A    between atoms: C_6  and  N_7
REMARK    3  A    between atoms: C_8  and  C_10
REMARK    4  A    between atoms: C_11  and  C_12
REMARK    5  A    between atoms: C_18  and  C_19
REMARK                            x       y       z     vdW  Elec       q    Type
REMARK                         _______ _______ _______ _____ _____    ______ ____
ROOT
ATOM      1  N   UNL     1       4.600   4.213  18.001  0.00  0.00    +0.000 N 
ATOM      2  C   UNL     1       5.968   4.416  18.075  0.00  0.00    +0.000 C 
ATOM      3  O   UNL     1       6.642   4.584  19.084  0.00  0.00    +0.000 OA
ATOM      4  H   UNL     1       4.217   4.072  17.082  0.00  0.00    +0.000 HD
ENDROOT
BRANCH   1  10
ATOM      5  C   UNL     1       1.173   6.418  20.974  0.00  0.00    +0.000 C 
ATOM      6  C   UNL     1       2.014   5.243  20.540  0.00  0.00    +0.000 A 
ATOM      7  C   UNL     1       1.857   4.039  21.240  0.00  0.00    +0.000 A 
ATOM      8  C   UNL     1       2.594   2.924  20.885  0.00  0.00    +0.000 A 
ATOM      9  C   UNL     1       3.491   2.996  19.823  0.00  0.00    +0.000 A 
ATOM     10  C   UNL     1       3.681   4.177  19.090  0.00  0.00    +0.000 A 
ATOM     11  C   UNL     1       2.939   5.330  19.459  0.00  0.00    +0.000 A 
ATOM     12  C   UNL     1       3.072   6.665  18.766  0.00  0.00    +0.000 C 
ENDBRANCH   1  10
BRANCH   2  13
ATOM     13  C   UNL     1       6.629   4.422  16.739  0.00  0.00    +0.000 C 
ATOM     14  C   UNL     1       5.860   4.292  15.644  0.00  0.00    +0.000 C 
BRANCH  14  15
ATOM     15  C   UNL     1       6.358   4.264  14.264  0.00  0.00    +0.000 A 
ATOM     16  C   UNL     1       5.782   3.452  13.282  0.00  0.00    +0.000 A 
ATOM     17  C   UNL     1       6.257   3.482  11.968  0.00  0.00    +0.000 A 
ATOM     18  C   UNL     1       7.305   4.334  11.623  0.00  0.00    +0.000 A 
ATOM     19  C   UNL     1       7.871   5.164  12.587  0.00  0.00    +0.000 A 
ATOM     20  C   UNL     1       7.398   5.132  13.901  0.00  0.00    +0.000 A 
ENDBRANCH  14  15
ENDBRANCH   2  13
TORSDOF 3
ENDMDL
MODEL 8
REMARK VINA RESULT:      -7.5      0.885      1.064
REMARK  Name = 
REMARK  5 active torsions:
REMARK  status: ('A' for Active; 'I' for Inactive)
REMARK    1  A    between atoms: C_1  and  C_2
REMARK    2  A    between atoms: C_6  and  N_7
REMARK    3  A    between atoms: C_8  and  C_10
REMARK    4  A    between atoms: C_11  and  C_12
REMARK    5  A    between atoms: C_18  and  C_19
REMARK                            x       y       z     vdW  Elec       q    Type
REMARK                         _______ _______ _______ _____ _____    ______ ____
ROOT
ATOM      1  N   UNL     1       6.137   7.171  17.265  0.00  0.00    +0.000 N 
ATOM      2  C   UNL     1       7.387   7.319  17.842  0.00  0.00    +0.000 C 
ATOM      3  O   UNL     1       8.060   6.456  18.392  0.00  0.00    +0.000 OA
ATOM      4  H   UNL     1       5.741   7.990  16.838  0.00  0.00    +0.000 HD
ENDROOT
BRANCH   1  10
ATOM      5  C   UNL     1       1.780   4.699  17.860  0.00  0.00    +0.000 C 
ATOM      6  C   UNL     1       3.243   4.770  17.495  0.00  0.00    +0.000 A 
ATOM      7  C   UNL     1       3.859   3.592  17.050  0.00  0.00    +0.000 A 
ATOM      8  C   UNL     1       5.195   3.594  16.693  0.00  0.00    +0.000 A 
ATOM      9  C   UNL     1       5.930   4.774  16.771  0.00  0.00    +0.000 A 
ATOM     10  C   UNL     1       5.358   5.979  17.208  0.00  0.00    +0.000 A 
ATOM     11  C   UNL     1       3.991   5.980  17.590  0.00  0.00    +0.000 A 
ATOM     12  C   UNL     1       3.268   7.204  18.100  0.00  0.00    +0.000 C 
ENDBRANCH   1  10
BRANCH   2  13
ATOM     13  C   UNL     1       7.910   8.713  17.750  0.00  0.00    +0.000 C 
ATOM     14  C   UNL     1       8.672   9.179  18.754  0.00  0.00    +0.000 C 
BRANCH  14  15
ATOM     15  C   UNL     1       9.247  10.528  18.818  0.00  0.00    +0.000 A 
ATOM     16  C   UNL     1      10.206  10.883  19.772  0.00  0.00    +0.000 A 
ATOM     17  C   UNL     1      10.761  12.165  19.777  0.00  0.00    +0.000 A 
ATOM     18  C   UNL     1      10.370  13.099  18.820  0.00  0.00    +0.000 A 
ATOM     19  C   UNL     1       9.432  12.750  17.851  0.00  0.00    +0.000 A 
ATOM     20  C   UNL     1       8.876  11.469  17.848  0.00  0.00    +0.000 A 
ENDBRANCH  14  15
ENDBRANCH   2  13
TORSDOF 3
ENDMDL
MODEL 9
REMARK VINA RESULT:      -7.4      0.886      1.483
REMARK  Name = 
REMARK  5 active torsions:
REMARK  status: ('A' for Active; 'I' for Inactive)
REMARK    1  A    between atoms: C_1  and  C_2
REMARK    2  A    between atoms: C_6  and  N_7
REMARK    3  A    between atoms: C_8  and  C_10
REMARK    4  A    between atoms: C_11  and  C_12
REMARK    5  A    between atoms: C_18  and  C_19
REMARK                            x       y       z     vdW  Elec       q    Type
REMARK                         _______ _______ _______ _____ _____    ______ ____
ROOT
ATOM      1  N   UNL     1       6.067   7.172  17.262  0.00  0.00    +0.000 N 
ATOM      2  C   UNL     1       7.386   7.268  17.676  0.00  0.00    +0.000 C 
ATOM      3  O   UNL     1       8.123   6.356  18.029  0.00  0.00    +0.000 OA
ATOM      4  H   UNL     1       5.621   8.030  16.986  0.00  0.00    +0.000 HD
ENDROOT
BRANCH   1  10
ATOM      5  C   UNL     1       1.718   4.696  17.888  0.00  0.00    +0.000 C 
ATOM      6  C   UNL     1       3.169   4.775  17.483  0.00  0.00    +0.000 A 
ATOM      7  C   UNL     1       3.765   3.614  16.973  0.00  0.00    +0.000 A 
ATOM      8  C   UNL     1       5.090   3.625  16.577  0.00  0.00    +0.000 A 
ATOM      9  C   UNL     1       5.833   4.798  16.679  0.00  0.00    +0.000 A 
ATOM     10  C   UNL     1       5.281   5.987  17.180  0.00  0.00    +0.000 A 
ATOM     11  C   UNL     1       3.925   5.978  17.603  0.00  0.00    +0.000 A 
ATOM     12  C   UNL     1       3.224   7.183  18.183  0.00  0.00    +0.000 C 
ENDBRANCH   1  10
BRANCH   2  13
ATOM     13  C   UNL     1       7.898   8.668  17.667  0.00  0.00    +0.000 C 
ATOM     14  C   UNL     1       8.634   9.087  18.711  0.00  0.00    +0.000 C 
BRANCH  14  15
ATOM     15  C   UNL     1       9.196  10.435  18.858  0.00  0.00    +0.000 A 
ATOM     16  C   UNL     1       8.960  11.446  17.920  0.00  0.00    +0.000 A 
ATOM     17  C   UNL     1       9.477  12.729  18.115  0.00  0.00    +0.000 A 
ATOM     18  C   UNL     1      10.225  13.015  19.255  0.00  0.00    +0.000 A 
ATOM     19  C   UNL     1      10.448  12.023  20.207  0.00  0.00    +0.000 A 
ATOM     20  C   UNL     1       9.932  10.740  20.011  0.00  0.00    +0.000 A 
ENDBRANCH  14  15
ENDBRANCH   2  13
TORSDOF 3
ENDMDL
