MODEL 1
REMARK VINA RESULT:      -6.9      0.000      0.000
REMARK  Name = 
REMARK  6 active torsions:
REMARK  status: ('A' for Active; 'I' for Inactive)
REMARK    1  A    between atoms: C_2  and  C_3
REMARK    2  A    between atoms: C_2  and  C_16
REMARK    3  A    between atoms: C_4  and  C_5
REMARK    4  A    between atoms: C_8  and  O_9
REMARK    5  A    between atoms: O_9  and  C_10
REMARK    6  A    between atoms: C_10  and  C_11
REMARK                            x       y       z     vdW  Elec       q    Type
REMARK                         _______ _______ _______ _____ _____    ______ ____
ROOT
ATOM      1  C   UNL     1       3.584   6.418  18.310  0.00  0.00    +0.000 A 
ATOM      2  C   UNL     1       2.943   6.195  19.535  0.00  0.00    +0.000 A 
ATOM      3  C   UNL     1       2.014   7.106  20.033  0.00  0.00    +0.000 A 
ATOM      4  C   UNL     1       1.750   8.285  19.340  0.00  0.00    +0.000 A 
ATOM      5  C   UNL     1       2.360   8.506  18.105  0.00  0.00    +0.000 A 
ATOM      6  C   UNL     1       3.283   7.583  17.596  0.00  0.00    +0.000 A 
ENDROOT
BRANCH   1   8
ATOM      7  C   UNL     1       5.920   5.808  17.831  0.00  0.00    +0.000 C 
ATOM      8  C   UNL     1       4.614   5.493  17.826  0.00  0.00    +0.000 C 
BRANCH   7  10
ATOM      9  O   UNL     1       7.801   4.389  17.925  0.00  0.00    +0.000 OA
ATOM     10  C   UNL     1       6.941   4.908  17.219  0.00  0.00    +0.000 C 
BRANCH  10  11
ATOM     11  C   UNL     1       6.832   4.659  15.796  0.00  0.00    +0.000 A 
ATOM     12  C   UNL     1       6.027   3.774  15.104  0.00  0.00    +0.000 A 
ATOM     13  C   UNL     1       6.324   3.934  13.729  0.00  0.00    +0.000 A 
ATOM     14  C   UNL     1       7.293   4.909  13.661  0.00  0.00    +0.000 A 
ATOM     15  O   UNL     1       7.604   5.358  14.904  0.00  0.00    +0.000 OA
ENDBRANCH  10  11
ENDBRANCH   7  10
ENDBRANCH   1   8
BRANCH   4  16
ATOM     16  O   UNL     1       0.935   9.286  19.799  0.00  0.00    +0.000 OA
BRANCH  16  17
ATOM     17  C   UNL     1       1.120   9.620  21.182  0.00  0.00    +0.000 C 
BRANCH  17  18
ATOM     18  C   UNL     1      -0.203   9.552  21.869  0.00  0.00    +0.000 C 
ATOM     19  C   UNL     1      -0.294   9.593  23.364  0.00  0.00    +0.000 C 
ATOM     20  S   UNL     1      -0.851  11.006  22.541  0.00  0.00    +0.000 S 
ENDBRANCH  17  18
ENDBRANCH  16  17
ENDBRANCH   4  16
TORSDOF 6
ENDMDL
MODEL 2
REMARK VINA RESULT:      -6.8      5.376      7.375
REMARK  Name = 
REMARK  6 active torsions:
REMARK  status: ('A' for Active; 'I' for Inactive)
REMARK    1  A    between atoms: C_2  and  C_3
REMARK    2  A    between atoms: C_2  and  C_16
REMARK    3  A    between atoms: C_4  and  C_5
REMARK    4  A    between atoms: C_8  and  O_9
REMARK    5  A    between atoms: O_9  and  C_10
REMARK    6  A    between atoms: C_10  and  C_11
REMARK                            x       y       z     vdW  Elec       q    Type
REMARK                         _______ _______ _______ _____ _____    ______ ____
ROOT
ATOM      1  C   UNL     1       7.344   7.531  17.788  0.00  0.00    +0.000 A 
ATOM      2  C   UNL     1       7.993   6.683  18.694  0.00  0.00    +0.000 A 
ATOM      3  C   UNL     1       7.473   5.426  18.996  0.00  0.00    +0.000 A 
ATOM      4  C   UNL     1       6.264   5.017  18.438  0.00  0.00    +0.000 A 
ATOM      5  C   UNL     1       5.623   5.840  17.512  0.00  0.00    +0.000 A 
ATOM      6  C   UNL     1       6.152   7.098  17.196  0.00  0.00    +0.000 A 
ENDROOT
BRANCH   1   8
ATOM      7  C   UNL     1       8.626   9.537  18.413  0.00  0.00    +0.000 C 
ATOM      8  C   UNL     1       7.855   8.881  17.530  0.00  0.00    +0.000 C 
BRANCH   7  10
ATOM      9  O   UNL     1       8.330  11.694  17.506  0.00  0.00    +0.000 OA
ATOM     10  C   UNL     1       9.033  10.956  18.191  0.00  0.00    +0.000 C 
BRANCH  10  11
ATOM     11  C   UNL     1      10.244  11.404  18.847  0.00  0.00    +0.000 A 
ATOM     12  C   UNL     1      11.517  11.588  18.342  0.00  0.00    +0.000 A 
ATOM     13  C   UNL     1      12.326  12.033  19.415  0.00  0.00    +0.000 A 
ATOM     14  C   UNL     1      11.500  12.096  20.514  0.00  0.00    +0.000 A 
ATOM     15  O   UNL     1      10.238  11.723  20.180  0.00  0.00    +0.000 OA
ENDBRANCH  10  11
ENDBRANCH   7  10
ENDBRANCH   1   8
BRANCH   4  16
ATOM     16  O   UNL     1       5.623   3.848  18.753  0.00  0.00    +0.000 OA
BRANCH  16  17
ATOM     17  C   UNL     1       4.573   3.478  17.849  0.00  0.00    +0.000 C 
BRANCH  17  18
ATOM     18  C   UNL     1       3.465   2.859  18.634  0.00  0.00    +0.000 C 
ATOM     19  C   UNL     1       3.387   3.034  20.120  0.00  0.00    +0.000 C 
ATOM     20  S   UNL     1       2.194   3.881  19.202  0.00  0.00    +0.000 S 
ENDBRANCH  17  18
ENDBRANCH  16  17
ENDBRANCH   4  16
TORSDOF 6
ENDMDL
MODEL 3
REMARK VINA RESULT:      -6.8      5.085      7.090
REMARK  Name = 
REMARK  6 active torsions:
REMARK  status: ('A' for Active; 'I' for Inactive)
REMARK    1  A    between atoms: C_2  and  C_3
REMARK    2  A    between atoms: C_2  and  C_16
REMARK    3  A    between atoms: C_4  and  C_5
REMARK    4  A    between atoms: C_8  and  O_9
REMARK    5  A    between atoms: O_9  and  C_10
REMARK    6  A    between atoms: C_10  and  C_11
REMARK                            x       y       z     vdW  Elec       q    Type
REMARK                         _______ _______ _______ _____ _____    ______ ____
ROOT
ATOM      1  C   UNL     1       6.198   5.286  18.211  0.00  0.00    +0.000 A 
ATOM      2  C   UNL     1       5.698   6.164  17.242  0.00  0.00    +0.000 A 
ATOM      3  C   UNL     1       6.349   7.361  16.955  0.00  0.00    +0.000 A 
ATOM      4  C   UNL     1       7.485   7.728  17.673  0.00  0.00    +0.000 A 
ATOM      5  C   UNL     1       8.011   6.850  18.620  0.00  0.00    +0.000 A 
ATOM      6  C   UNL     1       7.364   5.639  18.899  0.00  0.00    +0.000 A 
ENDROOT
BRANCH   1   8
ATOM      7  C   UNL     1       4.320   3.715  17.958  0.00  0.00    +0.000 C 
ATOM      8  C   UNL     1       5.468   4.063  18.561  0.00  0.00    +0.000 C 
BRANCH   7  10
ATOM      9  O   UNL     1       3.637   1.461  17.828  0.00  0.00    +0.000 OA
ATOM     10  C   UNL     1       3.526   2.536  18.412  0.00  0.00    +0.000 C 
BRANCH  10  11
ATOM     11  C   UNL     1       2.679   2.720  19.573  0.00  0.00    +0.000 A 
ATOM     12  C   UNL     1       1.316   2.925  19.660  0.00  0.00    +0.000 A 
ATOM     13  C   UNL     1       1.004   3.047  21.035  0.00  0.00    +0.000 A 
ATOM     14  C   UNL     1       2.196   2.908  21.710  0.00  0.00    +0.000 A 
ATOM     15  O   UNL     1       3.214   2.704  20.835  0.00  0.00    +0.000 OA
ENDBRANCH  10  11
ENDBRANCH   7  10
ENDBRANCH   1   8
BRANCH   4  16
ATOM     16  O   UNL     1       8.132   8.928  17.536  0.00  0.00    +0.000 OA
BRANCH  16  17
ATOM     17  C   UNL     1       8.845   9.360  18.703  0.00  0.00    +0.000 C 
BRANCH  17  18
ATOM     18  C   UNL     1       9.034  10.839  18.625  0.00  0.00    +0.000 C 
ATOM     19  C   UNL     1       9.821  11.567  19.670  0.00  0.00    +0.000 C 
ATOM     20  S   UNL     1      10.572  11.441  18.120  0.00  0.00    +0.000 S 
ENDBRANCH  17  18
ENDBRANCH  16  17
ENDBRANCH   4  16
TORSDOF 6
ENDMDL
MODEL 4
REMARK VINA RESULT:      -6.7      4.102      4.915
REMARK  Name = 
REMARK  6 active torsions:
REMARK  status: ('A' for Active; 'I' for Inactive)
REMARK    1  A    between atoms: C_2  and  C_3
REMARK    2  A    between atoms: C_2  and  C_16
REMARK    3  A    between atoms: C_4  and  C_5
REMARK    4  A    between atoms: C_8  and  O_9
REMARK    5  A    between atoms: O_9  and  C_10
REMARK    6  A    between atoms: C_10  and  C_11
REMARK                            x       y       z     vdW  Elec       q    Type
REMARK                         _______ _______ _______ _____ _____    ______ ____
ROOT
ATOM      1  C   UNL     1       2.124   7.209  19.591  0.00  0.00    +0.000 A 
ATOM      2  C   UNL     1       2.297   7.717  18.297  0.00  0.00    +0.000 A 
ATOM      3  C   UNL     1       1.839   8.988  17.959  0.00  0.00    +0.000 A 
ATOM      4  C   UNL     1       1.149   9.754  18.896  0.00  0.00    +0.000 A 
ATOM      5  C   UNL     1       0.995   9.273  20.196  0.00  0.00    +0.000 A 
ATOM      6  C   UNL     1       1.469   8.000  20.541  0.00  0.00    +0.000 A 
ENDROOT
BRANCH   1   8
ATOM      7  C   UNL     1       1.813   5.042  20.714  0.00  0.00    +0.000 C 
ATOM      8  C   UNL     1       2.543   5.843  19.920  0.00  0.00    +0.000 C 
BRANCH   7  10
ATOM      9  O   UNL     1       2.215   3.357  22.315  0.00  0.00    +0.000 OA
ATOM     10  C   UNL     1       2.314   3.702  21.141  0.00  0.00    +0.000 C 
BRANCH  10  11
ATOM     11  C   UNL     1       2.864   2.845  20.110  0.00  0.00    +0.000 A 
ATOM     12  C   UNL     1       4.141   2.339  19.956  0.00  0.00    +0.000 A 
ATOM     13  C   UNL     1       4.138   1.564  18.772  0.00  0.00    +0.000 A 
ATOM     14  C   UNL     1       2.859   1.640  18.270  0.00  0.00    +0.000 A 
ATOM     15  O   UNL     1       2.079   2.408  19.074  0.00  0.00    +0.000 OA
ENDBRANCH  10  11
ENDBRANCH   7  10
ENDBRANCH   1   8
BRANCH   4  16
ATOM     16  O   UNL     1       0.571  10.967  18.628  0.00  0.00    +0.000 OA
BRANCH  16  17
ATOM     17  C   UNL     1      -0.848  11.012  18.833  0.00  0.00    +0.000 C 
BRANCH  17  18
ATOM     18  C   UNL     1      -1.518  10.358  17.670  0.00  0.00    +0.000 C 
ATOM     19  C   UNL     1      -2.905   9.807  17.795  0.00  0.00    +0.000 C 
ATOM     20  S   UNL     1      -2.750  11.236  16.836  0.00  0.00    +0.000 S 
ENDBRANCH  17  18
ENDBRANCH  16  17
ENDBRANCH   4  16
TORSDOF 6
ENDMDL
MODEL 5
REMARK VINA RESULT:      -6.7      4.776      7.136
REMARK  Name = 
REMARK  6 active torsions:
REMARK  status: ('A' for Active; 'I' for Inactive)
REMARK    1  A    between atoms: C_2  and  C_3
REMARK    2  A    between atoms: C_2  and  C_16
REMARK    3  A    between atoms: C_4  and  C_5
REMARK    4  A    between atoms: C_8  and  O_9
REMARK    5  A    between atoms: O_9  and  C_10
REMARK    6  A    between atoms: C_10  and  C_11
REMARK                            x       y       z     vdW  Elec       q    Type
REMARK                         _______ _______ _______ _____ _____    ______ ____
ROOT
ATOM      1  C   UNL     1       5.975   5.527  17.951  0.00  0.00    +0.000 A 
ATOM      2  C   UNL     1       5.898   6.665  17.138  0.00  0.00    +0.000 A 
ATOM      3  C   UNL     1       6.860   7.669  17.218  0.00  0.00    +0.000 A 
ATOM      4  C   UNL     1       7.889   7.577  18.153  0.00  0.00    +0.000 A 
ATOM      5  C   UNL     1       7.995   6.436  18.947  0.00  0.00    +0.000 A 
ATOM      6  C   UNL     1       7.035   5.419  18.857  0.00  0.00    +0.000 A 
ENDROOT
BRANCH   1   8
ATOM      7  C   UNL     1       3.618   4.822  18.020  0.00  0.00    +0.000 C 
ATOM      8  C   UNL     1       4.920   4.509  17.915  0.00  0.00    +0.000 C 
BRANCH   7  10
ATOM      9  O   UNL     1       2.095   3.284  17.082  0.00  0.00    +0.000 OA
ATOM     10  C   UNL     1       2.567   3.766  18.108  0.00  0.00    +0.000 C 
BRANCH  10  11
ATOM     11  C   UNL     1       2.183   3.328  19.435  0.00  0.00    +0.000 A 
ATOM     12  C   UNL     1       0.947   3.329  20.053  0.00  0.00    +0.000 A 
ATOM     13  C   UNL     1       1.134   2.798  21.351  0.00  0.00    +0.000 A 
ATOM     14  C   UNL     1       2.475   2.503  21.452  0.00  0.00    +0.000 A 
ATOM     15  O   UNL     1       3.117   2.815  20.297  0.00  0.00    +0.000 OA
ENDBRANCH  10  11
ENDBRANCH   7  10
ENDBRANCH   1   8
BRANCH   4  16
ATOM     16  O   UNL     1       8.819   8.558  18.377  0.00  0.00    +0.000 OA
BRANCH  16  17
ATOM     17  C   UNL     1       8.366   9.889  18.088  0.00  0.00    +0.000 C 
BRANCH  17  18
ATOM     18  C   UNL     1       9.530  10.818  18.178  0.00  0.00    +0.000 C 
ATOM     19  C   UNL     1       9.357  12.288  17.950  0.00  0.00    +0.000 C 
ATOM     20  S   UNL     1       9.673  11.816  19.581  0.00  0.00    +0.000 S 
ENDBRANCH  17  18
ENDBRANCH  16  17
ENDBRANCH   4  16
TORSDOF 6
ENDMDL
MODEL 6
REMARK VINA RESULT:      -6.7      2.478      3.090
REMARK  Name = 
REMARK  6 active torsions:
REMARK  status: ('A' for Active; 'I' for Inactive)
REMARK    1  A    between atoms: C_2  and  C_3
REMARK    2  A    between atoms: C_2  and  C_16
REMARK    3  A    between atoms: C_4  and  C_5
REMARK    4  A    between atoms: C_8  and  O_9
REMARK    5  A    between atoms: O_9  and  C_10
REMARK    6  A    between atoms: C_10  and  C_11
REMARK                            x       y       z     vdW  Elec       q    Type
REMARK                         _______ _______ _______ _____ _____    ______ ____
ROOT
ATOM      1  C   UNL     1       2.583   7.225  18.790  0.00  0.00    +0.000 A 
ATOM      2  C   UNL     1       2.375   8.217  17.824  0.00  0.00    +0.000 A 
ATOM      3  C   UNL     1       1.634   9.359  18.118  0.00  0.00    +0.000 A 
ATOM      4  C   UNL     1       1.040   9.504  19.369  0.00  0.00    +0.000 A 
ATOM      5  C   UNL     1       1.263   8.538  20.351  0.00  0.00    +0.000 A 
ATOM      6  C   UNL     1       2.021   7.396  20.060  0.00  0.00    +0.000 A 
ENDROOT
BRANCH   1   8
ATOM      7  C   UNL     1       4.266   5.487  19.240  0.00  0.00    +0.000 C 
ATOM      8  C   UNL     1       3.301   5.991  18.454  0.00  0.00    +0.000 C 
BRANCH   7  10
ATOM      9  O   UNL     1       5.154   3.325  19.561  0.00  0.00    +0.000 OA
ATOM     10  C   UNL     1       5.073   4.303  18.822  0.00  0.00    +0.000 C 
BRANCH  10  11
ATOM     11  C   UNL     1       5.696   4.359  17.515  0.00  0.00    +0.000 A 
ATOM     12  C   UNL     1       6.910   4.893  17.126  0.00  0.00    +0.000 A 
ATOM     13  C   UNL     1       7.026   4.683  15.732  0.00  0.00    +0.000 A 
ATOM     14  C   UNL     1       5.875   4.032  15.348  0.00  0.00    +0.000 A 
ATOM     15  O   UNL     1       5.067   3.826  16.419  0.00  0.00    +0.000 OA
ENDBRANCH  10  11
ENDBRANCH   7  10
ENDBRANCH   1   8
BRANCH   4  16
ATOM     16  O   UNL     1       0.210  10.537  19.716  0.00  0.00    +0.000 OA
BRANCH  16  17
ATOM     17  C   UNL     1      -0.403  11.210  18.607  0.00  0.00    +0.000 C 
BRANCH  17  18
ATOM     18  C   UNL     1      -1.769  10.644  18.402  0.00  0.00    +0.000 C 
ATOM     19  C   UNL     1      -2.972  11.537  18.372  0.00  0.00    +0.000 C 
ATOM     20  S   UNL     1      -2.515  10.844  16.857  0.00  0.00    +0.000 S 
ENDBRANCH  17  18
ENDBRANCH  16  17
ENDBRANCH   4  16
TORSDOF 6
ENDMDL
MODEL 7
REMARK VINA RESULT:      -6.6      4.856      6.998
REMARK  Name = 
REMARK  6 active torsions:
REMARK  status: ('A' for Active; 'I' for Inactive)
REMARK    1  A    between atoms: C_2  and  C_3
REMARK    2  A    between atoms: C_2  and  C_16
REMARK    3  A    between atoms: C_4  and  C_5
REMARK    4  A    between atoms: C_8  and  O_9
REMARK    5  A    between atoms: O_9  and  C_10
REMARK    6  A    between atoms: C_10  and  C_11
REMARK                            x       y       z     vdW  Elec       q    Type
REMARK                         _______ _______ _______ _____ _____    ______ ____
ROOT
ATOM      1  C   UNL     1       5.653   5.379  18.336  0.00  0.00    +0.000 A 
ATOM      2  C   UNL     1       6.927   5.412  18.917  0.00  0.00    +0.000 A 
ATOM      3  C   UNL     1       7.819   6.443  18.630  0.00  0.00    +0.000 A 
ATOM      4  C   UNL     1       7.472   7.432  17.712  0.00  0.00    +0.000 A 
ATOM      5  C   UNL     1       6.196   7.428  17.149  0.00  0.00    +0.000 A 
ATOM      6  C   UNL     1       5.293   6.399  17.448  0.00  0.00    +0.000 A 
ENDROOT
BRANCH   1   8
ATOM      7  C   UNL     1       3.699   3.987  17.787  0.00  0.00    +0.000 C 
ATOM      8  C   UNL     1       4.747   4.254  18.585  0.00  0.00    +0.000 C 
BRANCH   7  10
ATOM      9  O   UNL     1       2.336   2.138  17.254  0.00  0.00    +0.000 OA
ATOM     10  C   UNL     1       2.715   2.917  18.124  0.00  0.00    +0.000 C 
BRANCH  10  11
ATOM     11  C   UNL     1       2.284   2.830  19.504  0.00  0.00    +0.000 A 
ATOM     12  C   UNL     1       1.048   3.076  20.071  0.00  0.00    +0.000 A 
ATOM     13  C   UNL     1       1.178   2.845  21.461  0.00  0.00    +0.000 A 
ATOM     14  C   UNL     1       2.486   2.470  21.664  0.00  0.00    +0.000 A 
ATOM     15  O   UNL     1       3.163   2.453  20.487  0.00  0.00    +0.000 OA
ENDBRANCH  10  11
ENDBRANCH   7  10
ENDBRANCH   1   8
BRANCH   4  16
ATOM     16  O   UNL     1       8.317   8.423  17.288  0.00  0.00    +0.000 OA
BRANCH  16  17
ATOM     17  C   UNL     1       8.080   9.707  17.884  0.00  0.00    +0.000 C 
BRANCH  17  18
ATOM     18  C   UNL     1       9.385  10.268  18.342  0.00  0.00    +0.000 C 
ATOM     19  C   UNL     1       9.611  11.748  18.384  0.00  0.00    +0.000 C 
ATOM     20  S   UNL     1       9.466  10.968  19.919  0.00  0.00    +0.000 S 
ENDBRANCH  17  18
ENDBRANCH  16  17
ENDBRANCH   4  16
TORSDOF 6
ENDMDL
MODEL 8
REMARK VINA RESULT:      -6.6      1.588      1.809
REMARK  Name = 
REMARK  6 active torsions:
REMARK  status: ('A' for Active; 'I' for Inactive)
REMARK    1  A    between atoms: C_2  and  C_3
REMARK    2  A    between atoms: C_2  and  C_16
REMARK    3  A    between atoms: C_4  and  C_5
REMARK    4  A    between atoms: C_8  and  O_9
REMARK    5  A    between atoms: O_9  and  C_10
REMARK    6  A    between atoms: C_10  and  C_11
REMARK                            x       y       z     vdW  Elec       q    Type
REMARK                         _______ _______ _______ _____ _____    ______ ____
ROOT
ATOM      1  C   UNL     1       3.487   6.853  18.111  0.00  0.00    +0.000 A 
ATOM      2  C   UNL     1       2.957   6.560  19.374  0.00  0.00    +0.000 A 
ATOM      3  C   UNL     1       1.995   7.383  19.956  0.00  0.00    +0.000 A 
ATOM      4  C   UNL     1       1.585   8.545  19.308  0.00  0.00    +0.000 A 
ATOM      5  C   UNL     1       2.083   8.834  18.037  0.00  0.00    +0.000 A 
ATOM      6  C   UNL     1       3.040   7.999  17.445  0.00  0.00    +0.000 A 
ENDROOT
BRANCH   1   8
ATOM      7  C   UNL     1       5.597   5.595  18.262  0.00  0.00    +0.000 C 
ATOM      8  C   UNL     1       4.552   6.025  17.536  0.00  0.00    +0.000 C 
BRANCH   7  10
ATOM      9  O   UNL     1       7.656   4.447  18.330  0.00  0.00    +0.000 OA
ATOM     10  C   UNL     1       6.734   4.861  17.633  0.00  0.00    +0.000 C 
BRANCH  10  11
ATOM     11  C   UNL     1       6.663   4.637  16.203  0.00  0.00    +0.000 A 
ATOM     12  C   UNL     1       5.954   3.696  15.480  0.00  0.00    +0.000 A 
ATOM     13  C   UNL     1       6.247   3.918  14.114  0.00  0.00    +0.000 A 
ATOM     14  C   UNL     1       7.118   4.983  14.080  0.00  0.00    +0.000 A 
ATOM     15  O   UNL     1       7.371   5.429  15.337  0.00  0.00    +0.000 OA
ENDBRANCH  10  11
ENDBRANCH   7  10
ENDBRANCH   1   8
BRANCH   4  16
ATOM     16  O   UNL     1       0.726   9.467  19.844  0.00  0.00    +0.000 OA
BRANCH  16  17
ATOM     17  C   UNL     1      -0.093  10.152  18.885  0.00  0.00    +0.000 C 
BRANCH  17  18
ATOM     18  C   UNL     1      -0.280  11.561  19.338  0.00  0.00    +0.000 C 
ATOM     19  C   UNL     1      -0.786  12.609  18.395  0.00  0.00    +0.000 C 
ATOM     20  S   UNL     1      -1.888  12.120  19.632  0.00  0.00    +0.000 S 
ENDBRANCH  17  18
ENDBRANCH  16  17
ENDBRANCH   4  16
TORSDOF 6
ENDMDL
MODEL 9
REMARK VINA RESULT:      -6.6      3.988      4.937
REMARK  Name = 
REMARK  6 active torsions:
REMARK  status: ('A' for Active; 'I' for Inactive)
REMARK    1  A    between atoms: C_2  and  C_3
REMARK    2  A    between atoms: C_2  and  C_16
REMARK    3  A    between atoms: C_4  and  C_5
REMARK    4  A    between atoms: C_8  and  O_9
REMARK    5  A    between atoms: O_9  and  C_10
REMARK    6  A    between atoms: C_10  and  C_11
REMARK                            x       y       z     vdW  Elec       q    Type
REMARK                         _______ _______ _______ _____ _____    ______ ____
ROOT
ATOM      1  C   UNL     1       1.872   7.525  20.024  0.00  0.00    +0.000 A 
ATOM      2  C   UNL     1       1.993   8.212  18.810  0.00  0.00    +0.000 A 
ATOM      3  C   UNL     1       1.497   9.506  18.667  0.00  0.00    +0.000 A 
ATOM      4  C   UNL     1       0.822  10.116  19.721  0.00  0.00    +0.000 A 
ATOM      5  C   UNL     1       0.720   9.455  20.945  0.00  0.00    +0.000 A 
ATOM      6  C   UNL     1       1.231   8.159  21.094  0.00  0.00    +0.000 A 
ENDROOT
BRANCH   1   8
ATOM      7  C   UNL     1       1.556   5.171  20.672  0.00  0.00    +0.000 C 
ATOM      8  C   UNL     1       2.329   6.137  20.148  0.00  0.00    +0.000 C 
BRANCH   7  10
ATOM      9  O   UNL     1       2.171   3.359  22.050  0.00  0.00    +0.000 OA
ATOM     10  C   UNL     1       2.081   3.793  20.905  0.00  0.00    +0.000 C 
BRANCH  10  11
ATOM     11  C   UNL     1       2.422   3.012  19.735  0.00  0.00    +0.000 A 
ATOM     12  C   UNL     1       1.807   2.937  18.500  0.00  0.00    +0.000 A 
ATOM     13  C   UNL     1       2.549   2.015  17.724  0.00  0.00    +0.000 A 
ATOM     14  C   UNL     1       3.576   1.579  18.529  0.00  0.00    +0.000 A 
ATOM     15  O   UNL     1       3.512   2.180  19.745  0.00  0.00    +0.000 OA
ENDBRANCH  10  11
ENDBRANCH   7  10
ENDBRANCH   1   8
BRANCH   4  16
ATOM     16  O   UNL     1       0.211  11.340  19.642  0.00  0.00    +0.000 OA
BRANCH  16  17
ATOM     17  C   UNL     1      -0.545  11.555  18.441  0.00  0.00    +0.000 C 
BRANCH  17  18
ATOM     18  C   UNL     1      -1.829  10.801  18.546  0.00  0.00    +0.000 C 
ATOM     19  C   UNL     1      -3.089  11.347  17.950  0.00  0.00    +0.000 C 
ATOM     20  S   UNL     1      -2.412   9.979  17.143  0.00  0.00    +0.000 S 
ENDBRANCH  17  18
ENDBRANCH  16  17
ENDBRANCH   4  16
TORSDOF 6
ENDMDL
