MODEL 1
REMARK VINA RESULT:      -7.0      0.000      0.000
REMARK  Name = 
REMARK  9 active torsions:
REMARK  status: ('A' for Active; 'I' for Inactive)
REMARK    1  A    between atoms: C_1  and  C_2
REMARK    2  A    between atoms: C_2  and  N_3
REMARK    3  A    between atoms: N_3  and  C_4
REMARK    4  A    between atoms: N_3  and  C_6
REMARK    5  A    between atoms: C_4  and  C_5
REMARK    6  A    between atoms: C_6  and  C_7
REMARK    7  A    between atoms: N_9  and  C_10
REMARK    8  A    between atoms: C_10  and  C_11
REMARK    9  A    between atoms: C_13  and  C_14
REMARK                            x       y       z     vdW  Elec       q    Type
REMARK                         _______ _______ _______ _____ _____    ______ ____
ROOT
ATOM      1  C   UNL     1       7.264   5.013  17.563  0.00  0.00    +0.000 C 
ENDROOT
BRANCH   1   2
ATOM      2  C   UNL     1       7.036   4.756  16.128  0.00  0.00    +0.000 A 
ATOM      3  C   UNL     1       6.376   3.776  15.430  0.00  0.00    +0.000 A 
ATOM      4  C   UNL     1       6.484   4.165  14.071  0.00  0.00    +0.000 A 
ATOM      5  N   UNL     1       7.216   5.286  13.966  0.00  0.00    +0.000 NA
ATOM      6  O   UNL     1       7.549   5.656  15.253  0.00  0.00    +0.000 OA
BRANCH   4   7
ATOM      7  C   UNL     1       5.896   3.517  12.900  0.00  0.00    +0.000 A 
ATOM      8  C   UNL     1       6.581   2.487  12.237  0.00  0.00    +0.000 A 
ATOM      9  C   UNL     1       6.005   1.844  11.140  0.00  0.00    +0.000 A 
ATOM     10  C   UNL     1       4.742   2.226  10.690  0.00  0.00    +0.000 A 
ATOM     11  C   UNL     1       4.055   3.252  11.336  0.00  0.00    +0.000 A 
ATOM     12  C   UNL     1       4.628   3.894  12.437  0.00  0.00    +0.000 A 
ENDBRANCH   4   7
ENDBRANCH   1   2
BRANCH   1  15
ATOM     13  C   UNL     1       5.358   4.343  18.963  0.00  0.00    +0.000 C 
ATOM     14  O   UNL     1       4.805   5.439  18.852  0.00  0.00    +0.000 OA
ATOM     15  N   UNL     1       6.544   4.038  18.341  0.00  0.00    +0.000 N 
ATOM     16  H   UNL     1       6.908   3.093  18.426  0.00  0.00    +0.000 HD
BRANCH  13  17
ATOM     17  C   UNL     1       4.767   3.218  19.819  0.00  0.00    +0.000 C 
BRANCH  17  18
ATOM     18  N   UNL     1       3.284   3.163  19.712  0.00  0.00    +0.000 NA
BRANCH  18  20
ATOM     19  C   UNL     1       2.422   2.975  17.343  0.00  0.00    +0.000 C 
ATOM     20  C   UNL     1       2.875   2.262  18.614  0.00  0.00    +0.000 C 
ENDBRANCH  18  20
BRANCH  18  21
ATOM     21  C   UNL     1       2.685   2.807  21.013  0.00  0.00    +0.000 C 
ATOM     22  C   UNL     1       1.162   2.902  21.113  0.00  0.00    +0.000 C 
ENDBRANCH  18  21
ENDBRANCH  17  18
ENDBRANCH  13  17
ENDBRANCH   1  15
TORSDOF 7
ENDMDL
MODEL 2
REMARK VINA RESULT:      -7.0      1.541      2.486
REMARK  Name = 
REMARK  9 active torsions:
REMARK  status: ('A' for Active; 'I' for Inactive)
REMARK    1  A    between atoms: C_1  and  C_2
REMARK    2  A    between atoms: C_2  and  N_3
REMARK    3  A    between atoms: N_3  and  C_4
REMARK    4  A    between atoms: N_3  and  C_6
REMARK    5  A    between atoms: C_4  and  C_5
REMARK    6  A    between atoms: C_6  and  C_7
REMARK    7  A    between atoms: N_9  and  C_10
REMARK    8  A    between atoms: C_10  and  C_11
REMARK    9  A    between atoms: C_13  and  C_14
REMARK                            x       y       z     vdW  Elec       q    Type
REMARK                         _______ _______ _______ _____ _____    ______ ____
ROOT
ATOM      1  C   UNL     1       6.498   5.341  19.231  0.00  0.00    +0.000 C 
ENDROOT
BRANCH   1   2
ATOM      2  C   UNL     1       6.753   5.301  17.779  0.00  0.00    +0.000 A 
ATOM      3  C   UNL     1       6.350   4.469  16.764  0.00  0.00    +0.000 A 
ATOM      4  C   UNL     1       6.903   5.039  15.588  0.00  0.00    +0.000 A 
ATOM      5  N   UNL     1       7.640   6.118  15.899  0.00  0.00    +0.000 NA
ATOM      6  O   UNL     1       7.534   6.284  17.265  0.00  0.00    +0.000 OA
BRANCH   4   7
ATOM      7  C   UNL     1       6.728   4.597  14.207  0.00  0.00    +0.000 A 
ATOM      8  C   UNL     1       7.603   5.036  13.202  0.00  0.00    +0.000 A 
ATOM      9  C   UNL     1       7.458   4.587  11.888  0.00  0.00    +0.000 A 
ATOM     10  C   UNL     1       6.434   3.699  11.563  0.00  0.00    +0.000 A 
ATOM     11  C   UNL     1       5.554   3.262  12.550  0.00  0.00    +0.000 A 
ATOM     12  C   UNL     1       5.701   3.706  13.867  0.00  0.00    +0.000 A 
ENDBRANCH   4   7
ENDBRANCH   1   2
BRANCH   1  15
ATOM     13  C   UNL     1       4.384   4.166  19.666  0.00  0.00    +0.000 C 
ATOM     14  O   UNL     1       4.929   3.062  19.717  0.00  0.00    +0.000 OA
ATOM     15  N   UNL     1       5.077   5.334  19.465  0.00  0.00    +0.000 N 
ATOM     16  H   UNL     1       4.569   6.214  19.500  0.00  0.00    +0.000 HD
BRANCH  13  17
ATOM     17  C   UNL     1       2.867   4.331  19.816  0.00  0.00    +0.000 C 
BRANCH  17  18
ATOM     18  N   UNL     1       2.140   3.071  19.501  0.00  0.00    +0.000 NA
BRANCH  18  20
ATOM     19  C   UNL     1       1.799   2.568  21.955  0.00  0.00    +0.000 C 
ATOM     20  C   UNL     1       1.176   2.745  20.573  0.00  0.00    +0.000 C 
ENDBRANCH  18  20
BRANCH  18  21
ATOM     21  C   UNL     1       1.522   3.152  18.164  0.00  0.00    +0.000 C 
ATOM     22  C   UNL     1       1.582   4.509  17.463  0.00  0.00    +0.000 C 
ENDBRANCH  18  21
ENDBRANCH  17  18
ENDBRANCH  13  17
ENDBRANCH   1  15
TORSDOF 7
ENDMDL
MODEL 3
REMARK VINA RESULT:      -6.8      0.964      1.770
REMARK  Name = 
REMARK  9 active torsions:
REMARK  status: ('A' for Active; 'I' for Inactive)
REMARK    1  A    between atoms: C_1  and  C_2
REMARK    2  A    between atoms: C_2  and  N_3
REMARK    3  A    between atoms: N_3  and  C_4
REMARK    4  A    between atoms: N_3  and  C_6
REMARK    5  A    between atoms: C_4  and  C_5
REMARK    6  A    between atoms: C_6  and  C_7
REMARK    7  A    between atoms: N_9  and  C_10
REMARK    8  A    between atoms: C_10  and  C_11
REMARK    9  A    between atoms: C_13  and  C_14
REMARK                            x       y       z     vdW  Elec       q    Type
REMARK                         _______ _______ _______ _____ _____    ______ ____
ROOT
ATOM      1  C   UNL     1       6.932   5.864  17.420  0.00  0.00    +0.000 C 
ENDROOT
BRANCH   1   2
ATOM      2  C   UNL     1       6.882   5.328  16.046  0.00  0.00    +0.000 A 
ATOM      3  C   UNL     1       6.104   4.387  15.420  0.00  0.00    +0.000 A 
ATOM      4  C   UNL     1       6.536   4.403  14.068  0.00  0.00    +0.000 A 
ATOM      5  N   UNL     1       7.553   5.267  13.917  0.00  0.00    +0.000 NA
ATOM      6  O   UNL     1       7.758   5.849  15.151  0.00  0.00    +0.000 OA
BRANCH   4   7
ATOM      7  C   UNL     1       5.995   3.644  12.943  0.00  0.00    +0.000 A 
ATOM      8  C   UNL     1       6.772   2.666  12.303  0.00  0.00    +0.000 A 
ATOM      9  C   UNL     1       6.243   1.916  11.251  0.00  0.00    +0.000 A 
ATOM     10  C   UNL     1       4.936   2.140  10.822  0.00  0.00    +0.000 A 
ATOM     11  C   UNL     1       4.157   3.114  11.444  0.00  0.00    +0.000 A 
ATOM     12  C   UNL     1       4.682   3.861  12.501  0.00  0.00    +0.000 A 
ENDBRANCH   4   7
ENDBRANCH   1   2
BRANCH   1  15
ATOM     13  C   UNL     1       5.149   5.089  18.923  0.00  0.00    +0.000 C 
ATOM     14  O   UNL     1       5.869   4.239  19.450  0.00  0.00    +0.000 OA
ATOM     15  N   UNL     1       5.595   5.947  17.947  0.00  0.00    +0.000 N 
ATOM     16  H   UNL     1       4.963   6.666  17.606  0.00  0.00    +0.000 HD
BRANCH  13  17
ATOM     17  C   UNL     1       3.676   5.259  19.311  0.00  0.00    +0.000 C 
BRANCH  17  18
ATOM     18  N   UNL     1       3.042   3.959  19.660  0.00  0.00    +0.000 NA
BRANCH  18  20
ATOM     19  C   UNL     1       1.228   3.058  21.172  0.00  0.00    +0.000 C 
ATOM     20  C   UNL     1       2.379   4.041  20.978  0.00  0.00    +0.000 C 
ENDBRANCH  18  20
BRANCH  18  21
ATOM     21  C   UNL     1       2.140   3.517  18.578  0.00  0.00    +0.000 C 
ATOM     22  C   UNL     1       2.805   2.993  17.305  0.00  0.00    +0.000 C 
ENDBRANCH  18  21
ENDBRANCH  17  18
ENDBRANCH  13  17
ENDBRANCH   1  15
TORSDOF 7
ENDMDL
MODEL 4
REMARK VINA RESULT:      -6.8      1.887      7.104
REMARK  Name = 
REMARK  9 active torsions:
REMARK  status: ('A' for Active; 'I' for Inactive)
REMARK    1  A    between atoms: C_1  and  C_2
REMARK    2  A    between atoms: C_2  and  N_3
REMARK    3  A    between atoms: N_3  and  C_4
REMARK    4  A    between atoms: N_3  and  C_6
REMARK    5  A    between atoms: C_4  and  C_5
REMARK    6  A    between atoms: C_6  and  C_7
REMARK    7  A    between atoms: N_9  and  C_10
REMARK    8  A    between atoms: C_10  and  C_11
REMARK    9  A    between atoms: C_13  and  C_14
REMARK                            x       y       z     vdW  Elec       q    Type
REMARK                         _______ _______ _______ _____ _____    ______ ____
ROOT
ATOM      1  C   UNL     1       6.939   4.910  15.484  0.00  0.00    +0.000 C 
ENDROOT
BRANCH   1   2
ATOM      2  C   UNL     1       5.681   4.956  16.253  0.00  0.00    +0.000 A 
ATOM      3  C   UNL     1       4.953   4.020  16.945  0.00  0.00    +0.000 A 
ATOM      4  C   UNL     1       3.875   4.747  17.512  0.00  0.00    +0.000 A 
ATOM      5  N   UNL     1       3.932   6.034  17.130  0.00  0.00    +0.000 NA
ATOM      6  O   UNL     1       5.066   6.161  16.354  0.00  0.00    +0.000 OA
BRANCH   4   7
ATOM      7  C   UNL     1       2.830   4.255  18.407  0.00  0.00    +0.000 A 
ATOM      8  C   UNL     1       2.114   3.090  18.094  0.00  0.00    +0.000 A 
ATOM      9  C   UNL     1       1.140   2.599  18.966  0.00  0.00    +0.000 A 
ATOM     10  C   UNL     1       0.868   3.270  20.157  0.00  0.00    +0.000 A 
ATOM     11  C   UNL     1       1.567   4.432  20.476  0.00  0.00    +0.000 A 
ATOM     12  C   UNL     1       2.546   4.922  19.607  0.00  0.00    +0.000 A 
ENDBRANCH   4   7
ENDBRANCH   1   2
BRANCH   1  15
ATOM     13  C   UNL     1       7.196   4.627  13.057  0.00  0.00    +0.000 C 
ATOM     14  O   UNL     1       7.877   5.648  12.941  0.00  0.00    +0.000 OA
ATOM     15  N   UNL     1       6.724   4.175  14.265  0.00  0.00    +0.000 N 
ATOM     16  H   UNL     1       6.225   3.290  14.291  0.00  0.00    +0.000 HD
BRANCH  13  17
ATOM     17  C   UNL     1       6.808   3.769  11.847  0.00  0.00    +0.000 C 
BRANCH  17  18
ATOM     18  N   UNL     1       5.605   2.938  12.122  0.00  0.00    +0.000 NA
BRANCH  18  20
ATOM     19  C   UNL     1       3.506   3.191  10.734  0.00  0.00    +0.000 C 
ATOM     20  C   UNL     1       4.370   3.714  11.879  0.00  0.00    +0.000 C 
ENDBRANCH  18  20
BRANCH  18  21
ATOM     21  C   UNL     1       5.662   1.676  11.358  0.00  0.00    +0.000 C 
ATOM     22  C   UNL     1       7.054   1.109  11.078  0.00  0.00    +0.000 C 
ENDBRANCH  18  21
ENDBRANCH  17  18
ENDBRANCH  13  17
ENDBRANCH   1  15
TORSDOF 7
ENDMDL
MODEL 5
REMARK VINA RESULT:      -6.7      0.576      1.436
REMARK  Name = 
REMARK  9 active torsions:
REMARK  status: ('A' for Active; 'I' for Inactive)
REMARK    1  A    between atoms: C_1  and  C_2
REMARK    2  A    between atoms: C_2  and  N_3
REMARK    3  A    between atoms: N_3  and  C_4
REMARK    4  A    between atoms: N_3  and  C_6
REMARK    5  A    between atoms: C_4  and  C_5
REMARK    6  A    between atoms: C_6  and  C_7
REMARK    7  A    between atoms: N_9  and  C_10
REMARK    8  A    between atoms: C_10  and  C_11
REMARK    9  A    between atoms: C_13  and  C_14
REMARK                            x       y       z     vdW  Elec       q    Type
REMARK                         _______ _______ _______ _____ _____    ______ ____
ROOT
ATOM      1  C   UNL     1       7.093   5.043  17.762  0.00  0.00    +0.000 C 
ENDROOT
BRANCH   1   2
ATOM      2  C   UNL     1       6.963   4.774  16.317  0.00  0.00    +0.000 A 
ATOM      3  C   UNL     1       6.251   3.861  15.580  0.00  0.00    +0.000 A 
ATOM      4  C   UNL     1       6.525   4.196  14.229  0.00  0.00    +0.000 A 
ATOM      5  N   UNL     1       7.396   5.217  14.171  0.00  0.00    +0.000 NA
ATOM      6  O   UNL     1       7.657   5.581  15.477  0.00  0.00    +0.000 OA
BRANCH   4   7
ATOM      7  C   UNL     1       5.968   3.590  13.022  0.00  0.00    +0.000 A 
ATOM      8  C   UNL     1       6.705   2.644  12.294  0.00  0.00    +0.000 A 
ATOM      9  C   UNL     1       6.159   2.038  11.161  0.00  0.00    +0.000 A 
ATOM     10  C   UNL     1       4.874   2.376  10.738  0.00  0.00    +0.000 A 
ATOM     11  C   UNL     1       4.136   3.320  11.448  0.00  0.00    +0.000 A 
ATOM     12  C   UNL     1       4.677   3.923  12.586  0.00  0.00    +0.000 A 
ENDBRANCH   4   7
ENDBRANCH   1   2
BRANCH   1  15
ATOM     13  C   UNL     1       5.145   4.437  19.133  0.00  0.00    +0.000 C 
ATOM     14  O   UNL     1       4.664   5.571  19.070  0.00  0.00    +0.000 OA
ATOM     15  N   UNL     1       6.310   4.084  18.497  0.00  0.00    +0.000 N 
ATOM     16  H   UNL     1       6.612   3.114  18.539  0.00  0.00    +0.000 HD
BRANCH  13  17
ATOM     17  C   UNL     1       4.481   3.316  19.939  0.00  0.00    +0.000 C 
BRANCH  17  18
ATOM     18  N   UNL     1       3.320   2.729  19.217  0.00  0.00    +0.000 NA
BRANCH  18  20
ATOM     19  C   UNL     1       2.166   3.685  21.253  0.00  0.00    +0.000 C 
ATOM     20  C   UNL     1       2.126   2.700  20.088  0.00  0.00    +0.000 C 
ENDBRANCH  18  20
BRANCH  18  21
ATOM     21  C   UNL     1       3.095   3.435  17.941  0.00  0.00    +0.000 C 
ATOM     22  C   UNL     1       1.672   3.928  17.674  0.00  0.00    +0.000 C 
ENDBRANCH  18  21
ENDBRANCH  17  18
ENDBRANCH  13  17
ENDBRANCH   1  15
TORSDOF 7
ENDMDL
MODEL 6
REMARK VINA RESULT:      -6.7      1.700      7.123
REMARK  Name = 
REMARK  9 active torsions:
REMARK  status: ('A' for Active; 'I' for Inactive)
REMARK    1  A    between atoms: C_1  and  C_2
REMARK    2  A    between atoms: C_2  and  N_3
REMARK    3  A    between atoms: N_3  and  C_4
REMARK    4  A    between atoms: N_3  and  C_6
REMARK    5  A    between atoms: C_4  and  C_5
REMARK    6  A    between atoms: C_6  and  C_7
REMARK    7  A    between atoms: N_9  and  C_10
REMARK    8  A    between atoms: C_10  and  C_11
REMARK    9  A    between atoms: C_13  and  C_14
REMARK                            x       y       z     vdW  Elec       q    Type
REMARK                         _______ _______ _______ _____ _____    ______ ____
ROOT
ATOM      1  C   UNL     1       6.999   4.742  15.612  0.00  0.00    +0.000 C 
ENDROOT
BRANCH   1   2
ATOM      2  C   UNL     1       5.816   4.803  16.492  0.00  0.00    +0.000 A 
ATOM      3  C   UNL     1       4.832   3.907  16.826  0.00  0.00    +0.000 A 
ATOM      4  C   UNL     1       4.032   4.587  17.780  0.00  0.00    +0.000 A 
ATOM      5  N   UNL     1       4.488   5.838  17.958  0.00  0.00    +0.000 NA
ATOM      6  O   UNL     1       5.607   5.963  17.161  0.00  0.00    +0.000 OA
BRANCH   4   7
ATOM      7  C   UNL     1       2.885   4.072  18.523  0.00  0.00    +0.000 A 
ATOM      8  C   UNL     1       2.537   4.619  19.767  0.00  0.00    +0.000 A 
ATOM      9  C   UNL     1       1.420   4.152  20.462  0.00  0.00    +0.000 A 
ATOM     10  C   UNL     1       0.642   3.128  19.923  0.00  0.00    +0.000 A 
ATOM     11  C   UNL     1       0.981   2.571  18.692  0.00  0.00    +0.000 A 
ATOM     12  C   UNL     1       2.095   3.041  17.993  0.00  0.00    +0.000 A 
ENDBRANCH   4   7
ENDBRANCH   1   2
BRANCH   1  15
ATOM     13  C   UNL     1       7.125   4.680  13.158  0.00  0.00    +0.000 C 
ATOM     14  O   UNL     1       7.976   5.571  13.112  0.00  0.00    +0.000 OA
ATOM     15  N   UNL     1       6.617   4.192  14.337  0.00  0.00    +0.000 N 
ATOM     16  H   UNL     1       5.966   3.412  14.300  0.00  0.00    +0.000 HD
BRANCH  13  17
ATOM     17  C   UNL     1       6.549   4.039  11.890  0.00  0.00    +0.000 C 
BRANCH  17  18
ATOM     18  N   UNL     1       5.587   2.950  12.209  0.00  0.00    +0.000 NA
BRANCH  18  20
ATOM     19  C   UNL     1       3.796   3.474  10.503  0.00  0.00    +0.000 C 
ATOM     20  C   UNL     1       4.198   3.398  11.973  0.00  0.00    +0.000 C 
ENDBRANCH  18  20
BRANCH  18  21
ATOM     21  C   UNL     1       5.937   1.719  11.473  0.00  0.00    +0.000 C 
ATOM     22  C   UNL     1       7.348   1.650  10.888  0.00  0.00    +0.000 C 
ENDBRANCH  18  21
ENDBRANCH  17  18
ENDBRANCH  13  17
ENDBRANCH   1  15
TORSDOF 7
ENDMDL
MODEL 7
REMARK VINA RESULT:      -6.6      4.010      6.714
REMARK  Name = 
REMARK  9 active torsions:
REMARK  status: ('A' for Active; 'I' for Inactive)
REMARK    1  A    between atoms: C_1  and  C_2
REMARK    2  A    between atoms: C_2  and  N_3
REMARK    3  A    between atoms: N_3  and  C_4
REMARK    4  A    between atoms: N_3  and  C_6
REMARK    5  A    between atoms: C_4  and  C_5
REMARK    6  A    between atoms: C_6  and  C_7
REMARK    7  A    between atoms: N_9  and  C_10
REMARK    8  A    between atoms: C_10  and  C_11
REMARK    9  A    between atoms: C_13  and  C_14
REMARK                            x       y       z     vdW  Elec       q    Type
REMARK                         _______ _______ _______ _____ _____    ______ ____
ROOT
ATOM      1  C   UNL     1       7.478   4.789  17.949  0.00  0.00    +0.000 C 
ENDROOT
BRANCH   1   2
ATOM      2  C   UNL     1       7.619   6.256  17.894  0.00  0.00    +0.000 A 
ATOM      3  C   UNL     1       8.245   7.182  18.691  0.00  0.00    +0.000 A 
ATOM      4  C   UNL     1       8.050   8.421  18.027  0.00  0.00    +0.000 A 
ATOM      5  N   UNL     1       7.301   8.244  16.926  0.00  0.00    +0.000 NA
ATOM      6  O   UNL     1       7.045   6.890  16.842  0.00  0.00    +0.000 OA
BRANCH   4   7
ATOM      7  C   UNL     1       8.571   9.733  18.402  0.00  0.00    +0.000 A 
ATOM      8  C   UNL     1       9.314   9.896  19.581  0.00  0.00    +0.000 A 
ATOM      9  C   UNL     1       9.842  11.142  19.921  0.00  0.00    +0.000 A 
ATOM     10  C   UNL     1       9.628  12.241  19.091  0.00  0.00    +0.000 A 
ATOM     11  C   UNL     1       8.885  12.095  17.922  0.00  0.00    +0.000 A 
ATOM     12  C   UNL     1       8.361  10.847  17.576  0.00  0.00    +0.000 A 
ENDBRANCH   4   7
ENDBRANCH   1   2
BRANCH   1  15
ATOM     13  C   UNL     1       5.127   4.076  17.876  0.00  0.00    +0.000 C 
ATOM     14  O   UNL     1       5.136   3.940  16.650  0.00  0.00    +0.000 OA
ATOM     15  N   UNL     1       6.234   4.455  18.594  0.00  0.00    +0.000 N 
ATOM     16  H   UNL     1       6.170   4.482  19.608  0.00  0.00    +0.000 HD
BRANCH  13  17
ATOM     17  C   UNL     1       3.864   3.837  18.710  0.00  0.00    +0.000 C 
BRANCH  17  18
ATOM     18  N   UNL     1       2.636   4.275  17.993  0.00  0.00    +0.000 NA
BRANCH  18  20
ATOM     19  C   UNL     1       1.701   2.576  19.615  0.00  0.00    +0.000 C 
ATOM     20  C   UNL     1       1.484   3.429  18.368  0.00  0.00    +0.000 C 
ENDBRANCH  18  20
BRANCH  18  21
ATOM     21  C   UNL     1       2.398   5.716  18.209  0.00  0.00    +0.000 C 
ATOM     22  C   UNL     1       2.771   6.272  19.583  0.00  0.00    +0.000 C 
ENDBRANCH  18  21
ENDBRANCH  17  18
ENDBRANCH  13  17
ENDBRANCH   1  15
TORSDOF 7
ENDMDL
MODEL 8
REMARK VINA RESULT:      -6.6      1.336      2.204
REMARK  Name = 
REMARK  9 active torsions:
REMARK  status: ('A' for Active; 'I' for Inactive)
REMARK    1  A    between atoms: C_1  and  C_2
REMARK    2  A    between atoms: C_2  and  N_3
REMARK    3  A    between atoms: N_3  and  C_4
REMARK    4  A    between atoms: N_3  and  C_6
REMARK    5  A    between atoms: C_4  and  C_5
REMARK    6  A    between atoms: C_6  and  C_7
REMARK    7  A    between atoms: N_9  and  C_10
REMARK    8  A    between atoms: C_10  and  C_11
REMARK    9  A    between atoms: C_13  and  C_14
REMARK                            x       y       z     vdW  Elec       q    Type
REMARK                         _______ _______ _______ _____ _____    ______ ____
ROOT
ATOM      1  C   UNL     1       5.727   6.923  17.370  0.00  0.00    +0.000 C 
ENDROOT
BRANCH   1   2
ATOM      2  C   UNL     1       6.112   6.079  16.223  0.00  0.00    +0.000 A 
ATOM      3  C   UNL     1       5.418   5.255  15.373  0.00  0.00    +0.000 A 
ATOM      4  C   UNL     1       6.386   4.795  14.444  0.00  0.00    +0.000 A 
ATOM      5  N   UNL     1       7.599   5.277  14.762  0.00  0.00    +0.000 NA
ATOM      6  O   UNL     1       7.420   6.086  15.866  0.00  0.00    +0.000 OA
BRANCH   4   7
ATOM      7  C   UNL     1       6.178   3.944  13.275  0.00  0.00    +0.000 A 
ATOM      8  C   UNL     1       4.880   3.641  12.836  0.00  0.00    +0.000 A 
ATOM      9  C   UNL     1       4.681   2.857  11.698  0.00  0.00    +0.000 A 
ATOM     10  C   UNL     1       5.775   2.362  10.991  0.00  0.00    +0.000 A 
ATOM     11  C   UNL     1       7.069   2.649  11.421  0.00  0.00    +0.000 A 
ATOM     12  C   UNL     1       7.271   3.438  12.556  0.00  0.00    +0.000 A 
ENDBRANCH   4   7
ENDBRANCH   1   2
BRANCH   1  15
ATOM     13  C   UNL     1       4.610   5.510  19.042  0.00  0.00    +0.000 C 
ATOM     14  O   UNL     1       5.673   5.180  19.572  0.00  0.00    +0.000 OA
ATOM     15  N   UNL     1       4.542   6.382  17.983  0.00  0.00    +0.000 N 
ATOM     16  H   UNL     1       3.627   6.660  17.640  0.00  0.00    +0.000 HD
BRANCH  13  17
ATOM     17  C   UNL     1       3.260   4.965  19.520  0.00  0.00    +0.000 C 
BRANCH  17  18
ATOM     18  N   UNL     1       3.318   3.503  19.789  0.00  0.00    +0.000 NA
BRANCH  18  20
ATOM     19  C   UNL     1       1.169   3.023  21.033  0.00  0.00    +0.000 C 
ATOM     20  C   UNL     1       2.686   3.188  21.088  0.00  0.00    +0.000 C 
ENDBRANCH  18  20
BRANCH  18  21
ATOM     21  C   UNL     1       2.743   2.746  18.660  0.00  0.00    +0.000 C 
ATOM     22  C   UNL     1       3.547   1.544  18.163  0.00  0.00    +0.000 C 
ENDBRANCH  18  21
ENDBRANCH  17  18
ENDBRANCH  13  17
ENDBRANCH   1  15
TORSDOF 7
ENDMDL
MODEL 9
REMARK VINA RESULT:      -6.6      1.330      1.418
REMARK  Name = 
REMARK  9 active torsions:
REMARK  status: ('A' for Active; 'I' for Inactive)
REMARK    1  A    between atoms: C_1  and  C_2
REMARK    2  A    between atoms: C_2  and  N_3
REMARK    3  A    between atoms: N_3  and  C_4
REMARK    4  A    between atoms: N_3  and  C_6
REMARK    5  A    between atoms: C_4  and  C_5
REMARK    6  A    between atoms: C_6  and  C_7
REMARK    7  A    between atoms: N_9  and  C_10
REMARK    8  A    between atoms: C_10  and  C_11
REMARK    9  A    between atoms: C_13  and  C_14
REMARK                            x       y       z     vdW  Elec       q    Type
REMARK                         _______ _______ _______ _____ _____    ______ ____
ROOT
ATOM      1  C   UNL     1       5.807   6.591  17.365  0.00  0.00    +0.000 C 
ENDROOT
BRANCH   1   2
ATOM      2  C   UNL     1       6.178   5.838  16.152  0.00  0.00    +0.000 A 
ATOM      3  C   UNL     1       5.506   4.969  15.328  0.00  0.00    +0.000 A 
ATOM      4  C   UNL     1       6.431   4.658  14.299  0.00  0.00    +0.000 A 
ATOM      5  N   UNL     1       7.606   5.266  14.533  0.00  0.00    +0.000 NA
ATOM      6  O   UNL     1       7.439   6.009  15.684  0.00  0.00    +0.000 OA
BRANCH   4   7
ATOM      7  C   UNL     1       6.214   3.830  13.115  0.00  0.00    +0.000 A 
ATOM      8  C   UNL     1       7.303   3.300  12.407  0.00  0.00    +0.000 A 
ATOM      9  C   UNL     1       7.096   2.480  11.296  0.00  0.00    +0.000 A 
ATOM     10  C   UNL     1       5.799   2.186  10.877  0.00  0.00    +0.000 A 
ATOM     11  C   UNL     1       4.710   2.714  11.567  0.00  0.00    +0.000 A 
ATOM     12  C   UNL     1       4.915   3.530  12.682  0.00  0.00    +0.000 A 
ENDBRANCH   4   7
ENDBRANCH   1   2
BRANCH   1  15
ATOM     13  C   UNL     1       5.376   4.702  18.878  0.00  0.00    +0.000 C 
ATOM     14  O   UNL     1       6.564   4.376  18.919  0.00  0.00    +0.000 OA
ATOM     15  N   UNL     1       4.923   5.789  18.171  0.00  0.00    +0.000 N 
ATOM     16  H   UNL     1       3.939   6.036  18.237  0.00  0.00    +0.000 HD
BRANCH  13  17
ATOM     17  C   UNL     1       4.290   3.911  19.615  0.00  0.00    +0.000 C 
BRANCH  17  18
ATOM     18  N   UNL     1       2.977   3.994  18.921  0.00  0.00    +0.000 NA
BRANCH  18  20
ATOM     19  C   UNL     1       3.440   1.572  18.361  0.00  0.00    +0.000 C 
ATOM     20  C   UNL     1       2.845   2.909  17.926  0.00  0.00    +0.000 C 
ENDBRANCH  18  20
BRANCH  18  21
ATOM     21  C   UNL     1       1.874   4.026  19.901  0.00  0.00    +0.000 C 
ATOM     22  C   UNL     1       1.601   5.368  20.580  0.00  0.00    +0.000 C 
ENDBRANCH  18  21
ENDBRANCH  17  18
ENDBRANCH  13  17
ENDBRANCH   1  15
TORSDOF 7
ENDMDL
