MODEL 1
REMARK VINA RESULT:      -8.0      0.000      0.000
REMARK  Name = 
REMARK  4 active torsions:
REMARK  status: ('A' for Active; 'I' for Inactive)
REMARK    1  A    between atoms: C_1  and  C_2
REMARK    2  A    between atoms: C_3  and  N_4
REMARK    3  A    between atoms: N_19  and  C_20
REMARK    4  A    between atoms: N_26  and  C_27
REMARK                            x       y       z     vdW  Elec       q    Type
REMARK                         _______ _______ _______ _____ _____    ______ ____
ROOT
ATOM      1  C   UNL     1       0.963   2.770  19.207  0.00  0.00    +0.000 C 
ATOM      2  C   UNL     1       2.200   3.611  19.170  0.00  0.00    +0.000 A 
ATOM      3  C   UNL     1       2.560   4.702  19.901  0.00  0.00    +0.000 A 
ATOM      4  C   UNL     1       3.918   5.095  19.281  0.00  0.00    +0.000 A 
ATOM      5  O   UNL     1       4.578   6.070  19.612  0.00  0.00    +0.000 OA
ATOM      6  N   UNL     1       4.183   4.172  18.266  0.00  0.00    +0.000 N 
ATOM      7  N   UNL     1       3.142   3.239  18.198  0.00  0.00    +0.000 N 
ATOM      8  C   UNL     1       3.526   1.826  18.044  0.00  0.00    +0.000 C 
ENDROOT
BRANCH   3   9
ATOM      9  N   UNL     1       1.968   5.515  20.824  0.00  0.00    +0.000 NA
ATOM     10  C   UNL     1       1.558   6.730  20.638  0.00  0.00    +0.000 C 
ATOM     11  N   UNL     1       1.082   7.553  21.682  0.00  0.00    +0.000 N 
ATOM     12  C   UNL     1       0.989   8.890  21.307  0.00  0.00    +0.000 A 
ATOM     13  C   UNL     1       0.641  10.039  22.001  0.00  0.00    +0.000 A 
ATOM     14  C   UNL     1       0.747  11.247  21.269  0.00  0.00    +0.000 A 
ATOM     15  C   UNL     1       1.180  11.282  19.925  0.00  0.00    +0.000 A 
ATOM     16  C   UNL     1       1.459  10.083  19.243  0.00  0.00    +0.000 A 
ATOM     17  C   UNL     1       1.839   9.906  17.907  0.00  0.00    +0.000 A 
ATOM     18  C   UNL     1       1.879   8.612  17.362  0.00  0.00    +0.000 A 
ATOM     19  C   UNL     1       1.630   7.466  18.133  0.00  0.00    +0.000 A 
ATOM     20  C   UNL     1       1.524   7.643  19.510  0.00  0.00    +0.000 A 
ATOM     21  C   UNL     1       1.336   8.938  19.973  0.00  0.00    +0.000 A 
ATOM     22  H   UNL     1       1.029   7.150  22.608  0.00  0.00    +0.000 HD
ENDBRANCH   3   9
BRANCH   6  23
ATOM     23  C   UNL     1       5.201   4.174  17.291  0.00  0.00    +0.000 A 
ATOM     24  C   UNL     1       4.889   4.186  15.931  0.00  0.00    +0.000 A 
ATOM     25  C   UNL     1       5.877   4.520  14.995  0.00  0.00    +0.000 A 
ATOM     26  C   UNL     1       7.185   4.789  15.408  0.00  0.00    +0.000 A 
ATOM     27  C   UNL     1       7.528   4.670  16.749  0.00  0.00    +0.000 A 
ATOM     28  C   UNL     1       6.542   4.350  17.681  0.00  0.00    +0.000 A 
ENDBRANCH   6  23
TORSDOF 2
ENDMDL
MODEL 2
REMARK VINA RESULT:      -7.6      5.046      8.271
REMARK  Name = 
REMARK  4 active torsions:
REMARK  status: ('A' for Active; 'I' for Inactive)
REMARK    1  A    between atoms: C_1  and  C_2
REMARK    2  A    between atoms: C_3  and  N_4
REMARK    3  A    between atoms: N_19  and  C_20
REMARK    4  A    between atoms: N_26  and  C_27
REMARK                            x       y       z     vdW  Elec       q    Type
REMARK                         _______ _______ _______ _____ _____    ______ ____
ROOT
ATOM      1  C   UNL     1      -0.455  14.254  19.372  0.00  0.00    +0.000 C 
ATOM      2  C   UNL     1      -0.663  12.799  19.097  0.00  0.00    +0.000 A 
ATOM      3  C   UNL     1      -1.800  12.090  18.855  0.00  0.00    +0.000 A 
ATOM      4  C   UNL     1      -1.281  10.641  18.736  0.00  0.00    +0.000 A 
ATOM      5  O   UNL     1      -1.990   9.659  18.568  0.00  0.00    +0.000 OA
ATOM      6  N   UNL     1       0.104  10.691  18.919  0.00  0.00    +0.000 N 
ATOM      7  N   UNL     1       0.502  12.017  19.123  0.00  0.00    +0.000 N 
ATOM      8  C   UNL     1       1.709  12.465  18.407  0.00  0.00    +0.000 C 
ENDROOT
BRANCH   3   9
ATOM      9  N   UNL     1      -3.142  12.336  18.868  0.00  0.00    +0.000 NA
ATOM     10  C   UNL     1      -3.865  12.644  19.899  0.00  0.00    +0.000 C 
ATOM     11  N   UNL     1      -5.272  12.747  19.854  0.00  0.00    +0.000 N 
ATOM     12  C   UNL     1      -5.846  12.784  21.120  0.00  0.00    +0.000 A 
ATOM     13  C   UNL     1      -7.162  12.817  21.557  0.00  0.00    +0.000 A 
ATOM     14  C   UNL     1      -7.339  12.768  22.960  0.00  0.00    +0.000 A 
ATOM     15  C   UNL     1      -6.251  12.687  23.858  0.00  0.00    +0.000 A 
ATOM     16  C   UNL     1      -4.931  12.722  23.370  0.00  0.00    +0.000 A 
ATOM     17  C   UNL     1      -3.732  12.713  24.094  0.00  0.00    +0.000 A 
ATOM     18  C   UNL     1      -2.519  12.955  23.430  0.00  0.00    +0.000 A 
ATOM     19  C   UNL     1      -2.447  13.125  22.039  0.00  0.00    +0.000 A 
ATOM     20  C   UNL     1      -3.604  12.861  21.310  0.00  0.00    +0.000 A 
ATOM     21  C   UNL     1      -4.796  12.782  22.015  0.00  0.00    +0.000 A 
ATOM     22  H   UNL     1      -5.723  12.610  18.958  0.00  0.00    +0.000 HD
ENDBRANCH   3   9
BRANCH   6  23
ATOM     23  C   UNL     1       1.030   9.638  19.069  0.00  0.00    +0.000 A 
ATOM     24  C   UNL     1       1.162   8.970  20.286  0.00  0.00    +0.000 A 
ATOM     25  C   UNL     1       1.825   7.736  20.331  0.00  0.00    +0.000 A 
ATOM     26  C   UNL     1       2.403   7.196  19.179  0.00  0.00    +0.000 A 
ATOM     27  C   UNL     1       2.371   7.910  17.987  0.00  0.00    +0.000 A 
ATOM     28  C   UNL     1       1.701   9.131  17.939  0.00  0.00    +0.000 A 
ENDBRANCH   6  23
TORSDOF 2
ENDMDL
MODEL 3
REMARK VINA RESULT:      -7.3      0.422      1.014
REMARK  Name = 
REMARK  4 active torsions:
REMARK  status: ('A' for Active; 'I' for Inactive)
REMARK    1  A    between atoms: C_1  and  C_2
REMARK    2  A    between atoms: C_3  and  N_4
REMARK    3  A    between atoms: N_19  and  C_20
REMARK    4  A    between atoms: N_26  and  C_27
REMARK                            x       y       z     vdW  Elec       q    Type
REMARK                         _______ _______ _______ _____ _____    ______ ____
ROOT
ATOM      1  C   UNL     1       1.038   2.951  19.019  0.00  0.00    +0.000 C 
ATOM      2  C   UNL     1       2.196   3.898  19.032  0.00  0.00    +0.000 A 
ATOM      3  C   UNL     1       2.446   4.992  19.803  0.00  0.00    +0.000 A 
ATOM      4  C   UNL     1       3.774   5.523  19.223  0.00  0.00    +0.000 A 
ATOM      5  O   UNL     1       4.339   6.541  19.596  0.00  0.00    +0.000 OA
ATOM      6  N   UNL     1       4.136   4.660  18.185  0.00  0.00    +0.000 N 
ATOM      7  N   UNL     1       3.183   3.642  18.068  0.00  0.00    +0.000 N 
ATOM      8  C   UNL     1       3.693   2.274  17.878  0.00  0.00    +0.000 C 
ENDROOT
BRANCH   3   9
ATOM      9  N   UNL     1       1.769   5.720  20.739  0.00  0.00    +0.000 NA
ATOM     10  C   UNL     1       1.337   6.936  20.614  0.00  0.00    +0.000 C 
ATOM     11  N   UNL     1       0.768   7.667  21.678  0.00  0.00    +0.000 N 
ATOM     12  C   UNL     1       0.663   9.025  21.396  0.00  0.00    +0.000 A 
ATOM     13  C   UNL     1       0.235  10.111  22.146  0.00  0.00    +0.000 A 
ATOM     14  C   UNL     1       0.356  11.372  21.513  0.00  0.00    +0.000 A 
ATOM     15  C   UNL     1       0.879  11.518  20.209  0.00  0.00    +0.000 A 
ATOM     16  C   UNL     1       1.238  10.379  19.463  0.00  0.00    +0.000 A 
ATOM     17  C   UNL     1       1.714  10.312  18.147  0.00  0.00    +0.000 A 
ATOM     18  C   UNL     1       1.828   9.064  17.514  0.00  0.00    +0.000 A 
ATOM     19  C   UNL     1       1.560   7.858  18.181  0.00  0.00    +0.000 A 
ATOM     20  C   UNL     1       1.355   7.929  19.556  0.00  0.00    +0.000 A 
ATOM     21  C   UNL     1       1.099   9.181  20.097  0.00  0.00    +0.000 A 
ATOM     22  H   UNL     1       0.662   7.194  22.567  0.00  0.00    +0.000 HD
ENDBRANCH   3   9
BRANCH   6  23
ATOM     23  C   UNL     1       5.167   4.783  17.230  0.00  0.00    +0.000 A 
ATOM     24  C   UNL     1       6.505   4.641  17.601  0.00  0.00    +0.000 A 
ATOM     25  C   UNL     1       7.479   4.434  16.614  0.00  0.00    +0.000 A 
ATOM     26  C   UNL     1       7.129   4.423  15.261  0.00  0.00    +0.000 A 
ATOM     27  C   UNL     1       5.817   4.675  14.881  0.00  0.00    +0.000 A 
ATOM     28  C   UNL     1       4.846   4.869  15.862  0.00  0.00    +0.000 A 
ENDBRANCH   6  23
TORSDOF 2
ENDMDL
MODEL 4
REMARK VINA RESULT:      -7.3      8.964     11.858
REMARK  Name = 
REMARK  4 active torsions:
REMARK  status: ('A' for Active; 'I' for Inactive)
REMARK    1  A    between atoms: C_1  and  C_2
REMARK    2  A    between atoms: C_3  and  N_4
REMARK    3  A    between atoms: N_19  and  C_20
REMARK    4  A    between atoms: N_26  and  C_27
REMARK                            x       y       z     vdW  Elec       q    Type
REMARK                         _______ _______ _______ _____ _____    ______ ____
ROOT
ATOM      1  C   UNL     1       7.064  17.417  19.083  0.00  0.00    +0.000 C 
ATOM      2  C   UNL     1       5.884  16.529  18.845  0.00  0.00    +0.000 A 
ATOM      3  C   UNL     1       5.794  15.300  18.268  0.00  0.00    +0.000 A 
ATOM      4  C   UNL     1       4.276  15.021  18.290  0.00  0.00    +0.000 A 
ATOM      5  O   UNL     1       3.743  14.029  17.814  0.00  0.00    +0.000 OA
ATOM      6  N   UNL     1       3.670  16.129  18.889  0.00  0.00    +0.000 N 
ATOM      7  N   UNL     1       4.651  17.059  19.254  0.00  0.00    +0.000 N 
ATOM      8  C   UNL     1       4.516  17.677  20.584  0.00  0.00    +0.000 C 
ENDROOT
BRANCH   3   9
ATOM      9  N   UNL     1       6.635  14.454  17.604  0.00  0.00    +0.000 NA
ATOM     10  C   UNL     1       7.685  13.866  18.086  0.00  0.00    +0.000 C 
ATOM     11  N   UNL     1       8.582  13.115  17.296  0.00  0.00    +0.000 N 
ATOM     12  C   UNL     1       9.775  12.842  17.957  0.00  0.00    +0.000 A 
ATOM     13  C   UNL     1      10.944  12.206  17.564  0.00  0.00    +0.000 A 
ATOM     14  C   UNL     1      11.984  12.199  18.524  0.00  0.00    +0.000 A 
ATOM     15  C   UNL     1      11.846  12.800  19.796  0.00  0.00    +0.000 A 
ATOM     16  C   UNL     1      10.618  13.375  20.172  0.00  0.00    +0.000 A 
ATOM     17  C   UNL     1      10.267  13.961  21.395  0.00  0.00    +0.000 A 
ATOM     18  C   UNL     1       8.927  14.301  21.643  0.00  0.00    +0.000 A 
ATOM     19  C   UNL     1       7.925  14.153  20.671  0.00  0.00    +0.000 A 
ATOM     20  C   UNL     1       8.339  13.829  19.382  0.00  0.00    +0.000 A 
ATOM     21  C   UNL     1       9.634  13.356  19.229  0.00  0.00    +0.000 A 
ATOM     22  H   UNL     1       8.362  13.006  16.315  0.00  0.00    +0.000 HD
ENDBRANCH   3   9
BRANCH   6  23
ATOM     23  C   UNL     1       2.303  16.454  19.005  0.00  0.00    +0.000 A 
ATOM     24  C   UNL     1       1.703  17.349  18.119  0.00  0.00    +0.000 A 
ATOM     25  C   UNL     1       0.305  17.407  18.033  0.00  0.00    +0.000 A 
ATOM     26  C   UNL     1      -0.492  16.616  18.864  0.00  0.00    +0.000 A 
ATOM     27  C   UNL     1       0.099  15.805  19.826  0.00  0.00    +0.000 A 
ATOM     28  C   UNL     1       1.489  15.738  19.903  0.00  0.00    +0.000 A 
ENDBRANCH   6  23
TORSDOF 2
ENDMDL
MODEL 5
REMARK VINA RESULT:      -7.2      2.295      7.742
REMARK  Name = 
REMARK  4 active torsions:
REMARK  status: ('A' for Active; 'I' for Inactive)
REMARK    1  A    between atoms: C_1  and  C_2
REMARK    2  A    between atoms: C_3  and  N_4
REMARK    3  A    between atoms: N_19  and  C_20
REMARK    4  A    between atoms: N_26  and  C_27
REMARK                            x       y       z     vdW  Elec       q    Type
REMARK                         _______ _______ _______ _____ _____    ______ ____
ROOT
ATOM      1  C   UNL     1       1.064   8.771  17.693  0.00  0.00    +0.000 C 
ATOM      2  C   UNL     1       1.156   9.356  19.066  0.00  0.00    +0.000 A 
ATOM      3  C   UNL     1       1.229   8.760  20.288  0.00  0.00    +0.000 A 
ATOM      4  C   UNL     1       1.223   9.961  21.257  0.00  0.00    +0.000 A 
ATOM      5  O   UNL     1       1.224   9.872  22.476  0.00  0.00    +0.000 OA
ATOM      6  N   UNL     1       1.154  11.114  20.471  0.00  0.00    +0.000 N 
ATOM      7  N   UNL     1       1.132  10.759  19.117  0.00  0.00    +0.000 N 
ATOM      8  C   UNL     1       1.984  11.546  18.210  0.00  0.00    +0.000 C 
ENDROOT
BRANCH   3   9
ATOM      9  N   UNL     1       1.141   7.487  20.775  0.00  0.00    +0.000 NA
ATOM     10  C   UNL     1       1.781   6.445  20.346  0.00  0.00    +0.000 C 
ATOM     11  N   UNL     1       1.530   5.137  20.813  0.00  0.00    +0.000 N 
ATOM     12  C   UNL     1       2.107   4.162  20.006  0.00  0.00    +0.000 A 
ATOM     13  C   UNL     1       2.075   2.776  20.036  0.00  0.00    +0.000 A 
ATOM     14  C   UNL     1       2.742   2.129  18.968  0.00  0.00    +0.000 A 
ATOM     15  C   UNL     1       3.394   2.844  17.938  0.00  0.00    +0.000 A 
ATOM     16  C   UNL     1       3.456   4.249  17.987  0.00  0.00    +0.000 A 
ATOM     17  C   UNL     1       4.099   5.126  17.104  0.00  0.00    +0.000 A 
ATOM     18  C   UNL     1       4.211   6.486  17.435  0.00  0.00    +0.000 A 
ATOM     19  C   UNL     1       3.626   7.026  18.591  0.00  0.00    +0.000 A 
ATOM     20  C   UNL     1       2.766   6.199  19.309  0.00  0.00    +0.000 A 
ATOM     21  C   UNL     1       2.813   4.840  19.034  0.00  0.00    +0.000 A 
ATOM     22  H   UNL     1       0.842   5.026  21.547  0.00  0.00    +0.000 HD
ENDBRANCH   3   9
BRANCH   6  23
ATOM     23  C   UNL     1       0.958  12.457  20.857  0.00  0.00    +0.000 A 
ATOM     24  C   UNL     1      -0.250  12.870  21.419  0.00  0.00    +0.000 A 
ATOM     25  C   UNL     1      -0.317  14.096  22.093  0.00  0.00    +0.000 A 
ATOM     26  C   UNL     1       0.800  14.933  22.162  0.00  0.00    +0.000 A 
ATOM     27  C   UNL     1       1.974  14.577  21.509  0.00  0.00    +0.000 A 
ATOM     28  C   UNL     1       2.045  13.352  20.849  0.00  0.00    +0.000 A 
ENDBRANCH   6  23
TORSDOF 2
ENDMDL
MODEL 6
REMARK VINA RESULT:      -7.2      4.315      7.646
REMARK  Name = 
REMARK  4 active torsions:
REMARK  status: ('A' for Active; 'I' for Inactive)
REMARK    1  A    between atoms: C_1  and  C_2
REMARK    2  A    between atoms: C_3  and  N_4
REMARK    3  A    between atoms: N_19  and  C_20
REMARK    4  A    between atoms: N_26  and  C_27
REMARK                            x       y       z     vdW  Elec       q    Type
REMARK                         _______ _______ _______ _____ _____    ______ ____
ROOT
ATOM      1  C   UNL     1      -0.773  13.198  18.117  0.00  0.00    +0.000 C 
ATOM      2  C   UNL     1      -0.095  12.281  19.085  0.00  0.00    +0.000 A 
ATOM      3  C   UNL     1       0.418  12.514  20.325  0.00  0.00    +0.000 A 
ATOM      4  C   UNL     1       1.026  11.147  20.705  0.00  0.00    +0.000 A 
ATOM      5  O   UNL     1       1.644  10.923  21.737  0.00  0.00    +0.000 OA
ATOM      6  N   UNL     1       0.782  10.283  19.635  0.00  0.00    +0.000 N 
ATOM      7  N   UNL     1       0.074  10.962  18.636  0.00  0.00    +0.000 N 
ATOM      8  C   UNL     1      -1.050  10.244  18.013  0.00  0.00    +0.000 C 
ENDROOT
BRANCH   3   9
ATOM      9  N   UNL     1       0.632  13.603  21.119  0.00  0.00    +0.000 NA
ATOM     10  C   UNL     1      -0.048  13.944  22.169  0.00  0.00    +0.000 C 
ATOM     11  N   UNL     1       0.150  15.161  22.856  0.00  0.00    +0.000 N 
ATOM     12  C   UNL     1      -0.880  15.444  23.747  0.00  0.00    +0.000 A 
ATOM     13  C   UNL     1      -1.139  16.530  24.571  0.00  0.00    +0.000 A 
ATOM     14  C   UNL     1      -2.361  16.474  25.284  0.00  0.00    +0.000 A 
ATOM     15  C   UNL     1      -3.258  15.389  25.165  0.00  0.00    +0.000 A 
ATOM     16  C   UNL     1      -2.920  14.280  24.367  0.00  0.00    +0.000 A 
ATOM     17  C   UNL     1      -3.640  13.095  24.168  0.00  0.00    +0.000 A 
ATOM     18  C   UNL     1      -3.039  12.023  23.489  0.00  0.00    +0.000 A 
ATOM     19  C   UNL     1      -1.760  12.120  22.920  0.00  0.00    +0.000 A 
ATOM     20  C   UNL     1      -1.176  13.384  22.890  0.00  0.00    +0.000 A 
ATOM     21  C   UNL     1      -1.732  14.362  23.703  0.00  0.00    +0.000 A 
ATOM     22  H   UNL     1       0.888  15.770  22.526  0.00  0.00    +0.000 HD
ENDBRANCH   3   9
BRANCH   6  23
ATOM     23  C   UNL     1       1.265   8.979  19.402  0.00  0.00    +0.000 A 
ATOM     24  C   UNL     1       1.944   8.667  18.223  0.00  0.00    +0.000 A 
ATOM     25  C   UNL     1       2.696   7.488  18.148  0.00  0.00    +0.000 A 
ATOM     26  C   UNL     1       2.730   6.595  19.223  0.00  0.00    +0.000 A 
ATOM     27  C   UNL     1       1.966   6.846  20.357  0.00  0.00    +0.000 A 
ATOM     28  C   UNL     1       1.228   8.025  20.437  0.00  0.00    +0.000 A 
ENDBRANCH   6  23
TORSDOF 2
ENDMDL
MODEL 7
REMARK VINA RESULT:      -7.2      4.887     10.620
REMARK  Name = 
REMARK  4 active torsions:
REMARK  status: ('A' for Active; 'I' for Inactive)
REMARK    1  A    between atoms: C_1  and  C_2
REMARK    2  A    between atoms: C_3  and  N_4
REMARK    3  A    between atoms: N_19  and  C_20
REMARK    4  A    between atoms: N_26  and  C_27
REMARK                            x       y       z     vdW  Elec       q    Type
REMARK                         _______ _______ _______ _____ _____    ______ ____
ROOT
ATOM      1  C   UNL     1       0.870  14.626  21.727  0.00  0.00    +0.000 C 
ATOM      2  C   UNL     1      -0.469  14.040  21.407  0.00  0.00    +0.000 A 
ATOM      3  C   UNL     1      -0.853  13.173  20.432  0.00  0.00    +0.000 A 
ATOM      4  C   UNL     1      -2.378  13.067  20.649  0.00  0.00    +0.000 A 
ATOM      5  O   UNL     1      -3.138  12.418  19.944  0.00  0.00    +0.000 OA
ATOM      6  N   UNL     1      -2.689  13.886  21.737  0.00  0.00    +0.000 N 
ATOM      7  N   UNL     1      -1.520  14.478  22.228  0.00  0.00    +0.000 N 
ATOM      8  C   UNL     1      -1.353  14.506  23.691  0.00  0.00    +0.000 C 
ENDROOT
BRANCH   3   9
ATOM      9  N   UNL     1      -0.277  12.593  19.338  0.00  0.00    +0.000 NA
ATOM     10  C   UNL     1       0.129  11.366  19.234  0.00  0.00    +0.000 C 
ATOM     11  N   UNL     1       0.843  10.881  18.117  0.00  0.00    +0.000 N 
ATOM     12  C   UNL     1       1.430   9.643  18.355  0.00  0.00    +0.000 A 
ATOM     13  C   UNL     1       2.256   8.831  17.593  0.00  0.00    +0.000 A 
ATOM     14  C   UNL     1       2.716   7.656  18.236  0.00  0.00    +0.000 A 
ATOM     15  C   UNL     1       2.362   7.332  19.564  0.00  0.00    +0.000 A 
ATOM     16  C   UNL     1       1.468   8.154  20.275  0.00  0.00    +0.000 A 
ATOM     17  C   UNL     1       0.954   7.974  21.566  0.00  0.00    +0.000 A 
ATOM     18  C   UNL     1      -0.082   8.805  22.022  0.00  0.00    +0.000 A 
ATOM     19  C   UNL     1      -0.574   9.876  21.260  0.00  0.00    +0.000 A 
ATOM     20  C   UNL     1       0.131  10.205  20.105  0.00  0.00    +0.000 A 
ATOM     21  C   UNL     1       1.035   9.271  19.623  0.00  0.00    +0.000 A 
ATOM     22  H   UNL     1       1.005  11.522  17.351  0.00  0.00    +0.000 HD
ENDBRANCH   3   9
BRANCH   6  23
ATOM     23  C   UNL     1      -3.949  14.272  22.242  0.00  0.00    +0.000 A 
ATOM     24  C   UNL     1      -4.737  13.373  22.962  0.00  0.00    +0.000 A 
ATOM     25  C   UNL     1      -5.807  13.851  23.729  0.00  0.00    +0.000 A 
ATOM     26  C   UNL     1      -6.126  15.211  23.738  0.00  0.00    +0.000 A 
ATOM     27  C   UNL     1      -5.414  16.095  22.936  0.00  0.00    +0.000 A 
ATOM     28  C   UNL     1      -4.341  15.623  22.182  0.00  0.00    +0.000 A 
ENDBRANCH   6  23
TORSDOF 2
ENDMDL
MODEL 8
REMARK VINA RESULT:      -7.1      3.114      8.693
REMARK  Name = 
REMARK  4 active torsions:
REMARK  status: ('A' for Active; 'I' for Inactive)
REMARK    1  A    between atoms: C_1  and  C_2
REMARK    2  A    between atoms: C_3  and  N_4
REMARK    3  A    between atoms: N_19  and  C_20
REMARK    4  A    between atoms: N_26  and  C_27
REMARK                            x       y       z     vdW  Elec       q    Type
REMARK                         _______ _______ _______ _____ _____    ______ ____
ROOT
ATOM      1  C   UNL     1      -0.971   9.641  18.846  0.00  0.00    +0.000 C 
ATOM      2  C   UNL     1      -0.771  10.080  20.262  0.00  0.00    +0.000 A 
ATOM      3  C   UNL     1      -0.186   9.451  21.317  0.00  0.00    +0.000 A 
ATOM      4  C   UNL     1      -0.402  10.450  22.474  0.00  0.00    +0.000 A 
ATOM      5  O   UNL     1      -0.069  10.254  23.634  0.00  0.00    +0.000 OA
ATOM      6  N   UNL     1      -1.084  11.546  21.940  0.00  0.00    +0.000 N 
ATOM      7  N   UNL     1      -1.302  11.342  20.573  0.00  0.00    +0.000 N 
ATOM      8  C   UNL     1      -1.053  12.488  19.682  0.00  0.00    +0.000 C 
ENDROOT
BRANCH   3   9
ATOM      9  N   UNL     1       0.328   8.212  21.571  0.00  0.00    +0.000 NA
ATOM     10  C   UNL     1       1.211   7.578  20.864  0.00  0.00    +0.000 C 
ATOM     11  N   UNL     1       1.587   6.241  21.117  0.00  0.00    +0.000 N 
ATOM     12  C   UNL     1       2.306   5.682  20.066  0.00  0.00    +0.000 A 
ATOM     13  C   UNL     1       2.816   4.411  19.845  0.00  0.00    +0.000 A 
ATOM     14  C   UNL     1       3.434   4.212  18.587  0.00  0.00    +0.000 A 
ATOM     15  C   UNL     1       3.524   5.237  17.618  0.00  0.00    +0.000 A 
ATOM     16  C   UNL     1       3.051   6.529  17.914  0.00  0.00    +0.000 A 
ATOM     17  C   UNL     1       3.102   7.681  17.118  0.00  0.00    +0.000 A 
ATOM     18  C   UNL     1       2.753   8.923  17.672  0.00  0.00    +0.000 A 
ATOM     19  C   UNL     1       2.268   9.049  18.983  0.00  0.00    +0.000 A 
ATOM     20  C   UNL     1       1.968   7.870  19.661  0.00  0.00    +0.000 A 
ATOM     21  C   UNL     1       2.472   6.688  19.138  0.00  0.00    +0.000 A 
ATOM     22  H   UNL     1       1.169   5.780  21.914  0.00  0.00    +0.000 HD
ENDBRANCH   3   9
BRANCH   6  23
ATOM     23  C   UNL     1      -1.665  12.652  22.596  0.00  0.00    +0.000 A 
ATOM     24  C   UNL     1      -2.997  12.619  23.009  0.00  0.00    +0.000 A 
ATOM     25  C   UNL     1      -3.459  13.564  23.935  0.00  0.00    +0.000 A 
ATOM     26  C   UNL     1      -2.612  14.571  24.407  0.00  0.00    +0.000 A 
ATOM     27  C   UNL     1      -1.317  14.675  23.914  0.00  0.00    +0.000 A 
ATOM     28  C   UNL     1      -0.853  13.728  23.003  0.00  0.00    +0.000 A 
ENDBRANCH   6  23
TORSDOF 2
ENDMDL
MODEL 9
REMARK VINA RESULT:      -7.1      4.624      7.805
REMARK  Name = 
REMARK  4 active torsions:
REMARK  status: ('A' for Active; 'I' for Inactive)
REMARK    1  A    between atoms: C_1  and  C_2
REMARK    2  A    between atoms: C_3  and  N_4
REMARK    3  A    between atoms: N_19  and  C_20
REMARK    4  A    between atoms: N_26  and  C_27
REMARK                            x       y       z     vdW  Elec       q    Type
REMARK                         _______ _______ _______ _____ _____    ______ ____
ROOT
ATOM      1  C   UNL     1      -0.979  13.386  19.056  0.00  0.00    +0.000 C 
ATOM      2  C   UNL     1      -0.345  12.266  19.818  0.00  0.00    +0.000 A 
ATOM      3  C   UNL     1      -0.009  12.158  21.132  0.00  0.00    +0.000 A 
ATOM      4  C   UNL     1       0.667  10.772  21.201  0.00  0.00    +0.000 A 
ATOM      5  O   UNL     1       1.172  10.293  22.206  0.00  0.00    +0.000 OA
ATOM      6  N   UNL     1       0.632  10.241  19.909  0.00  0.00    +0.000 N 
ATOM      7  N   UNL     1      -0.006  11.142  19.049  0.00  0.00    +0.000 N 
ATOM      8  C   UNL     1      -0.978  10.577  18.098  0.00  0.00    +0.000 C 
ENDROOT
BRANCH   3   9
ATOM      9  N   UNL     1       0.010  12.983  22.220  0.00  0.00    +0.000 NA
ATOM     10  C   UNL     1      -1.018  13.482  22.835  0.00  0.00    +0.000 C 
ATOM     11  N   UNL     1      -0.911  14.438  23.867  0.00  0.00    +0.000 N 
ATOM     12  C   UNL     1      -2.128  15.045  24.160  0.00  0.00    +0.000 A 
ATOM     13  C   UNL     1      -2.487  16.061  25.033  0.00  0.00    +0.000 A 
ATOM     14  C   UNL     1      -3.845  16.457  24.981  0.00  0.00    +0.000 A 
ATOM     15  C   UNL     1      -4.774  15.861  24.098  0.00  0.00    +0.000 A 
ATOM     16  C   UNL     1      -4.377  14.788  23.278  0.00  0.00    +0.000 A 
ATOM     17  C   UNL     1      -5.155  14.035  22.389  0.00  0.00    +0.000 A 
ATOM     18  C   UNL     1      -4.617  12.875  21.808  0.00  0.00    +0.000 A 
ATOM     19  C   UNL     1      -3.287  12.480  22.018  0.00  0.00    +0.000 A 
ATOM     20  C   UNL     1      -2.457  13.382  22.679  0.00  0.00    +0.000 A 
ATOM     21  C   UNL     1      -3.066  14.425  23.361  0.00  0.00    +0.000 A 
ATOM     22  H   UNL     1       0.019  14.711  24.158  0.00  0.00    +0.000 HD
ENDBRANCH   3   9
BRANCH   6  23
ATOM     23  C   UNL     1       1.254   9.084  19.395  0.00  0.00    +0.000 A 
ATOM     24  C   UNL     1       1.864   9.099  18.140  0.00  0.00    +0.000 A 
ATOM     25  C   UNL     1       2.750   8.071  17.789  0.00  0.00    +0.000 A 
ATOM     26  C   UNL     1       2.985   7.005  18.661  0.00  0.00    +0.000 A 
ATOM     27  C   UNL     1       2.294   6.928  19.865  0.00  0.00    +0.000 A 
ATOM     28  C   UNL     1       1.423   7.956  20.220  0.00  0.00    +0.000 A 
ENDBRANCH   6  23
TORSDOF 2
ENDMDL
