MODEL 1
REMARK VINA RESULT:      -7.5      0.000      0.000
REMARK  Name = 
REMARK  11 active torsions:
REMARK  status: ('A' for Active; 'I' for Inactive)
REMARK    1  A    between atoms: C_2  and  O_3
REMARK    2  A    between atoms: C_2  and  C_4
REMARK    3  A    between atoms: C_4  and  C_5
REMARK    4  A    between atoms: C_5  and  C_6
REMARK    5  A    between atoms: C_6  and  C_7
REMARK    6  A    between atoms: C_7  and  C_9
REMARK    7  A    between atoms: C_12  and  N_13
REMARK    8  A    between atoms: N_14  and  C_15
REMARK    9  A    between atoms: C_18  and  O_19
REMARK   10  A    between atoms: C_20  and  C_21
REMARK   11  A    between atoms: C_21  and  O_23
REMARK                            x       y       z     vdW  Elec       q    Type
REMARK                         _______ _______ _______ _____ _____    ______ ____
ROOT
ATOM      1  C   UNL     1       6.158   5.352  17.362  0.00  0.00    +0.000 A 
ATOM      2  C   UNL     1       7.149   5.135  18.324  0.00  0.00    +0.000 A 
ATOM      3  C   UNL     1       7.976   6.188  18.735  0.00  0.00    +0.000 A 
ATOM      4  C   UNL     1       7.831   7.473  18.205  0.00  0.00    +0.000 A 
ATOM      5  C   UNL     1       6.826   7.689  17.255  0.00  0.00    +0.000 A 
ATOM      6  C   UNL     1       6.001   6.639  16.830  0.00  0.00    +0.000 A 
ENDROOT
BRANCH   1   7
ATOM      7  C   UNL     1       5.267   4.256  16.864  0.00  0.00    +0.000 C 
ATOM      8  O   UNL     1       5.700   3.463  16.025  0.00  0.00    +0.000 OA
BRANCH   7   9
ATOM      9  C   UNL     1       3.848   4.145  17.406  0.00  0.00    +0.000 C 
BRANCH   9  10
ATOM     10  C   UNL     1       3.738   4.502  18.892  0.00  0.00    +0.000 C 
BRANCH  10  11
ATOM     11  C   UNL     1       3.555   3.288  19.809  0.00  0.00    +0.000 C 
BRANCH  11  13
ATOM     12  O   UNL     1       1.849   4.507  21.026  0.00  0.00    +0.000 OA
ATOM     13  C   UNL     1       2.616   3.558  20.961  0.00  0.00    +0.000 C 
BRANCH  13  14
ATOM     14  O   UNL     1       2.693   2.626  21.937  0.00  0.00    +0.000 OA
ATOM     15  H   UNL     1       3.458   2.024  21.855  0.00  0.00    +0.000 HD
ENDBRANCH  13  14
ENDBRANCH  11  13
ENDBRANCH  10  11
ENDBRANCH   9  10
ENDBRANCH   7   9
ENDBRANCH   1   7
BRANCH   4  16
ATOM     16  N   UNL     1       8.681   8.486  18.694  0.00  0.00    +0.000 NA
ATOM     17  N   UNL     1       8.392   9.608  18.227  0.00  0.00    +0.000 NA
BRANCH  17  18
ATOM     18  C   UNL     1       9.329  10.592  18.603  0.00  0.00    +0.000 A 
ATOM     19  C   UNL     1       9.653  10.721  19.957  0.00  0.00    +0.000 A 
ATOM     20  C   UNL     1      10.499  11.741  20.403  0.00  0.00    +0.000 A 
ATOM     21  C   UNL     1      11.025  12.651  19.486  0.00  0.00    +0.000 A 
ATOM     22  C   UNL     1      10.720  12.548  18.122  0.00  0.00    +0.000 A 
ATOM     23  C   UNL     1       9.871  11.513  17.694  0.00  0.00    +0.000 A 
BRANCH  21  24
ATOM     24  O   UNL     1      11.836  13.661  19.936  0.00  0.00    +0.000 OA
ATOM     25  H   UNL     1      11.782  14.410  19.312  0.00  0.00    +0.000 HD
ENDBRANCH  21  24
BRANCH  22  26
ATOM     26  C   UNL     1      11.224  13.489  17.079  0.00  0.00    +0.000 C 
ATOM     27  O   UNL     1      11.120  14.701  17.186  0.00  0.00    +0.000 OA
BRANCH  26  28
ATOM     28  O   UNL     1      11.814  12.909  16.013  0.00  0.00    +0.000 OA
ATOM     29  H   UNL     1      11.350  12.092  15.724  0.00  0.00    +0.000 HD
ENDBRANCH  26  28
ENDBRANCH  22  26
ENDBRANCH  17  18
ENDBRANCH   4  16
TORSDOF 11
ENDMDL
MODEL 2
REMARK VINA RESULT:      -7.4      1.116      1.560
REMARK  Name = 
REMARK  11 active torsions:
REMARK  status: ('A' for Active; 'I' for Inactive)
REMARK    1  A    between atoms: C_2  and  O_3
REMARK    2  A    between atoms: C_2  and  C_4
REMARK    3  A    between atoms: C_4  and  C_5
REMARK    4  A    between atoms: C_5  and  C_6
REMARK    5  A    between atoms: C_6  and  C_7
REMARK    6  A    between atoms: C_7  and  C_9
REMARK    7  A    between atoms: C_12  and  N_13
REMARK    8  A    between atoms: N_14  and  C_15
REMARK    9  A    between atoms: C_18  and  O_19
REMARK   10  A    between atoms: C_20  and  C_21
REMARK   11  A    between atoms: C_21  and  O_23
REMARK                            x       y       z     vdW  Elec       q    Type
REMARK                         _______ _______ _______ _____ _____    ______ ____
ROOT
ATOM      1  C   UNL     1       6.317   5.349  17.089  0.00  0.00    +0.000 A 
ATOM      2  C   UNL     1       6.468   6.594  16.470  0.00  0.00    +0.000 A 
ATOM      3  C   UNL     1       7.265   7.582  17.058  0.00  0.00    +0.000 A 
ATOM      4  C   UNL     1       7.932   7.354  18.265  0.00  0.00    +0.000 A 
ATOM      5  C   UNL     1       7.792   6.100  18.873  0.00  0.00    +0.000 A 
ATOM      6  C   UNL     1       6.987   5.108  18.296  0.00  0.00    +0.000 A 
ENDROOT
BRANCH   1   7
ATOM      7  C   UNL     1       5.452   4.267  16.521  0.00  0.00    +0.000 C 
ATOM      8  O   UNL     1       5.429   4.095  15.300  0.00  0.00    +0.000 OA
BRANCH   7   9
ATOM      9  C   UNL     1       4.625   3.402  17.462  0.00  0.00    +0.000 C 
BRANCH   9  10
ATOM     10  C   UNL     1       3.420   4.137  18.059  0.00  0.00    +0.000 C 
BRANCH  10  11
ATOM     11  C   UNL     1       2.069   3.624  17.552  0.00  0.00    +0.000 C 
BRANCH  11  13
ATOM     12  O   UNL     1       1.027   3.964  19.716  0.00  0.00    +0.000 OA
ATOM     13  C   UNL     1       1.093   3.336  18.670  0.00  0.00    +0.000 C 
BRANCH  13  14
ATOM     14  O   UNL     1       0.270   2.298  18.400  0.00  0.00    +0.000 OA
ATOM     15  H   UNL     1       0.535   1.458  18.821  0.00  0.00    +0.000 HD
ENDBRANCH  13  14
ENDBRANCH  11  13
ENDBRANCH  10  11
ENDBRANCH   9  10
ENDBRANCH   7   9
ENDBRANCH   1   7
BRANCH   4  16
ATOM     16  N   UNL     1       8.742   8.388  18.777  0.00  0.00    +0.000 NA
ATOM     17  N   UNL     1       8.429   9.504  18.312  0.00  0.00    +0.000 NA
BRANCH  17  18
ATOM     18  C   UNL     1       9.329  10.513  18.713  0.00  0.00    +0.000 A 
ATOM     19  C   UNL     1       9.530  10.720  20.082  0.00  0.00    +0.000 A 
ATOM     20  C   UNL     1      10.333  11.769  20.542  0.00  0.00    +0.000 A 
ATOM     21  C   UNL     1      10.939  12.627  19.625  0.00  0.00    +0.000 A 
ATOM     22  C   UNL     1      10.757  12.445  18.248  0.00  0.00    +0.000 A 
ATOM     23  C   UNL     1       9.950  11.383  17.805  0.00  0.00    +0.000 A 
BRANCH  21  24
ATOM     24  O   UNL     1      11.707  13.665  20.087  0.00  0.00    +0.000 OA
ATOM     25  H   UNL     1      11.117  14.390  20.374  0.00  0.00    +0.000 HD
ENDBRANCH  21  24
BRANCH  22  26
ATOM     26  C   UNL     1      11.353  13.327  17.201  0.00  0.00    +0.000 C 
ATOM     27  O   UNL     1      10.991  14.481  17.035  0.00  0.00    +0.000 OA
BRANCH  26  28
ATOM     28  O   UNL     1      12.329  12.766  16.458  0.00  0.00    +0.000 OA
ATOM     29  H   UNL     1      11.990  12.386  15.617  0.00  0.00    +0.000 HD
ENDBRANCH  26  28
ENDBRANCH  22  26
ENDBRANCH  17  18
ENDBRANCH   4  16
TORSDOF 11
ENDMDL
MODEL 3
REMARK VINA RESULT:      -7.3      6.284      8.670
REMARK  Name = 
REMARK  11 active torsions:
REMARK  status: ('A' for Active; 'I' for Inactive)
REMARK    1  A    between atoms: C_2  and  O_3
REMARK    2  A    between atoms: C_2  and  C_4
REMARK    3  A    between atoms: C_4  and  C_5
REMARK    4  A    between atoms: C_5  and  C_6
REMARK    5  A    between atoms: C_6  and  C_7
REMARK    6  A    between atoms: C_7  and  C_9
REMARK    7  A    between atoms: C_12  and  N_13
REMARK    8  A    between atoms: N_14  and  C_15
REMARK    9  A    between atoms: C_18  and  O_19
REMARK   10  A    between atoms: C_20  and  C_21
REMARK   11  A    between atoms: C_21  and  O_23
REMARK                            x       y       z     vdW  Elec       q    Type
REMARK                         _______ _______ _______ _____ _____    ______ ____
ROOT
ATOM      1  C   UNL     1       4.155   5.664  18.827  0.00  0.00    +0.000 A 
ATOM      2  C   UNL     1       4.184   6.559  17.754  0.00  0.00    +0.000 A 
ATOM      3  C   UNL     1       3.261   7.609  17.686  0.00  0.00    +0.000 A 
ATOM      4  C   UNL     1       2.300   7.796  18.683  0.00  0.00    +0.000 A 
ATOM      5  C   UNL     1       2.286   6.908  19.765  0.00  0.00    +0.000 A 
ATOM      6  C   UNL     1       3.199   5.847  19.836  0.00  0.00    +0.000 A 
ENDROOT
BRANCH   1   7
ATOM      7  C   UNL     1       5.097   4.505  18.935  0.00  0.00    +0.000 C 
ATOM      8  O   UNL     1       6.309   4.721  19.021  0.00  0.00    +0.000 OA
BRANCH   7   9
ATOM      9  C   UNL     1       4.540   3.088  18.940  0.00  0.00    +0.000 C 
BRANCH   9  10
ATOM     10  C   UNL     1       3.761   2.739  17.667  0.00  0.00    +0.000 C 
BRANCH  10  11
ATOM     11  C   UNL     1       2.377   2.139  17.932  0.00  0.00    +0.000 C 
BRANCH  11  13
ATOM     12  O   UNL     1       0.752   3.160  19.416  0.00  0.00    +0.000 OA
ATOM     13  C   UNL     1       1.361   3.174  18.356  0.00  0.00    +0.000 C 
BRANCH  13  14
ATOM     14  O   UNL     1       1.186   4.152  17.439  0.00  0.00    +0.000 OA
ATOM     15  H   UNL     1       1.810   4.897  17.526  0.00  0.00    +0.000 HD
ENDBRANCH  13  14
ENDBRANCH  11  13
ENDBRANCH  10  11
ENDBRANCH   9  10
ENDBRANCH   7   9
ENDBRANCH   1   7
BRANCH   4  16
ATOM     16  N   UNL     1       1.427   8.896  18.559  0.00  0.00    +0.000 NA
ATOM     17  N   UNL     1       0.956   9.250  19.660  0.00  0.00    +0.000 NA
BRANCH  17  18
ATOM     18  C   UNL     1      -0.023  10.253  19.517  0.00  0.00    +0.000 A 
ATOM     19  C   UNL     1      -0.202  11.164  20.563  0.00  0.00    +0.000 A 
ATOM     20  C   UNL     1      -1.223  12.119  20.522  0.00  0.00    +0.000 A 
ATOM     21  C   UNL     1      -2.082  12.163  19.425  0.00  0.00    +0.000 A 
ATOM     22  C   UNL     1      -1.928  11.265  18.360  0.00  0.00    +0.000 A 
ATOM     23  C   UNL     1      -0.893  10.315  18.418  0.00  0.00    +0.000 A 
BRANCH  21  24
ATOM     24  O   UNL     1      -3.093  13.090  19.404  0.00  0.00    +0.000 OA
ATOM     25  H   UNL     1      -3.901  12.666  19.054  0.00  0.00    +0.000 HD
ENDBRANCH  21  24
BRANCH  22  26
ATOM     26  C   UNL     1      -2.813  11.232  17.159  0.00  0.00    +0.000 C 
ATOM     27  O   UNL     1      -2.381  11.041  16.033  0.00  0.00    +0.000 OA
BRANCH  26  28
ATOM     28  O   UNL     1      -4.127  11.418  17.402  0.00  0.00    +0.000 OA
ATOM     29  H   UNL     1      -4.616  11.733  16.610  0.00  0.00    +0.000 HD
ENDBRANCH  26  28
ENDBRANCH  22  26
ENDBRANCH  17  18
ENDBRANCH   4  16
TORSDOF 11
ENDMDL
MODEL 4
REMARK VINA RESULT:      -7.2      6.069      8.621
REMARK  Name = 
REMARK  11 active torsions:
REMARK  status: ('A' for Active; 'I' for Inactive)
REMARK    1  A    between atoms: C_2  and  O_3
REMARK    2  A    between atoms: C_2  and  C_4
REMARK    3  A    between atoms: C_4  and  C_5
REMARK    4  A    between atoms: C_5  and  C_6
REMARK    5  A    between atoms: C_6  and  C_7
REMARK    6  A    between atoms: C_7  and  C_9
REMARK    7  A    between atoms: C_12  and  N_13
REMARK    8  A    between atoms: N_14  and  C_15
REMARK    9  A    between atoms: C_18  and  O_19
REMARK   10  A    between atoms: C_20  and  C_21
REMARK   11  A    between atoms: C_21  and  O_23
REMARK                            x       y       z     vdW  Elec       q    Type
REMARK                         _______ _______ _______ _____ _____    ______ ____
ROOT
ATOM      1  C   UNL     1       5.485   5.182  16.667  0.00  0.00    +0.000 A 
ATOM      2  C   UNL     1       4.550   4.569  17.506  0.00  0.00    +0.000 A 
ATOM      3  C   UNL     1       3.549   5.329  18.121  0.00  0.00    +0.000 A 
ATOM      4  C   UNL     1       3.450   6.707  17.909  0.00  0.00    +0.000 A 
ATOM      5  C   UNL     1       4.378   7.314  17.053  0.00  0.00    +0.000 A 
ATOM      6  C   UNL     1       5.391   6.562  16.442  0.00  0.00    +0.000 A 
ENDROOT
BRANCH   1   7
ATOM      7  C   UNL     1       6.596   4.423  16.008  0.00  0.00    +0.000 C 
ATOM      8  O   UNL     1       7.680   4.321  16.587  0.00  0.00    +0.000 OA
BRANCH   7   9
ATOM      9  C   UNL     1       6.360   3.792  14.643  0.00  0.00    +0.000 C 
BRANCH   9  10
ATOM     10  C   UNL     1       6.951   4.609  13.488  0.00  0.00    +0.000 C 
BRANCH  10  11
ATOM     11  C   UNL     1       6.906   3.891  12.136  0.00  0.00    +0.000 C 
BRANCH  11  13
ATOM     12  O   UNL     1       4.539   3.446  11.859  0.00  0.00    +0.000 OA
ATOM     13  C   UNL     1       5.680   3.024  11.972  0.00  0.00    +0.000 C 
BRANCH  13  14
ATOM     14  O   UNL     1       5.964   1.703  11.949  0.00  0.00    +0.000 OA
ATOM     15  H   UNL     1       5.414   1.165  12.551  0.00  0.00    +0.000 HD
ENDBRANCH  13  14
ENDBRANCH  11  13
ENDBRANCH  10  11
ENDBRANCH   9  10
ENDBRANCH   7   9
ENDBRANCH   1   7
BRANCH   4  16
ATOM     16  N   UNL     1       2.394   7.397  18.539  0.00  0.00    +0.000 NA
ATOM     17  N   UNL     1       2.348   8.598  18.198  0.00  0.00    +0.000 NA
BRANCH  17  18
ATOM     18  C   UNL     1       1.385   9.318  18.934  0.00  0.00    +0.000 A 
ATOM     19  C   UNL     1       0.868  10.495  18.383  0.00  0.00    +0.000 A 
ATOM     20  C   UNL     1      -0.014  11.303  19.107  0.00  0.00    +0.000 A 
ATOM     21  C   UNL     1      -0.382  10.937  20.401  0.00  0.00    +0.000 A 
ATOM     22  C   UNL     1       0.118   9.763  20.980  0.00  0.00    +0.000 A 
ATOM     23  C   UNL     1       1.001   8.962  20.235  0.00  0.00    +0.000 A 
BRANCH  21  24
ATOM     24  O   UNL     1      -1.231  11.747  21.110  0.00  0.00    +0.000 OA
ATOM     25  H   UNL     1      -1.504  11.282  21.924  0.00  0.00    +0.000 HD
ENDBRANCH  21  24
BRANCH  22  26
ATOM     26  C   UNL     1      -0.209   9.308  22.364  0.00  0.00    +0.000 C 
ATOM     27  O   UNL     1      -0.768   8.245  22.587  0.00  0.00    +0.000 OA
BRANCH  26  28
ATOM     28  O   UNL     1       0.165  10.146  23.353  0.00  0.00    +0.000 OA
ATOM     29  H   UNL     1       1.027   9.895  23.752  0.00  0.00    +0.000 HD
ENDBRANCH  26  28
ENDBRANCH  22  26
ENDBRANCH  17  18
ENDBRANCH   4  16
TORSDOF 11
ENDMDL
MODEL 5
REMARK VINA RESULT:      -7.2      6.095      9.036
REMARK  Name = 
REMARK  11 active torsions:
REMARK  status: ('A' for Active; 'I' for Inactive)
REMARK    1  A    between atoms: C_2  and  O_3
REMARK    2  A    between atoms: C_2  and  C_4
REMARK    3  A    between atoms: C_4  and  C_5
REMARK    4  A    between atoms: C_5  and  C_6
REMARK    5  A    between atoms: C_6  and  C_7
REMARK    6  A    between atoms: C_7  and  C_9
REMARK    7  A    between atoms: C_12  and  N_13
REMARK    8  A    between atoms: N_14  and  C_15
REMARK    9  A    between atoms: C_18  and  O_19
REMARK   10  A    between atoms: C_20  and  C_21
REMARK   11  A    between atoms: C_21  and  O_23
REMARK                            x       y       z     vdW  Elec       q    Type
REMARK                         _______ _______ _______ _____ _____    ______ ____
ROOT
ATOM      1  C   UNL     1       4.277   5.623  18.504  0.00  0.00    +0.000 A 
ATOM      2  C   UNL     1       3.221   5.741  19.413  0.00  0.00    +0.000 A 
ATOM      3  C   UNL     1       2.319   6.807  19.312  0.00  0.00    +0.000 A 
ATOM      4  C   UNL     1       2.443   7.769  18.306  0.00  0.00    +0.000 A 
ATOM      5  C   UNL     1       3.492   7.636  17.387  0.00  0.00    +0.000 A 
ATOM      6  C   UNL     1       4.405   6.578  17.487  0.00  0.00    +0.000 A 
ENDROOT
BRANCH   1   7
ATOM      7  C   UNL     1       5.288   4.521  18.584  0.00  0.00    +0.000 C 
ATOM      8  O   UNL     1       5.275   3.762  19.556  0.00  0.00    +0.000 OA
BRANCH   7   9
ATOM      9  C   UNL     1       6.305   4.360  17.463  0.00  0.00    +0.000 C 
BRANCH   9  10
ATOM     10  C   UNL     1       7.727   4.759  17.873  0.00  0.00    +0.000 C 
BRANCH  10  11
ATOM     11  C   UNL     1       7.795   6.050  18.695  0.00  0.00    +0.000 C 
BRANCH  11  13
ATOM     12  O   UNL     1       8.110   8.414  18.261  0.00  0.00    +0.000 OA
ATOM     13  C   UNL     1       7.903   7.288  17.835  0.00  0.00    +0.000 C 
BRANCH  13  14
ATOM     14  O   UNL     1       7.755   7.032  16.516  0.00  0.00    +0.000 OA
ATOM     15  H   UNL     1       8.559   6.684  16.085  0.00  0.00    +0.000 HD
ENDBRANCH  13  14
ENDBRANCH  11  13
ENDBRANCH  10  11
ENDBRANCH   9  10
ENDBRANCH   7   9
ENDBRANCH   1   7
BRANCH   4  16
ATOM     16  N   UNL     1       1.476   8.794  18.251  0.00  0.00    +0.000 NA
ATOM     17  N   UNL     1       1.223   9.263  19.381  0.00  0.00    +0.000 NA
BRANCH  17  18
ATOM     18  C   UNL     1       0.157  10.184  19.343  0.00  0.00    +0.000 A 
ATOM     19  C   UNL     1       0.042  11.114  20.381  0.00  0.00    +0.000 A 
ATOM     20  C   UNL     1      -1.048  11.986  20.451  0.00  0.00    +0.000 A 
ATOM     21  C   UNL     1      -2.042  11.928  19.474  0.00  0.00    +0.000 A 
ATOM     22  C   UNL     1      -1.955  11.008  18.421  0.00  0.00    +0.000 A 
ATOM     23  C   UNL     1      -0.849  10.141  18.367  0.00  0.00    +0.000 A 
BRANCH  21  24
ATOM     24  O   UNL     1      -3.118  12.773  19.563  0.00  0.00    +0.000 OA
ATOM     25  H   UNL     1      -3.919  12.296  19.273  0.00  0.00    +0.000 HD
ENDBRANCH  21  24
BRANCH  22  26
ATOM     26  C   UNL     1      -2.982  10.866  17.347  0.00  0.00    +0.000 C 
ATOM     27  O   UNL     1      -3.242   9.792  16.828  0.00  0.00    +0.000 OA
BRANCH  26  28
ATOM     28  O   UNL     1      -3.613  12.006  16.996  0.00  0.00    +0.000 OA
ATOM     29  H   UNL     1      -2.988  12.747  16.833  0.00  0.00    +0.000 HD
ENDBRANCH  26  28
ENDBRANCH  22  26
ENDBRANCH  17  18
ENDBRANCH   4  16
TORSDOF 11
ENDMDL
MODEL 6
REMARK VINA RESULT:      -7.1      1.053      1.622
REMARK  Name = 
REMARK  11 active torsions:
REMARK  status: ('A' for Active; 'I' for Inactive)
REMARK    1  A    between atoms: C_2  and  O_3
REMARK    2  A    between atoms: C_2  and  C_4
REMARK    3  A    between atoms: C_4  and  C_5
REMARK    4  A    between atoms: C_5  and  C_6
REMARK    5  A    between atoms: C_6  and  C_7
REMARK    6  A    between atoms: C_7  and  C_9
REMARK    7  A    between atoms: C_12  and  N_13
REMARK    8  A    between atoms: N_14  and  C_15
REMARK    9  A    between atoms: C_18  and  O_19
REMARK   10  A    between atoms: C_20  and  C_21
REMARK   11  A    between atoms: C_21  and  O_23
REMARK                            x       y       z     vdW  Elec       q    Type
REMARK                         _______ _______ _______ _____ _____    ______ ____
ROOT
ATOM      1  C   UNL     1       6.248   5.360  17.066  0.00  0.00    +0.000 A 
ATOM      2  C   UNL     1       6.153   6.667  16.578  0.00  0.00    +0.000 A 
ATOM      3  C   UNL     1       6.920   7.690  17.148  0.00  0.00    +0.000 A 
ATOM      4  C   UNL     1       7.799   7.436  18.204  0.00  0.00    +0.000 A 
ATOM      5  C   UNL     1       7.904   6.122  18.677  0.00  0.00    +0.000 A 
ATOM      6  C   UNL     1       7.132   5.094  18.120  0.00  0.00    +0.000 A 
ENDROOT
BRANCH   1   7
ATOM      7  C   UNL     1       5.429   4.234  16.515  0.00  0.00    +0.000 C 
ATOM      8  O   UNL     1       5.995   3.317  15.915  0.00  0.00    +0.000 OA
BRANCH   7   9
ATOM      9  C   UNL     1       3.919   4.245  16.710  0.00  0.00    +0.000 C 
BRANCH   9  10
ATOM     10  C   UNL     1       3.496   4.079  18.174  0.00  0.00    +0.000 C 
BRANCH  10  11
ATOM     11  C   UNL     1       3.401   2.620  18.629  0.00  0.00    +0.000 C 
BRANCH  11  13
ATOM     12  O   UNL     1       3.283   2.542  21.050  0.00  0.00    +0.000 OA
ATOM     13  C   UNL     1       3.935   2.405  20.026  0.00  0.00    +0.000 C 
BRANCH  13  14
ATOM     14  O   UNL     1       5.233   2.026  20.044  0.00  0.00    +0.000 OA
ATOM     15  H   UNL     1       5.857   2.728  19.776  0.00  0.00    +0.000 HD
ENDBRANCH  13  14
ENDBRANCH  11  13
ENDBRANCH  10  11
ENDBRANCH   9  10
ENDBRANCH   7   9
ENDBRANCH   1   7
BRANCH   4  16
ATOM     16  N   UNL     1       8.560   8.513  18.702  0.00  0.00    +0.000 NA
ATOM     17  N   UNL     1       8.239   9.599  18.176  0.00  0.00    +0.000 NA
BRANCH  17  18
ATOM     18  C   UNL     1       9.095  10.648  18.568  0.00  0.00    +0.000 A 
ATOM     19  C   UNL     1       9.915  10.457  19.685  0.00  0.00    +0.000 A 
ATOM     20  C   UNL     1      10.711  11.493  20.181  0.00  0.00    +0.000 A 
ATOM     21  C   UNL     1      10.687  12.741  19.559  0.00  0.00    +0.000 A 
ATOM     22  C   UNL     1       9.878  12.963  18.437  0.00  0.00    +0.000 A 
ATOM     23  C   UNL     1       9.087  11.908  17.950  0.00  0.00    +0.000 A 
BRANCH  21  24
ATOM     24  O   UNL     1      11.456  13.757  20.066  0.00  0.00    +0.000 OA
ATOM     25  H   UNL     1      12.378  13.631  19.770  0.00  0.00    +0.000 HD
ENDBRANCH  21  24
BRANCH  22  26
ATOM     26  C   UNL     1       9.779  14.271  17.723  0.00  0.00    +0.000 C 
ATOM     27  O   UNL     1      10.755  14.969  17.499  0.00  0.00    +0.000 OA
BRANCH  26  28
ATOM     28  O   UNL     1       8.537  14.624  17.330  0.00  0.00    +0.000 OA
ATOM     29  H   UNL     1       8.538  15.119  16.481  0.00  0.00    +0.000 HD
ENDBRANCH  26  28
ENDBRANCH  22  26
ENDBRANCH  17  18
ENDBRANCH   4  16
TORSDOF 11
ENDMDL
MODEL 7
REMARK VINA RESULT:      -7.1      6.253      8.706
REMARK  Name = 
REMARK  11 active torsions:
REMARK  status: ('A' for Active; 'I' for Inactive)
REMARK    1  A    between atoms: C_2  and  O_3
REMARK    2  A    between atoms: C_2  and  C_4
REMARK    3  A    between atoms: C_4  and  C_5
REMARK    4  A    between atoms: C_5  and  C_6
REMARK    5  A    between atoms: C_6  and  C_7
REMARK    6  A    between atoms: C_7  and  C_9
REMARK    7  A    between atoms: C_12  and  N_13
REMARK    8  A    between atoms: N_14  and  C_15
REMARK    9  A    between atoms: C_18  and  O_19
REMARK   10  A    between atoms: C_20  and  C_21
REMARK   11  A    between atoms: C_21  and  O_23
REMARK                            x       y       z     vdW  Elec       q    Type
REMARK                         _______ _______ _______ _____ _____    ______ ____
ROOT
ATOM      1  C   UNL     1       4.231   5.774  18.856  0.00  0.00    +0.000 A 
ATOM      2  C   UNL     1       3.203   5.996  19.777  0.00  0.00    +0.000 A 
ATOM      3  C   UNL     1       2.269   7.016  19.561  0.00  0.00    +0.000 A 
ATOM      4  C   UNL     1       2.332   7.828  18.425  0.00  0.00    +0.000 A 
ATOM      5  C   UNL     1       3.353   7.590  17.496  0.00  0.00    +0.000 A 
ATOM      6  C   UNL     1       4.298   6.578  17.710  0.00  0.00    +0.000 A 
ENDROOT
BRANCH   1   7
ATOM      7  C   UNL     1       5.275   4.718  19.053  0.00  0.00    +0.000 C 
ATOM      8  O   UNL     1       6.268   4.975  19.738  0.00  0.00    +0.000 OA
BRANCH   7   9
ATOM      9  C   UNL     1       5.085   3.353  18.406  0.00  0.00    +0.000 C 
BRANCH   9  10
ATOM     10  C   UNL     1       3.850   2.605  18.919  0.00  0.00    +0.000 C 
BRANCH  10  11
ATOM     11  C   UNL     1       2.740   2.452  17.875  0.00  0.00    +0.000 C 
BRANCH  11  13
ATOM     12  O   UNL     1       0.760   2.856  19.214  0.00  0.00    +0.000 OA
ATOM     13  C   UNL     1       1.465   3.162  18.265  0.00  0.00    +0.000 C 
BRANCH  13  14
ATOM     14  O   UNL     1       1.168   4.203  17.454  0.00  0.00    +0.000 OA
ATOM     15  H   UNL     1       0.222   4.443  17.443  0.00  0.00    +0.000 HD
ENDBRANCH  13  14
ENDBRANCH  11  13
ENDBRANCH  10  11
ENDBRANCH   9  10
ENDBRANCH   7   9
ENDBRANCH   1   7
BRANCH   4  16
ATOM     16  N   UNL     1       1.336   8.812  18.263  0.00  0.00    +0.000 NA
ATOM     17  N   UNL     1       1.050   9.375  19.340  0.00  0.00    +0.000 NA
BRANCH  17  18
ATOM     18  C   UNL     1      -0.043  10.254  19.202  0.00  0.00    +0.000 A 
ATOM     19  C   UNL     1      -0.418  11.030  20.304  0.00  0.00    +0.000 A 
ATOM     20  C   UNL     1      -1.552  11.845  20.260  0.00  0.00    +0.000 A 
ATOM     21  C   UNL     1      -2.329  11.884  19.102  0.00  0.00    +0.000 A 
ATOM     22  C   UNL     1      -1.980  11.120  17.982  0.00  0.00    +0.000 A 
ATOM     23  C   UNL     1      -0.833  10.309  18.044  0.00  0.00    +0.000 A 
BRANCH  21  24
ATOM     24  O   UNL     1      -3.452  12.671  19.077  0.00  0.00    +0.000 OA
ATOM     25  H   UNL     1      -3.617  13.014  19.976  0.00  0.00    +0.000 HD
ENDBRANCH  21  24
BRANCH  22  26
ATOM     26  C   UNL     1      -2.765  11.089  16.712  0.00  0.00    +0.000 C 
ATOM     27  O   UNL     1      -2.489  10.336  15.791  0.00  0.00    +0.000 OA
BRANCH  26  28
ATOM     28  O   UNL     1      -3.808  11.943  16.656  0.00  0.00    +0.000 OA
ATOM     29  H   UNL     1      -3.560  12.814  16.274  0.00  0.00    +0.000 HD
ENDBRANCH  26  28
ENDBRANCH  22  26
ENDBRANCH  17  18
ENDBRANCH   4  16
TORSDOF 11
ENDMDL
MODEL 8
REMARK VINA RESULT:      -7.1      6.460      8.515
REMARK  Name = 
REMARK  11 active torsions:
REMARK  status: ('A' for Active; 'I' for Inactive)
REMARK    1  A    between atoms: C_2  and  O_3
REMARK    2  A    between atoms: C_2  and  C_4
REMARK    3  A    between atoms: C_4  and  C_5
REMARK    4  A    between atoms: C_5  and  C_6
REMARK    5  A    between atoms: C_6  and  C_7
REMARK    6  A    between atoms: C_7  and  C_9
REMARK    7  A    between atoms: C_12  and  N_13
REMARK    8  A    between atoms: N_14  and  C_15
REMARK    9  A    between atoms: C_18  and  O_19
REMARK   10  A    between atoms: C_20  and  C_21
REMARK   11  A    between atoms: C_21  and  O_23
REMARK                            x       y       z     vdW  Elec       q    Type
REMARK                         _______ _______ _______ _____ _____    ______ ____
ROOT
ATOM      1  C   UNL     1       3.841   5.521  18.736  0.00  0.00    +0.000 A 
ATOM      2  C   UNL     1       2.958   5.845  19.770  0.00  0.00    +0.000 A 
ATOM      3  C   UNL     1       2.224   7.036  19.724  0.00  0.00    +0.000 A 
ATOM      4  C   UNL     1       2.344   7.921  18.649  0.00  0.00    +0.000 A 
ATOM      5  C   UNL     1       3.216   7.583  17.606  0.00  0.00    +0.000 A 
ATOM      6  C   UNL     1       3.963   6.399  17.650  0.00  0.00    +0.000 A 
ENDROOT
BRANCH   1   7
ATOM      7  C   UNL     1       4.674   4.276  18.749  0.00  0.00    +0.000 C 
ATOM      8  O   UNL     1       5.750   4.279  19.351  0.00  0.00    +0.000 OA
BRANCH   7   9
ATOM      9  C   UNL     1       4.173   3.036  18.021  0.00  0.00    +0.000 C 
BRANCH   9  10
ATOM     10  C   UNL     1       3.636   1.955  18.965  0.00  0.00    +0.000 C 
BRANCH  10  11
ATOM     11  C   UNL     1       2.197   2.199  19.432  0.00  0.00    +0.000 C 
BRANCH  11  13
ATOM     12  O   UNL     1       1.083   2.881  21.475  0.00  0.00    +0.000 OA
ATOM     13  C   UNL     1       2.106   2.538  20.901  0.00  0.00    +0.000 C 
BRANCH  13  14
ATOM     14  O   UNL     1       3.288   2.417  21.547  0.00  0.00    +0.000 OA
ATOM     15  H   UNL     1       3.599   1.496  21.641  0.00  0.00    +0.000 HD
ENDBRANCH  13  14
ENDBRANCH  11  13
ENDBRANCH  10  11
ENDBRANCH   9  10
ENDBRANCH   7   9
ENDBRANCH   1   7
BRANCH   4  16
ATOM     16  N   UNL     1       1.547   9.084  18.661  0.00  0.00    +0.000 NA
ATOM     17  N   UNL     1       0.915   9.211  19.730  0.00  0.00    +0.000 NA
BRANCH  17  18
ATOM     18  C   UNL     1       0.012  10.292  19.684  0.00  0.00    +0.000 A 
ATOM     19  C   UNL     1      -0.024  11.177  20.766  0.00  0.00    +0.000 A 
ATOM     20  C   UNL     1      -0.965  12.209  20.823  0.00  0.00    +0.000 A 
ATOM     21  C   UNL     1      -1.889  12.359  19.789  0.00  0.00    +0.000 A 
ATOM     22  C   UNL     1      -1.878  11.489  18.690  0.00  0.00    +0.000 A 
ATOM     23  C   UNL     1      -0.921  10.460  18.650  0.00  0.00    +0.000 A 
BRANCH  21  24
ATOM     24  O   UNL     1      -2.822  13.361  19.864  0.00  0.00    +0.000 OA
ATOM     25  H   UNL     1      -3.493  13.117  20.530  0.00  0.00    +0.000 HD
ENDBRANCH  21  24
BRANCH  22  26
ATOM     26  C   UNL     1      -2.840  11.567  17.552  0.00  0.00    +0.000 C 
ATOM     27  O   UNL     1      -2.541  11.227  16.418  0.00  0.00    +0.000 OA
BRANCH  26  28
ATOM     28  O   UNL     1      -4.069  12.028  17.863  0.00  0.00    +0.000 OA
ATOM     29  H   UNL     1      -4.783  11.407  17.596  0.00  0.00    +0.000 HD
ENDBRANCH  26  28
ENDBRANCH  22  26
ENDBRANCH  17  18
ENDBRANCH   4  16
TORSDOF 11
ENDMDL
MODEL 9
REMARK VINA RESULT:      -7.1      6.416      9.050
REMARK  Name = 
REMARK  11 active torsions:
REMARK  status: ('A' for Active; 'I' for Inactive)
REMARK    1  A    between atoms: C_2  and  O_3
REMARK    2  A    between atoms: C_2  and  C_4
REMARK    3  A    between atoms: C_4  and  C_5
REMARK    4  A    between atoms: C_5  and  C_6
REMARK    5  A    between atoms: C_6  and  C_7
REMARK    6  A    between atoms: C_7  and  C_9
REMARK    7  A    between atoms: C_12  and  N_13
REMARK    8  A    between atoms: N_14  and  C_15
REMARK    9  A    between atoms: C_18  and  O_19
REMARK   10  A    between atoms: C_20  and  C_21
REMARK   11  A    between atoms: C_21  and  O_23
REMARK                            x       y       z     vdW  Elec       q    Type
REMARK                         _______ _______ _______ _____ _____    ______ ____
ROOT
ATOM      1  C   UNL     1       3.717   5.997  18.634  0.00  0.00    +0.000 A 
ATOM      2  C   UNL     1       2.863   6.161  19.729  0.00  0.00    +0.000 A 
ATOM      3  C   UNL     1       2.050   7.296  19.826  0.00  0.00    +0.000 A 
ATOM      4  C   UNL     1       2.062   8.284  18.838  0.00  0.00    +0.000 A 
ATOM      5  C   UNL     1       2.906   8.107  17.734  0.00  0.00    +0.000 A 
ATOM      6  C   UNL     1       3.731   6.979  17.634  0.00  0.00    +0.000 A 
ENDROOT
BRANCH   1   7
ATOM      7  C   UNL     1       4.631   4.819  18.495  0.00  0.00    +0.000 C 
ATOM      8  O   UNL     1       5.604   4.720  19.246  0.00  0.00    +0.000 OA
BRANCH   7   9
ATOM      9  C   UNL     1       4.336   3.768  17.433  0.00  0.00    +0.000 C 
BRANCH   9  10
ATOM     10  C   UNL     1       4.764   4.194  16.024  0.00  0.00    +0.000 C 
BRANCH  10  11
ATOM     11  C   UNL     1       6.178   3.745  15.643  0.00  0.00    +0.000 C 
BRANCH  11  13
ATOM     12  O   UNL     1       7.451   5.808  15.701  0.00  0.00    +0.000 OA
ATOM     13  C   UNL     1       7.248   4.687  16.144  0.00  0.00    +0.000 C 
BRANCH  13  14
ATOM     14  O   UNL     1       7.975   4.171  17.159  0.00  0.00    +0.000 OA
ATOM     15  H   UNL     1       8.878   4.536  17.230  0.00  0.00    +0.000 HD
ENDBRANCH  13  14
ENDBRANCH  11  13
ENDBRANCH  10  11
ENDBRANCH   9  10
ENDBRANCH   7   9
ENDBRANCH   1   7
BRANCH   4  16
ATOM     16  N   UNL     1       1.190   9.381  18.992  0.00  0.00    +0.000 NA
ATOM     17  N   UNL     1       0.668   9.411  20.126  0.00  0.00    +0.000 NA
BRANCH  17  18
ATOM     18  C   UNL     1      -0.309  10.422  20.229  0.00  0.00    +0.000 A 
ATOM     19  C   UNL     1      -0.991  10.810  19.071  0.00  0.00    +0.000 A 
ATOM     20  C   UNL     1      -1.899  11.873  19.091  0.00  0.00    +0.000 A 
ATOM     21  C   UNL     1      -2.126  12.565  20.281  0.00  0.00    +0.000 A 
ATOM     22  C   UNL     1      -1.459  12.199  21.457  0.00  0.00    +0.000 A 
ATOM     23  C   UNL     1      -0.553  11.125  21.418  0.00  0.00    +0.000 A 
BRANCH  21  24
ATOM     24  O   UNL     1      -3.002  13.619  20.285  0.00  0.00    +0.000 OA
ATOM     25  H   UNL     1      -3.879  13.300  20.575  0.00  0.00    +0.000 HD
ENDBRANCH  21  24
BRANCH  22  26
ATOM     26  C   UNL     1      -1.630  12.896  22.767  0.00  0.00    +0.000 C 
ATOM     27  O   UNL     1      -2.725  13.057  23.283  0.00  0.00    +0.000 OA
BRANCH  26  28
ATOM     28  O   UNL     1      -0.491  13.326  23.347  0.00  0.00    +0.000 OA
ATOM     29  H   UNL     1      -0.288  12.844  24.179  0.00  0.00    +0.000 HD
ENDBRANCH  26  28
ENDBRANCH  22  26
ENDBRANCH  17  18
ENDBRANCH   4  16
TORSDOF 11
ENDMDL
