MODEL 1
REMARK VINA RESULT:      -7.3      0.000      0.000
REMARK  Name = 
REMARK  5 active torsions:
REMARK  status: ('A' for Active; 'I' for Inactive)
REMARK    1  A    between atoms: P_2  and  C_3
REMARK    2  A    between atoms: P_2  and  C_9
REMARK    3  A    between atoms: P_2  and  C_15
REMARK    4  A    between atoms: C_15  and  O_16
REMARK    5  A    between atoms: C_15  and  C_17
REMARK                            x       y       z     vdW  Elec       q    Type
REMARK                         _______ _______ _______ _____ _____    ______ ____
ROOT
ATOM      1  O   UNL     1       6.355   5.709  18.940  0.00  0.00    +0.000 OA
ATOM      2  P   UNL     1       5.215   4.686  18.708  0.00  0.00    +0.000 P 
ENDROOT
BRANCH   2   3
ATOM      3  C   UNL     1       3.876   6.109  18.789  0.00  0.00    +0.000 A 
ATOM      4  C   UNL     1       3.022   6.335  19.872  0.00  0.00    +0.000 A 
ATOM      5  C   UNL     1       2.107   7.394  19.825  0.00  0.00    +0.000 A 
ATOM      6  C   UNL     1       2.067   8.249  18.722  0.00  0.00    +0.000 A 
ATOM      7  C   UNL     1       2.909   8.022  17.636  0.00  0.00    +0.000 A 
ATOM      8  C   UNL     1       3.783   6.935  17.649  0.00  0.00    +0.000 A 
ENDBRANCH   2   3
BRANCH   2   9
ATOM      9  C   UNL     1       5.860   4.444  16.850  0.00  0.00    +0.000 A 
ATOM     10  C   UNL     1       7.139   4.892  16.478  0.00  0.00    +0.000 A 
ATOM     11  C   UNL     1       7.514   4.917  15.131  0.00  0.00    +0.000 A 
ATOM     12  C   UNL     1       6.609   4.538  14.141  0.00  0.00    +0.000 A 
ATOM     13  C   UNL     1       5.317   4.152  14.492  0.00  0.00    +0.000 A 
ATOM     14  C   UNL     1       4.938   4.120  15.836  0.00  0.00    +0.000 A 
ENDBRANCH   2   9
BRANCH   2  15
ATOM     15  C   UNL     1       3.868   3.478  18.433  0.00  0.00    +0.000 C 
BRANCH  15  16
ATOM     16  C   UNL     1       2.680   3.325  19.357  0.00  0.00    +0.000 A 
ATOM     17  C   UNL     1       1.342   3.359  18.998  0.00  0.00    +0.000 A 
ATOM     18  C   UNL     1       0.472   3.000  20.064  0.00  0.00    +0.000 A 
ATOM     19  C   UNL     1       1.168   2.669  21.202  0.00  0.00    +0.000 A 
ATOM     20  S   UNL     1       2.855   2.882  21.010  0.00  0.00    +0.000 S 
ENDBRANCH  15  16
BRANCH  15  21
ATOM     21  O   UNL     1       4.506   2.181  18.371  0.00  0.00    +0.000 OA
ATOM     22  H   UNL     1       4.640   1.972  17.429  0.00  0.00    +0.000 HD
ENDBRANCH  15  21
ENDBRANCH   2  15
TORSDOF 5
ENDMDL
MODEL 2
REMARK VINA RESULT:      -7.2      1.993      4.168
REMARK  Name = 
REMARK  5 active torsions:
REMARK  status: ('A' for Active; 'I' for Inactive)
REMARK    1  A    between atoms: P_2  and  C_3
REMARK    2  A    between atoms: P_2  and  C_9
REMARK    3  A    between atoms: P_2  and  C_15
REMARK    4  A    between atoms: C_15  and  O_16
REMARK    5  A    between atoms: C_15  and  C_17
REMARK                            x       y       z     vdW  Elec       q    Type
REMARK                         _______ _______ _______ _____ _____    ______ ____
ROOT
ATOM      1  O   UNL     1       2.467   3.513  16.766  0.00  0.00    +0.000 OA
ATOM      2  P   UNL     1       2.885   4.762  17.582  0.00  0.00    +0.000 P 
ENDROOT
BRANCH   2   3
ATOM      3  C   UNL     1       2.486   3.841  19.260  0.00  0.00    +0.000 A 
ATOM      4  C   UNL     1       3.448   3.386  20.165  0.00  0.00    +0.000 A 
ATOM      5  C   UNL     1       3.046   2.748  21.344  0.00  0.00    +0.000 A 
ATOM      6  C   UNL     1       1.691   2.596  21.643  0.00  0.00    +0.000 A 
ATOM      7  C   UNL     1       0.727   3.038  20.739  0.00  0.00    +0.000 A 
ATOM      8  C   UNL     1       1.119   3.622  19.534  0.00  0.00    +0.000 A 
ENDBRANCH   2   3
BRANCH   2   9
ATOM      9  C   UNL     1       4.764   4.440  17.042  0.00  0.00    +0.000 A 
ATOM     10  C   UNL     1       5.807   4.608  17.968  0.00  0.00    +0.000 A 
ATOM     11  C   UNL     1       7.139   4.591  17.542  0.00  0.00    +0.000 A 
ATOM     12  C   UNL     1       7.444   4.451  16.189  0.00  0.00    +0.000 A 
ATOM     13  C   UNL     1       6.417   4.346  15.254  0.00  0.00    +0.000 A 
ATOM     14  C   UNL     1       5.084   4.357  15.674  0.00  0.00    +0.000 A 
ENDBRANCH   2   9
BRANCH   2  15
ATOM     15  C   UNL     1       3.378   6.237  18.546  0.00  0.00    +0.000 C 
BRANCH  15  16
ATOM     16  C   UNL     1       2.396   7.133  19.267  0.00  0.00    +0.000 A 
ATOM     17  C   UNL     1       1.952   6.995  20.573  0.00  0.00    +0.000 A 
ATOM     18  C   UNL     1       1.176   8.101  21.015  0.00  0.00    +0.000 A 
ATOM     19  C   UNL     1       1.072   9.072  20.046  0.00  0.00    +0.000 A 
ATOM     20  S   UNL     1       1.827   8.606  18.584  0.00  0.00    +0.000 S 
ENDBRANCH  15  16
BRANCH  15  21
ATOM     21  O   UNL     1       4.105   7.085  17.627  0.00  0.00    +0.000 OA
ATOM     22  H   UNL     1       5.049   7.018  17.861  0.00  0.00    +0.000 HD
ENDBRANCH  15  21
ENDBRANCH   2  15
TORSDOF 5
ENDMDL
MODEL 3
REMARK VINA RESULT:      -7.1      0.717      1.408
REMARK  Name = 
REMARK  5 active torsions:
REMARK  status: ('A' for Active; 'I' for Inactive)
REMARK    1  A    between atoms: P_2  and  C_3
REMARK    2  A    between atoms: P_2  and  C_9
REMARK    3  A    between atoms: P_2  and  C_15
REMARK    4  A    between atoms: C_15  and  O_16
REMARK    5  A    between atoms: C_15  and  C_17
REMARK                            x       y       z     vdW  Elec       q    Type
REMARK                         _______ _______ _______ _____ _____    ______ ____
ROOT
ATOM      1  O   UNL     1       6.345   5.738  18.866  0.00  0.00    +0.000 OA
ATOM      2  P   UNL     1       5.198   4.727  18.623  0.00  0.00    +0.000 P 
ENDROOT
BRANCH   2   3
ATOM      3  C   UNL     1       3.873   6.163  18.685  0.00  0.00    +0.000 A 
ATOM      4  C   UNL     1       3.657   7.091  17.663  0.00  0.00    +0.000 A 
ATOM      5  C   UNL     1       2.671   8.072  17.812  0.00  0.00    +0.000 A 
ATOM      6  C   UNL     1       1.874   8.109  18.957  0.00  0.00    +0.000 A 
ATOM      7  C   UNL     1       2.090   7.194  19.984  0.00  0.00    +0.000 A 
ATOM      8  C   UNL     1       3.111   6.249  19.870  0.00  0.00    +0.000 A 
ENDBRANCH   2   3
BRANCH   2   9
ATOM      9  C   UNL     1       5.861   4.473  16.773  0.00  0.00    +0.000 A 
ATOM     10  C   UNL     1       7.179   4.824  16.437  0.00  0.00    +0.000 A 
ATOM     11  C   UNL     1       7.584   4.847  15.099  0.00  0.00    +0.000 A 
ATOM     12  C   UNL     1       6.673   4.564  14.082  0.00  0.00    +0.000 A 
ATOM     13  C   UNL     1       5.348   4.275  14.399  0.00  0.00    +0.000 A 
ATOM     14  C   UNL     1       4.938   4.245  15.734  0.00  0.00    +0.000 A 
ENDBRANCH   2   9
BRANCH   2  15
ATOM     15  C   UNL     1       3.842   3.532  18.336  0.00  0.00    +0.000 C 
BRANCH  15  16
ATOM     16  C   UNL     1       2.840   3.132  19.397  0.00  0.00    +0.000 A 
ATOM     17  C   UNL     1       3.114   2.806  20.716  0.00  0.00    +0.000 A 
ATOM     18  C   UNL     1       1.943   2.656  21.506  0.00  0.00    +0.000 A 
ATOM     19  C   UNL     1       0.801   2.903  20.780  0.00  0.00    +0.000 A 
ATOM     20  S   UNL     1       1.142   3.221  19.134  0.00  0.00    +0.000 S 
ENDBRANCH  15  16
BRANCH  15  21
ATOM     21  O   UNL     1       4.477   2.310  17.894  0.00  0.00    +0.000 OA
ATOM     22  H   UNL     1       3.788   1.765  17.472  0.00  0.00    +0.000 HD
ENDBRANCH  15  21
ENDBRANCH   2  15
TORSDOF 5
ENDMDL
MODEL 4
REMARK VINA RESULT:      -7.1      1.970      5.460
REMARK  Name = 
REMARK  5 active torsions:
REMARK  status: ('A' for Active; 'I' for Inactive)
REMARK    1  A    between atoms: P_2  and  C_3
REMARK    2  A    between atoms: P_2  and  C_9
REMARK    3  A    between atoms: P_2  and  C_15
REMARK    4  A    between atoms: C_15  and  O_16
REMARK    5  A    between atoms: C_15  and  C_17
REMARK                            x       y       z     vdW  Elec       q    Type
REMARK                         _______ _______ _______ _____ _____    ______ ____
ROOT
ATOM      1  O   UNL     1       5.279   4.999  19.925  0.00  0.00    +0.000 OA
ATOM      2  P   UNL     1       4.251   5.784  19.074  0.00  0.00    +0.000 P 
ENDROOT
BRANCH   2   3
ATOM      3  C   UNL     1       5.264   5.411  17.444  0.00  0.00    +0.000 A 
ATOM      4  C   UNL     1       4.882   5.812  16.161  0.00  0.00    +0.000 A 
ATOM      5  C   UNL     1       5.693   5.498  15.064  0.00  0.00    +0.000 A 
ATOM      6  C   UNL     1       6.900   4.821  15.245  0.00  0.00    +0.000 A 
ATOM      7  C   UNL     1       7.282   4.410  16.520  0.00  0.00    +0.000 A 
ATOM      8  C   UNL     1       6.451   4.667  17.611  0.00  0.00    +0.000 A 
ENDBRANCH   2   3
BRANCH   2   9
ATOM      9  C   UNL     1       2.927   4.349  19.414  0.00  0.00    +0.000 A 
ATOM     10  C   UNL     1       2.098   4.402  20.546  0.00  0.00    +0.000 A 
ATOM     11  C   UNL     1       1.318   3.297  20.903  0.00  0.00    +0.000 A 
ATOM     12  C   UNL     1       1.389   2.118  20.163  0.00  0.00    +0.000 A 
ATOM     13  C   UNL     1       2.254   2.032  19.075  0.00  0.00    +0.000 A 
ATOM     14  C   UNL     1       3.032   3.134  18.711  0.00  0.00    +0.000 A 
ENDBRANCH   2   9
BRANCH   2  15
ATOM     15  C   UNL     1       3.036   6.713  18.068  0.00  0.00    +0.000 C 
BRANCH  15  16
ATOM     16  C   UNL     1       2.337   7.966  18.546  0.00  0.00    +0.000 A 
ATOM     17  C   UNL     1       1.970   9.057  17.775  0.00  0.00    +0.000 A 
ATOM     18  C   UNL     1       1.166   9.992  18.481  0.00  0.00    +0.000 A 
ATOM     19  C   UNL     1       0.909   9.577  19.767  0.00  0.00    +0.000 A 
ATOM     20  S   UNL     1       1.714   8.115  20.144  0.00  0.00    +0.000 S 
ENDBRANCH  15  16
BRANCH  15  21
ATOM     21  O   UNL     1       1.995   5.767  17.733  0.00  0.00    +0.000 OA
ATOM     22  H   UNL     1       1.919   5.146  18.481  0.00  0.00    +0.000 HD
ENDBRANCH  15  21
ENDBRANCH   2  15
TORSDOF 5
ENDMDL
MODEL 5
REMARK VINA RESULT:      -7.0      2.025      4.221
REMARK  Name = 
REMARK  5 active torsions:
REMARK  status: ('A' for Active; 'I' for Inactive)
REMARK    1  A    between atoms: P_2  and  C_3
REMARK    2  A    between atoms: P_2  and  C_9
REMARK    3  A    between atoms: P_2  and  C_15
REMARK    4  A    between atoms: C_15  and  O_16
REMARK    5  A    between atoms: C_15  and  C_17
REMARK                            x       y       z     vdW  Elec       q    Type
REMARK                         _______ _______ _______ _____ _____    ______ ____
ROOT
ATOM      1  O   UNL     1       2.431   3.512  16.807  0.00  0.00    +0.000 OA
ATOM      2  P   UNL     1       2.865   4.778  17.586  0.00  0.00    +0.000 P 
ENDROOT
BRANCH   2   3
ATOM      3  C   UNL     1       2.471   3.906  19.291  0.00  0.00    +0.000 A 
ATOM      4  C   UNL     1       1.213   3.879  19.899  0.00  0.00    +0.000 A 
ATOM      5  C   UNL     1       1.045   3.213  21.118  0.00  0.00    +0.000 A 
ATOM      6  C   UNL     1       2.114   2.542  21.714  0.00  0.00    +0.000 A 
ATOM      7  C   UNL     1       3.373   2.575  21.119  0.00  0.00    +0.000 A 
ATOM      8  C   UNL     1       3.564   3.286  19.934  0.00  0.00    +0.000 A 
ENDBRANCH   2   3
BRANCH   2   9
ATOM      9  C   UNL     1       4.738   4.428  17.042  0.00  0.00    +0.000 A 
ATOM     10  C   UNL     1       5.789   4.609  17.956  0.00  0.00    +0.000 A 
ATOM     11  C   UNL     1       7.117   4.570  17.522  0.00  0.00    +0.000 A 
ATOM     12  C   UNL     1       7.411   4.395  16.171  0.00  0.00    +0.000 A 
ATOM     13  C   UNL     1       6.377   4.276  15.245  0.00  0.00    +0.000 A 
ATOM     14  C   UNL     1       5.048   4.309  15.674  0.00  0.00    +0.000 A 
ENDBRANCH   2   9
BRANCH   2  15
ATOM     15  C   UNL     1       3.377   6.275  18.506  0.00  0.00    +0.000 C 
BRANCH  15  16
ATOM     16  C   UNL     1       2.402   7.273  19.091  0.00  0.00    +0.000 A 
ATOM     17  C   UNL     1       1.957   7.326  20.403  0.00  0.00    +0.000 A 
ATOM     18  C   UNL     1       1.190   8.490  20.682  0.00  0.00    +0.000 A 
ATOM     19  C   UNL     1       1.094   9.314  19.585  0.00  0.00    +0.000 A 
ATOM     20  S   UNL     1       1.846   8.639  18.205  0.00  0.00    +0.000 S 
ENDBRANCH  15  16
BRANCH  15  21
ATOM     21  O   UNL     1       4.232   7.019  17.608  0.00  0.00    +0.000 OA
ATOM     22  H   UNL     1       4.962   7.383  18.142  0.00  0.00    +0.000 HD
ENDBRANCH  15  21
ENDBRANCH   2  15
TORSDOF 5
ENDMDL
MODEL 6
REMARK VINA RESULT:      -7.0      0.421      1.135
REMARK  Name = 
REMARK  5 active torsions:
REMARK  status: ('A' for Active; 'I' for Inactive)
REMARK    1  A    between atoms: P_2  and  C_3
REMARK    2  A    between atoms: P_2  and  C_9
REMARK    3  A    between atoms: P_2  and  C_15
REMARK    4  A    between atoms: C_15  and  O_16
REMARK    5  A    between atoms: C_15  and  C_17
REMARK                            x       y       z     vdW  Elec       q    Type
REMARK                         _______ _______ _______ _____ _____    ______ ____
ROOT
ATOM      1  O   UNL     1       6.304   5.953  18.584  0.00  0.00    +0.000 OA
ATOM      2  P   UNL     1       5.188   4.917  18.302  0.00  0.00    +0.000 P 
ENDROOT
BRANCH   2   3
ATOM      3  C   UNL     1       3.809   6.271  18.599  0.00  0.00    +0.000 A 
ATOM      4  C   UNL     1       3.044   6.385  19.763  0.00  0.00    +0.000 A 
ATOM      5  C   UNL     1       2.090   7.403  19.871  0.00  0.00    +0.000 A 
ATOM      6  C   UNL     1       1.923   8.331  18.841  0.00  0.00    +0.000 A 
ATOM      7  C   UNL     1       2.675   8.217  17.674  0.00  0.00    +0.000 A 
ATOM      8  C   UNL     1       3.586   7.170  17.534  0.00  0.00    +0.000 A 
ENDBRANCH   2   3
BRANCH   2   9
ATOM      9  C   UNL     1       5.740   4.893  16.399  0.00  0.00    +0.000 A 
ATOM     10  C   UNL     1       4.878   4.381  15.416  0.00  0.00    +0.000 A 
ATOM     11  C   UNL     1       5.341   4.166  14.113  0.00  0.00    +0.000 A 
ATOM     12  C   UNL     1       6.673   4.419  13.789  0.00  0.00    +0.000 A 
ATOM     13  C   UNL     1       7.553   4.868  14.771  0.00  0.00    +0.000 A 
ATOM     14  C   UNL     1       7.096   5.089  16.072  0.00  0.00    +0.000 A 
ENDBRANCH   2   9
BRANCH   2  15
ATOM     15  C   UNL     1       3.869   3.693  17.969  0.00  0.00    +0.000 C 
BRANCH  15  16
ATOM     16  C   UNL     1       2.729   3.410  18.922  0.00  0.00    +0.000 A 
ATOM     17  C   UNL     1       1.377   3.396  18.618  0.00  0.00    +0.000 A 
ATOM     18  C   UNL     1       0.572   2.915  19.686  0.00  0.00    +0.000 A 
ATOM     19  C   UNL     1       1.331   2.543  20.771  0.00  0.00    +0.000 A 
ATOM     20  S   UNL     1       2.995   2.862  20.532  0.00  0.00    +0.000 S 
ENDBRANCH  15  16
BRANCH  15  21
ATOM     21  O   UNL     1       4.544   2.432  17.754  0.00  0.00    +0.000 OA
ATOM     22  H   UNL     1       5.014   2.214  18.580  0.00  0.00    +0.000 HD
ENDBRANCH  15  21
ENDBRANCH   2  15
TORSDOF 5
ENDMDL
MODEL 7
REMARK VINA RESULT:      -7.0      1.985      5.393
REMARK  Name = 
REMARK  5 active torsions:
REMARK  status: ('A' for Active; 'I' for Inactive)
REMARK    1  A    between atoms: P_2  and  C_3
REMARK    2  A    between atoms: P_2  and  C_9
REMARK    3  A    between atoms: P_2  and  C_15
REMARK    4  A    between atoms: C_15  and  O_16
REMARK    5  A    between atoms: C_15  and  C_17
REMARK                            x       y       z     vdW  Elec       q    Type
REMARK                         _______ _______ _______ _____ _____    ______ ____
ROOT
ATOM      1  O   UNL     1       5.334   5.042  19.937  0.00  0.00    +0.000 OA
ATOM      2  P   UNL     1       4.294   5.807  19.081  0.00  0.00    +0.000 P 
ENDROOT
BRANCH   2   3
ATOM      3  C   UNL     1       5.295   5.411  17.449  0.00  0.00    +0.000 A 
ATOM      4  C   UNL     1       6.374   4.526  17.373  0.00  0.00    +0.000 A 
ATOM      5  C   UNL     1       7.011   4.310  16.145  0.00  0.00    +0.000 A 
ATOM      6  C   UNL     1       6.553   4.942  14.988  0.00  0.00    +0.000 A 
ATOM      7  C   UNL     1       5.485   5.833  15.059  0.00  0.00    +0.000 A 
ATOM      8  C   UNL     1       4.882   6.099  16.288  0.00  0.00    +0.000 A 
ENDBRANCH   2   3
BRANCH   2   9
ATOM      9  C   UNL     1       2.981   4.371  19.457  0.00  0.00    +0.000 A 
ATOM     10  C   UNL     1       2.179   4.426  20.609  0.00  0.00    +0.000 A 
ATOM     11  C   UNL     1       1.410   3.321  20.988  0.00  0.00    +0.000 A 
ATOM     12  C   UNL     1       1.464   2.140  20.249  0.00  0.00    +0.000 A 
ATOM     13  C   UNL     1       2.303   2.052  19.140  0.00  0.00    +0.000 A 
ATOM     14  C   UNL     1       3.070   3.154  18.755  0.00  0.00    +0.000 A 
ENDBRANCH   2   9
BRANCH   2  15
ATOM     15  C   UNL     1       3.066   6.712  18.070  0.00  0.00    +0.000 C 
BRANCH  15  16
ATOM     16  C   UNL     1       2.357   7.964  18.536  0.00  0.00    +0.000 A 
ATOM     17  C   UNL     1       2.002   9.054  17.758  0.00  0.00    +0.000 A 
ATOM     18  C   UNL     1       1.184   9.988  18.451  0.00  0.00    +0.000 A 
ATOM     19  C   UNL     1       0.907   9.572  19.732  0.00  0.00    +0.000 A 
ATOM     20  S   UNL     1       1.707   8.112  20.123  0.00  0.00    +0.000 S 
ENDBRANCH  15  16
BRANCH  15  21
ATOM     21  O   UNL     1       2.032   5.752  17.750  0.00  0.00    +0.000 OA
ATOM     22  H   UNL     1       2.468   4.992  17.324  0.00  0.00    +0.000 HD
ENDBRANCH  15  21
ENDBRANCH   2  15
TORSDOF 5
ENDMDL
MODEL 8
REMARK VINA RESULT:      -7.0      2.250      5.437
REMARK  Name = 
REMARK  5 active torsions:
REMARK  status: ('A' for Active; 'I' for Inactive)
REMARK    1  A    between atoms: P_2  and  C_3
REMARK    2  A    between atoms: P_2  and  C_9
REMARK    3  A    between atoms: P_2  and  C_15
REMARK    4  A    between atoms: C_15  and  O_16
REMARK    5  A    between atoms: C_15  and  C_17
REMARK                            x       y       z     vdW  Elec       q    Type
REMARK                         _______ _______ _______ _____ _____    ______ ____
ROOT
ATOM      1  O   UNL     1       5.337   4.986  19.784  0.00  0.00    +0.000 OA
ATOM      2  P   UNL     1       4.218   5.787  19.072  0.00  0.00    +0.000 P 
ENDROOT
BRANCH   2   3
ATOM      3  C   UNL     1       4.944   5.310  17.321  0.00  0.00    +0.000 A 
ATOM      4  C   UNL     1       5.411   4.039  16.973  0.00  0.00    +0.000 A 
ATOM      5  C   UNL     1       5.900   3.808  15.682  0.00  0.00    +0.000 A 
ATOM      6  C   UNL     1       5.890   4.826  14.727  0.00  0.00    +0.000 A 
ATOM      7  C   UNL     1       5.436   6.097  15.070  0.00  0.00    +0.000 A 
ATOM      8  C   UNL     1       5.002   6.352  16.371  0.00  0.00    +0.000 A 
ENDBRANCH   2   3
BRANCH   2   9
ATOM      9  C   UNL     1       2.910   4.427  19.677  0.00  0.00    +0.000 A 
ATOM     10  C   UNL     1       2.342   4.509  20.959  0.00  0.00    +0.000 A 
ATOM     11  C   UNL     1       1.588   3.446  21.467  0.00  0.00    +0.000 A 
ATOM     12  C   UNL     1       1.429   2.277  20.723  0.00  0.00    +0.000 A 
ATOM     13  C   UNL     1       2.040   2.159  19.476  0.00  0.00    +0.000 A 
ATOM     14  C   UNL     1       2.789   3.220  18.962  0.00  0.00    +0.000 A 
ENDBRANCH   2   9
BRANCH   2  15
ATOM     15  C   UNL     1       2.897   6.733  18.231  0.00  0.00    +0.000 C 
BRANCH  15  16
ATOM     16  C   UNL     1       2.076   7.808  18.909  0.00  0.00    +0.000 A 
ATOM     17  C   UNL     1       1.756   7.882  20.255  0.00  0.00    +0.000 A 
ATOM     18  C   UNL     1       1.131   9.108  20.611  0.00  0.00    +0.000 A 
ATOM     19  C   UNL     1       1.018   9.956  19.534  0.00  0.00    +0.000 A 
ATOM     20  S   UNL     1       1.578   9.236  18.087  0.00  0.00    +0.000 S 
ENDBRANCH  15  16
BRANCH  15  21
ATOM     21  O   UNL     1       1.956   5.749  17.742  0.00  0.00    +0.000 OA
ATOM     22  H   UNL     1       2.239   5.504  16.842  0.00  0.00    +0.000 HD
ENDBRANCH  15  21
ENDBRANCH   2  15
TORSDOF 5
ENDMDL
MODEL 9
REMARK VINA RESULT:      -6.9      1.871      5.396
REMARK  Name = 
REMARK  5 active torsions:
REMARK  status: ('A' for Active; 'I' for Inactive)
REMARK    1  A    between atoms: P_2  and  C_3
REMARK    2  A    between atoms: P_2  and  C_9
REMARK    3  A    between atoms: P_2  and  C_15
REMARK    4  A    between atoms: C_15  and  O_16
REMARK    5  A    between atoms: C_15  and  C_17
REMARK                            x       y       z     vdW  Elec       q    Type
REMARK                         _______ _______ _______ _____ _____    ______ ____
ROOT
ATOM      1  O   UNL     1       5.624   5.047  19.854  0.00  0.00    +0.000 OA
ATOM      2  P   UNL     1       4.474   5.703  19.050  0.00  0.00    +0.000 P 
ENDROOT
BRANCH   2   3
ATOM      3  C   UNL     1       5.398   5.339  17.366  0.00  0.00    +0.000 A 
ATOM      4  C   UNL     1       4.922   5.703  16.103  0.00  0.00    +0.000 A 
ATOM      5  C   UNL     1       5.675   5.400  14.963  0.00  0.00    +0.000 A 
ATOM      6  C   UNL     1       6.916   4.771  15.078  0.00  0.00    +0.000 A 
ATOM      7  C   UNL     1       7.391   4.396  16.333  0.00  0.00    +0.000 A 
ATOM      8  C   UNL     1       6.620   4.641  17.470  0.00  0.00    +0.000 A 
ENDBRANCH   2   3
BRANCH   2   9
ATOM      9  C   UNL     1       3.307   4.180  19.546  0.00  0.00    +0.000 A 
ATOM     10  C   UNL     1       3.199   3.064  18.701  0.00  0.00    +0.000 A 
ATOM     11  C   UNL     1       2.224   2.090  18.939  0.00  0.00    +0.000 A 
ATOM     12  C   UNL     1       1.322   2.239  19.991  0.00  0.00    +0.000 A 
ATOM     13  C   UNL     1       1.379   3.373  20.799  0.00  0.00    +0.000 A 
ATOM     14  C   UNL     1       2.354   4.347  20.569  0.00  0.00    +0.000 A 
ENDBRANCH   2   9
BRANCH   2  15
ATOM     15  C   UNL     1       3.115   6.478  18.100  0.00  0.00    +0.000 C 
BRANCH  15  16
ATOM     16  C   UNL     1       2.436   7.766  18.510  0.00  0.00    +0.000 A 
ATOM     17  C   UNL     1       2.143   8.846  17.692  0.00  0.00    +0.000 A 
ATOM     18  C   UNL     1       1.337   9.825  18.333  0.00  0.00    +0.000 A 
ATOM     19  C   UNL     1       1.007   9.456  19.616  0.00  0.00    +0.000 A 
ATOM     20  S   UNL     1       1.744   7.981  20.071  0.00  0.00    +0.000 S 
ENDBRANCH  15  16
BRANCH  15  21
ATOM     21  O   UNL     1       2.074   5.478  18.011  0.00  0.00    +0.000 OA
ATOM     22  H   UNL     1       1.855   5.376  17.067  0.00  0.00    +0.000 HD
ENDBRANCH  15  21
ENDBRANCH   2  15
TORSDOF 5
ENDMDL
