MODEL 1
REMARK VINA RESULT:      -9.0      0.000      0.000
REMARK  Name = 
REMARK  12 active torsions:
REMARK  status: ('A' for Active; 'I' for Inactive)
REMARK    1  A    between atoms: C_1  and  C_2
REMARK    2  A    between atoms: C_2  and  C_3
REMARK    3  A    between atoms: C_3  and  N_4
REMARK    4  A    between atoms: C_6  and  C_7
REMARK    5  A    between atoms: C_7  and  C_8
REMARK    6  A    between atoms: C_11  and  C_12
REMARK    7  A    between atoms: C_17  and  C_18
REMARK    8  A    between atoms: C_25  and  C_26
REMARK    9  A    between atoms: C_26  and  O_28
REMARK   10  A    between atoms: C_29  and  C_30
REMARK   11  A    between atoms: C_30  and  C_31
REMARK   12  A    between atoms: C_30  and  C_32
REMARK                            x       y       z     vdW  Elec       q    Type
REMARK                         _______ _______ _______ _____ _____    ______ ____
ROOT
ATOM      1  C   UNL     1       2.567   8.022  18.419  0.00  0.00    +0.000 A 
ATOM      2  C   UNL     1       2.228   7.609  19.712  0.00  0.00    +0.000 A 
ATOM      3  C   UNL     1       1.328   8.357  20.494  0.00  0.00    +0.000 A 
ATOM      4  C   UNL     1       0.742   9.552  20.028  0.00  0.00    +0.000 A 
ATOM      5  C   UNL     1       1.143   9.976  18.753  0.00  0.00    +0.000 A 
ATOM      6  C   UNL     1       2.014   9.221  17.960  0.00  0.00    +0.000 A 
ENDROOT
BRANCH   4   7
ATOM      7  C   UNL     1      -0.214  10.344  20.866  0.00  0.00    +0.000 A 
ATOM      8  C   UNL     1      -0.144  10.216  22.274  0.00  0.00    +0.000 A 
ATOM      9  C   UNL     1      -0.974  10.939  23.137  0.00  0.00    +0.000 A 
ATOM     10  C   UNL     1      -1.894  11.839  22.625  0.00  0.00    +0.000 A 
ATOM     11  C   UNL     1      -1.990  12.004  21.249  0.00  0.00    +0.000 A 
ATOM     12  C   UNL     1      -1.179  11.260  20.363  0.00  0.00    +0.000 A 
BRANCH  12  13
ATOM     13  C   UNL     1      -1.403  11.509  18.945  0.00  0.00    +0.000 A 
ATOM     14  N   UNL     1      -2.168  10.660  18.169  0.00  0.00    +0.000 NA
ATOM     15  N   UNL     1      -2.218  11.190  16.952  0.00  0.00    +0.000 NA
ATOM     16  N   UNL     1      -1.486  12.305  17.048  0.00  0.00    +0.000 N 
ATOM     17  N   UNL     1      -0.910  12.535  18.239  0.00  0.00    +0.000 NA
ATOM     18  H   UNL     1      -1.386  12.946  16.266  0.00  0.00    +0.000 HD
ENDBRANCH  12  13
ENDBRANCH   4   7
BRANCH   1  19
ATOM     19  C   UNL     1       3.576   7.278  17.577  0.00  0.00    +0.000 C 
BRANCH  19  22
ATOM     20  N   UNL     1       2.426   3.959  18.186  0.00  0.00    +0.000 N 
ATOM     21  N   UNL     1       2.237   5.236  17.792  0.00  0.00    +0.000 NA
ATOM     22  C   UNL     1       3.451   5.800  17.812  0.00  0.00    +0.000 A 
ATOM     23  C   UNL     1       4.428   4.881  18.288  0.00  0.00    +0.000 A 
ATOM     24  C   UNL     1       3.736   3.689  18.521  0.00  0.00    +0.000 A 
BRANCH  24  25
ATOM     25  C   UNL     1       4.317   2.406  19.088  0.00  0.00    +0.000 C 
ATOM     26  C   UNL     1       4.176   2.354  20.609  0.00  0.00    +0.000 C 
ATOM     27  C   UNL     1       3.866   1.103  18.443  0.00  0.00    +0.000 C 
ENDBRANCH  24  25
BRANCH  23  28
ATOM     28  C   UNL     1       5.831   5.078  18.581  0.00  0.00    +0.000 C 
ATOM     29  O   UNL     1       6.323   5.222  19.690  0.00  0.00    +0.000 OA
BRANCH  28  30
ATOM     30  O   UNL     1       6.654   5.035  17.515  0.00  0.00    +0.000 OA
ATOM     31  H   UNL     1       6.387   5.839  17.022  0.00  0.00    +0.000 HD
ENDBRANCH  28  30
ENDBRANCH  23  28
BRANCH  20  32
ATOM     32  C   UNL     1       1.254   3.112  18.338  0.00  0.00    +0.000 C 
BRANCH  32  34
ATOM     33  C   UNL     1       0.965   4.139  20.653  0.00  0.00    +0.000 C 
ATOM     34  C   UNL     1       0.702   2.934  19.759  0.00  0.00    +0.000 C 
ENDBRANCH  32  34
ENDBRANCH  20  32
ENDBRANCH  19  22
ENDBRANCH   1  19
TORSDOF 9
ENDMDL
MODEL 2
REMARK VINA RESULT:      -8.5      3.003      8.561
REMARK  Name = 
REMARK  12 active torsions:
REMARK  status: ('A' for Active; 'I' for Inactive)
REMARK    1  A    between atoms: C_1  and  C_2
REMARK    2  A    between atoms: C_2  and  C_3
REMARK    3  A    between atoms: C_3  and  N_4
REMARK    4  A    between atoms: C_6  and  C_7
REMARK    5  A    between atoms: C_7  and  C_8
REMARK    6  A    between atoms: C_11  and  C_12
REMARK    7  A    between atoms: C_17  and  C_18
REMARK    8  A    between atoms: C_25  and  C_26
REMARK    9  A    between atoms: C_26  and  O_28
REMARK   10  A    between atoms: C_29  and  C_30
REMARK   11  A    between atoms: C_30  and  C_31
REMARK   12  A    between atoms: C_30  and  C_32
REMARK                            x       y       z     vdW  Elec       q    Type
REMARK                         _______ _______ _______ _____ _____    ______ ____
ROOT
ATOM      1  C   UNL     1       2.055   8.582  18.556  0.00  0.00    +0.000 A 
ATOM      2  C   UNL     1       1.777   8.312  19.899  0.00  0.00    +0.000 A 
ATOM      3  C   UNL     1       1.947   7.018  20.424  0.00  0.00    +0.000 A 
ATOM      4  C   UNL     1       2.384   5.937  19.630  0.00  0.00    +0.000 A 
ATOM      5  C   UNL     1       2.598   6.219  18.273  0.00  0.00    +0.000 A 
ATOM      6  C   UNL     1       2.459   7.511  17.754  0.00  0.00    +0.000 A 
ENDROOT
BRANCH   4   7
ATOM      7  C   UNL     1       2.561   4.561  20.195  0.00  0.00    +0.000 A 
ATOM      8  C   UNL     1       1.533   4.027  21.008  0.00  0.00    +0.000 A 
ATOM      9  C   UNL     1       1.597   2.740  21.553  0.00  0.00    +0.000 A 
ATOM     10  C   UNL     1       2.685   1.925  21.285  0.00  0.00    +0.000 A 
ATOM     11  C   UNL     1       3.713   2.405  20.483  0.00  0.00    +0.000 A 
ATOM     12  C   UNL     1       3.677   3.713  19.949  0.00  0.00    +0.000 A 
BRANCH  12  13
ATOM     13  C   UNL     1       4.832   4.099  19.151  0.00  0.00    +0.000 A 
ATOM     14  N   UNL     1       5.870   4.840  19.682  0.00  0.00    +0.000 NA
ATOM     15  N   UNL     1       6.777   4.977  18.723  0.00  0.00    +0.000 NA
ATOM     16  N   UNL     1       6.249   4.334  17.676  0.00  0.00    +0.000 N 
ATOM     17  N   UNL     1       5.025   3.812  17.857  0.00  0.00    +0.000 NA
ATOM     18  H   UNL     1       6.756   4.235  16.800  0.00  0.00    +0.000 HD
ENDBRANCH  12  13
ENDBRANCH   4   7
BRANCH   1  19
ATOM     19  C   UNL     1       1.823   9.944  17.945  0.00  0.00    +0.000 C 
BRANCH  19  22
ATOM     20  N   UNL     1      -1.565  10.979  18.349  0.00  0.00    +0.000 N 
ATOM     21  N   UNL     1      -0.609  10.211  17.785  0.00  0.00    +0.000 NA
ATOM     22  C   UNL     1       0.523  10.512  18.436  0.00  0.00    +0.000 A 
ATOM     23  C   UNL     1       0.296  11.540  19.394  0.00  0.00    +0.000 A 
ATOM     24  C   UNL     1      -1.071  11.823  19.320  0.00  0.00    +0.000 A 
BRANCH  24  25
ATOM     25  C   UNL     1      -1.812  12.889  20.107  0.00  0.00    +0.000 C 
ATOM     26  C   UNL     1      -2.129  12.418  21.525  0.00  0.00    +0.000 C 
ATOM     27  C   UNL     1      -1.210  14.288  20.107  0.00  0.00    +0.000 C 
ENDBRANCH  24  25
BRANCH  23  28
ATOM     28  C   UNL     1       1.232  12.253  20.237  0.00  0.00    +0.000 C 
ATOM     29  O   UNL     1       1.371  12.110  21.442  0.00  0.00    +0.000 OA
BRANCH  28  30
ATOM     30  O   UNL     1       2.054  13.104  19.592  0.00  0.00    +0.000 OA
ATOM     31  H   UNL     1       2.028  13.891  20.175  0.00  0.00    +0.000 HD
ENDBRANCH  28  30
ENDBRANCH  23  28
BRANCH  20  32
ATOM     32  C   UNL     1      -2.903  10.923  17.786  0.00  0.00    +0.000 C 
BRANCH  32  34
ATOM     33  C   UNL     1      -3.282  10.588  15.288  0.00  0.00    +0.000 C 
ATOM     34  C   UNL     1      -3.141   9.919  16.649  0.00  0.00    +0.000 C 
ENDBRANCH  32  34
ENDBRANCH  20  32
ENDBRANCH  19  22
ENDBRANCH   1  19
TORSDOF 9
ENDMDL
MODEL 3
REMARK VINA RESULT:      -8.5      0.538      1.032
REMARK  Name = 
REMARK  12 active torsions:
REMARK  status: ('A' for Active; 'I' for Inactive)
REMARK    1  A    between atoms: C_1  and  C_2
REMARK    2  A    between atoms: C_2  and  C_3
REMARK    3  A    between atoms: C_3  and  N_4
REMARK    4  A    between atoms: C_6  and  C_7
REMARK    5  A    between atoms: C_7  and  C_8
REMARK    6  A    between atoms: C_11  and  C_12
REMARK    7  A    between atoms: C_17  and  C_18
REMARK    8  A    between atoms: C_25  and  C_26
REMARK    9  A    between atoms: C_26  and  O_28
REMARK   10  A    between atoms: C_29  and  C_30
REMARK   11  A    between atoms: C_30  and  C_31
REMARK   12  A    between atoms: C_30  and  C_32
REMARK                            x       y       z     vdW  Elec       q    Type
REMARK                         _______ _______ _______ _____ _____    ______ ____
ROOT
ATOM      1  C   UNL     1       2.694   8.062  18.217  0.00  0.00    +0.000 A 
ATOM      2  C   UNL     1       2.272   7.714  19.504  0.00  0.00    +0.000 A 
ATOM      3  C   UNL     1       1.343   8.512  20.197  0.00  0.00    +0.000 A 
ATOM      4  C   UNL     1       0.810   9.696  19.645  0.00  0.00    +0.000 A 
ATOM      5  C   UNL     1       1.293  10.054  18.378  0.00  0.00    +0.000 A 
ATOM      6  C   UNL     1       2.194   9.248  17.673  0.00  0.00    +0.000 A 
ENDROOT
BRANCH   4   7
ATOM      7  C   UNL     1      -0.177  10.542  20.390  0.00  0.00    +0.000 A 
ATOM      8  C   UNL     1       0.104  10.882  21.734  0.00  0.00    +0.000 A 
ATOM      9  C   UNL     1      -0.743  11.692  22.498  0.00  0.00    +0.000 A 
ATOM     10  C   UNL     1      -1.897  12.216  21.937  0.00  0.00    +0.000 A 
ATOM     11  C   UNL     1      -2.206  11.916  20.616  0.00  0.00    +0.000 A 
ATOM     12  C   UNL     1      -1.376  11.076  19.840  0.00  0.00    +0.000 A 
BRANCH  12  13
ATOM     13  C   UNL     1      -1.833  10.819  18.481  0.00  0.00    +0.000 A 
ATOM     14  N   UNL     1      -1.840  11.808  17.517  0.00  0.00    +0.000 NA
ATOM     15  N   UNL     1      -2.258  11.245  16.390  0.00  0.00    +0.000 NA
ATOM     16  N   UNL     1      -2.489   9.971  16.724  0.00  0.00    +0.000 N 
ATOM     17  N   UNL     1      -2.296   9.653  18.014  0.00  0.00    +0.000 NA
ATOM     18  H   UNL     1      -2.780   9.283  16.035  0.00  0.00    +0.000 HD
ENDBRANCH  12  13
ENDBRANCH   4   7
BRANCH   1  19
ATOM     19  C   UNL     1       3.735   7.263  17.470  0.00  0.00    +0.000 C 
BRANCH  19  22
ATOM     20  N   UNL     1       2.451   4.017  18.198  0.00  0.00    +0.000 N 
ATOM     21  N   UNL     1       2.307   5.296  17.791  0.00  0.00    +0.000 NA
ATOM     22  C   UNL     1       3.548   5.797  17.738  0.00  0.00    +0.000 A 
ATOM     23  C   UNL     1       4.500   4.836  18.181  0.00  0.00    +0.000 A 
ATOM     24  C   UNL     1       3.761   3.686  18.471  0.00  0.00    +0.000 A 
BRANCH  24  25
ATOM     25  C   UNL     1       4.305   2.384  19.032  0.00  0.00    +0.000 C 
ATOM     26  C   UNL     1       4.243   2.365  20.559  0.00  0.00    +0.000 C 
ATOM     27  C   UNL     1       3.754   1.095  18.437  0.00  0.00    +0.000 C 
ENDBRANCH  24  25
BRANCH  23  28
ATOM     28  C   UNL     1       5.925   4.966  18.398  0.00  0.00    +0.000 C 
ATOM     29  O   UNL     1       6.792   4.921  17.539  0.00  0.00    +0.000 OA
BRANCH  28  30
ATOM     30  O   UNL     1       6.293   5.220  19.669  0.00  0.00    +0.000 OA
ATOM     31  H   UNL     1       6.848   4.440  19.878  0.00  0.00    +0.000 HD
ENDBRANCH  28  30
ENDBRANCH  23  28
BRANCH  20  32
ATOM     32  C   UNL     1       1.248   3.235  18.426  0.00  0.00    +0.000 C 
BRANCH  32  34
ATOM     33  C   UNL     1       1.041   4.342  20.713  0.00  0.00    +0.000 C 
ATOM     34  C   UNL     1       0.769   3.097  19.878  0.00  0.00    +0.000 C 
ENDBRANCH  32  34
ENDBRANCH  20  32
ENDBRANCH  19  22
ENDBRANCH   1  19
TORSDOF 9
ENDMDL
MODEL 4
REMARK VINA RESULT:      -8.4      3.018      8.616
REMARK  Name = 
REMARK  12 active torsions:
REMARK  status: ('A' for Active; 'I' for Inactive)
REMARK    1  A    between atoms: C_1  and  C_2
REMARK    2  A    between atoms: C_2  and  C_3
REMARK    3  A    between atoms: C_3  and  N_4
REMARK    4  A    between atoms: C_6  and  C_7
REMARK    5  A    between atoms: C_7  and  C_8
REMARK    6  A    between atoms: C_11  and  C_12
REMARK    7  A    between atoms: C_17  and  C_18
REMARK    8  A    between atoms: C_25  and  C_26
REMARK    9  A    between atoms: C_26  and  O_28
REMARK   10  A    between atoms: C_29  and  C_30
REMARK   11  A    between atoms: C_30  and  C_31
REMARK   12  A    between atoms: C_30  and  C_32
REMARK                            x       y       z     vdW  Elec       q    Type
REMARK                         _______ _______ _______ _____ _____    ______ ____
ROOT
ATOM      1  C   UNL     1       1.963   8.530  18.543  0.00  0.00    +0.000 A 
ATOM      2  C   UNL     1       2.403   7.475  17.738  0.00  0.00    +0.000 A 
ATOM      3  C   UNL     1       2.591   6.189  18.276  0.00  0.00    +0.000 A 
ATOM      4  C   UNL     1       2.365   5.905  19.639  0.00  0.00    +0.000 A 
ATOM      5  C   UNL     1       1.982   6.992  20.438  0.00  0.00    +0.000 A 
ATOM      6  C   UNL     1       1.765   8.266  19.901  0.00  0.00    +0.000 A 
ENDROOT
BRANCH   4   7
ATOM      7  C   UNL     1       2.569   4.534  20.206  0.00  0.00    +0.000 A 
ATOM      8  C   UNL     1       1.556   3.984  21.027  0.00  0.00    +0.000 A 
ATOM      9  C   UNL     1       1.644   2.699  21.574  0.00  0.00    +0.000 A 
ATOM     10  C   UNL     1       2.744   1.902  21.301  0.00  0.00    +0.000 A 
ATOM     11  C   UNL     1       3.759   2.397  20.491  0.00  0.00    +0.000 A 
ATOM     12  C   UNL     1       3.697   3.703  19.954  0.00  0.00    +0.000 A 
BRANCH  12  13
ATOM     13  C   UNL     1       4.841   4.107  19.147  0.00  0.00    +0.000 A 
ATOM     14  N   UNL     1       5.870   4.865  19.671  0.00  0.00    +0.000 NA
ATOM     15  N   UNL     1       6.769   5.015  18.705  0.00  0.00    +0.000 NA
ATOM     16  N   UNL     1       6.244   4.363  17.662  0.00  0.00    +0.000 N 
ATOM     17  N   UNL     1       5.029   3.822  17.852  0.00  0.00    +0.000 NA
ATOM     18  H   UNL     1       6.745   4.271  16.783  0.00  0.00    +0.000 HD
ENDBRANCH  12  13
ENDBRANCH   4   7
BRANCH   1  19
ATOM     19  C   UNL     1       1.811   9.936  18.012  0.00  0.00    +0.000 C 
BRANCH  19  22
ATOM     20  N   UNL     1      -1.577  10.999  18.333  0.00  0.00    +0.000 N 
ATOM     21  N   UNL     1      -0.615  10.219  17.798  0.00  0.00    +0.000 NA
ATOM     22  C   UNL     1       0.505  10.519  18.469  0.00  0.00    +0.000 A 
ATOM     23  C   UNL     1       0.265  11.558  19.411  0.00  0.00    +0.000 A 
ATOM     24  C   UNL     1      -1.098  11.851  19.306  0.00  0.00    +0.000 A 
BRANCH  24  25
ATOM     25  C   UNL     1      -1.848  12.930  20.065  0.00  0.00    +0.000 C 
ATOM     26  C   UNL     1      -2.208  12.472  21.477  0.00  0.00    +0.000 C 
ATOM     27  C   UNL     1      -1.230  14.322  20.072  0.00  0.00    +0.000 C 
ENDBRANCH  24  25
BRANCH  23  28
ATOM     28  C   UNL     1       1.188  12.274  20.266  0.00  0.00    +0.000 C 
ATOM     29  O   UNL     1       1.928  13.185  19.926  0.00  0.00    +0.000 OA
BRANCH  28  30
ATOM     30  O   UNL     1       1.163  11.919  21.565  0.00  0.00    +0.000 OA
ATOM     31  H   UNL     1       1.481  10.993  21.527  0.00  0.00    +0.000 HD
ENDBRANCH  28  30
ENDBRANCH  23  28
BRANCH  20  32
ATOM     32  C   UNL     1      -2.904  10.948  17.742  0.00  0.00    +0.000 C 
BRANCH  32  34
ATOM     33  C   UNL     1      -3.098  10.599  15.224  0.00  0.00    +0.000 C 
ATOM     34  C   UNL     1      -3.121   9.945  16.600  0.00  0.00    +0.000 C 
ENDBRANCH  32  34
ENDBRANCH  20  32
ENDBRANCH  19  22
ENDBRANCH   1  19
TORSDOF 9
ENDMDL
MODEL 5
REMARK VINA RESULT:      -8.4      3.733      9.265
REMARK  Name = 
REMARK  12 active torsions:
REMARK  status: ('A' for Active; 'I' for Inactive)
REMARK    1  A    between atoms: C_1  and  C_2
REMARK    2  A    between atoms: C_2  and  C_3
REMARK    3  A    between atoms: C_3  and  N_4
REMARK    4  A    between atoms: C_6  and  C_7
REMARK    5  A    between atoms: C_7  and  C_8
REMARK    6  A    between atoms: C_11  and  C_12
REMARK    7  A    between atoms: C_17  and  C_18
REMARK    8  A    between atoms: C_25  and  C_26
REMARK    9  A    between atoms: C_26  and  O_28
REMARK   10  A    between atoms: C_29  and  C_30
REMARK   11  A    between atoms: C_30  and  C_31
REMARK   12  A    between atoms: C_30  and  C_32
REMARK                            x       y       z     vdW  Elec       q    Type
REMARK                         _______ _______ _______ _____ _____    ______ ____
ROOT
ATOM      1  C   UNL     1       1.061   8.926  19.881  0.00  0.00    +0.000 A 
ATOM      2  C   UNL     1       1.640   7.790  20.455  0.00  0.00    +0.000 A 
ATOM      3  C   UNL     1       2.493   6.960  19.705  0.00  0.00    +0.000 A 
ATOM      4  C   UNL     1       2.790   7.216  18.350  0.00  0.00    +0.000 A 
ATOM      5  C   UNL     1       2.150   8.327  17.781  0.00  0.00    +0.000 A 
ATOM      6  C   UNL     1       1.325   9.172  18.531  0.00  0.00    +0.000 A 
ENDROOT
BRANCH   4   7
ATOM      7  C   UNL     1       3.697   6.327  17.557  0.00  0.00    +0.000 A 
ATOM      8  C   UNL     1       4.780   6.914  16.859  0.00  0.00    +0.000 A 
ATOM      9  C   UNL     1       5.696   6.160  16.119  0.00  0.00    +0.000 A 
ATOM     10  C   UNL     1       5.580   4.781  16.067  0.00  0.00    +0.000 A 
ATOM     11  C   UNL     1       4.538   4.160  16.745  0.00  0.00    +0.000 A 
ATOM     12  C   UNL     1       3.587   4.911  17.473  0.00  0.00    +0.000 A 
BRANCH  12  13
ATOM     13  C   UNL     1       2.531   4.138  18.112  0.00  0.00    +0.000 A 
ATOM     14  N   UNL     1       1.290   3.978  17.526  0.00  0.00    +0.000 NA
ATOM     15  N   UNL     1       0.584   3.189  18.327  0.00  0.00    +0.000 NA
ATOM     16  N   UNL     1       1.412   2.924  19.343  0.00  0.00    +0.000 N 
ATOM     17  N   UNL     1       2.614   3.521  19.298  0.00  0.00    +0.000 NA
ATOM     18  H   UNL     1       1.149   2.295  20.096  0.00  0.00    +0.000 HD
ENDBRANCH  12  13
ENDBRANCH   4   7
BRANCH   1  19
ATOM     19  C   UNL     1       0.092   9.804  20.638  0.00  0.00    +0.000 C 
BRANCH  19  22
ATOM     20  N   UNL     1       1.228  13.183  20.701  0.00  0.00    +0.000 N 
ATOM     21  N   UNL     1       1.309  11.888  21.072  0.00  0.00    +0.000 NA
ATOM     22  C   UNL     1       0.378  11.250  20.351  0.00  0.00    +0.000 A 
ATOM     23  C   UNL     1      -0.356  12.168  19.548  0.00  0.00    +0.000 A 
ATOM     24  C   UNL     1       0.219  13.418  19.791  0.00  0.00    +0.000 A 
BRANCH  24  25
ATOM     25  C   UNL     1      -0.236  14.746  19.214  0.00  0.00    +0.000 C 
ATOM     26  C   UNL     1      -1.142  15.498  20.190  0.00  0.00    +0.000 C 
ATOM     27  C   UNL     1       0.844  15.657  18.646  0.00  0.00    +0.000 C 
ENDBRANCH  24  25
BRANCH  23  28
ATOM     28  C   UNL     1      -1.513  11.953  18.705  0.00  0.00    +0.000 C 
ATOM     29  O   UNL     1      -2.682  12.019  19.054  0.00  0.00    +0.000 OA
BRANCH  28  30
ATOM     30  O   UNL     1      -1.243  11.720  17.406  0.00  0.00    +0.000 OA
ATOM     31  H   UNL     1      -1.820  10.951  17.215  0.00  0.00    +0.000 HD
ENDBRANCH  28  30
ENDBRANCH  23  28
BRANCH  20  32
ATOM     32  C   UNL     1       2.079  14.142  21.385  0.00  0.00    +0.000 C 
BRANCH  32  34
ATOM     33  C   UNL     1       3.954  15.750  20.757  0.00  0.00    +0.000 C 
ATOM     34  C   UNL     1       3.515  14.296  20.866  0.00  0.00    +0.000 C 
ENDBRANCH  32  34
ENDBRANCH  20  32
ENDBRANCH  19  22
ENDBRANCH   1  19
TORSDOF 9
ENDMDL
MODEL 6
REMARK VINA RESULT:      -8.3      3.030      8.802
REMARK  Name = 
REMARK  12 active torsions:
REMARK  status: ('A' for Active; 'I' for Inactive)
REMARK    1  A    between atoms: C_1  and  C_2
REMARK    2  A    between atoms: C_2  and  C_3
REMARK    3  A    between atoms: C_3  and  N_4
REMARK    4  A    between atoms: C_6  and  C_7
REMARK    5  A    between atoms: C_7  and  C_8
REMARK    6  A    between atoms: C_11  and  C_12
REMARK    7  A    between atoms: C_17  and  C_18
REMARK    8  A    between atoms: C_25  and  C_26
REMARK    9  A    between atoms: C_26  and  O_28
REMARK   10  A    between atoms: C_29  and  C_30
REMARK   11  A    between atoms: C_30  and  C_31
REMARK   12  A    between atoms: C_30  and  C_32
REMARK                            x       y       z     vdW  Elec       q    Type
REMARK                         _______ _______ _______ _____ _____    ______ ____
ROOT
ATOM      1  C   UNL     1       1.259   8.532  20.136  0.00  0.00    +0.000 A 
ATOM      2  C   UNL     1       1.615   8.985  18.862  0.00  0.00    +0.000 A 
ATOM      3  C   UNL     1       2.408   8.192  18.012  0.00  0.00    +0.000 A 
ATOM      4  C   UNL     1       2.894   6.926  18.401  0.00  0.00    +0.000 A 
ATOM      5  C   UNL     1       2.574   6.521  19.705  0.00  0.00    +0.000 A 
ATOM      6  C   UNL     1       1.760   7.292  20.543  0.00  0.00    +0.000 A 
ENDROOT
BRANCH   4   7
ATOM      7  C   UNL     1       3.739   6.089  17.492  0.00  0.00    +0.000 A 
ATOM      8  C   UNL     1       4.742   6.727  16.724  0.00  0.00    +0.000 A 
ATOM      9  C   UNL     1       5.600   6.023  15.872  0.00  0.00    +0.000 A 
ATOM     10  C   UNL     1       5.503   4.645  15.772  0.00  0.00    +0.000 A 
ATOM     11  C   UNL     1       4.539   3.975  16.517  0.00  0.00    +0.000 A 
ATOM     12  C   UNL     1       3.647   4.675  17.360  0.00  0.00    +0.000 A 
BRANCH  12  13
ATOM     13  C   UNL     1       2.667   3.855  18.059  0.00  0.00    +0.000 A 
ATOM     14  N   UNL     1       1.349   3.786  17.650  0.00  0.00    +0.000 NA
ATOM     15  N   UNL     1       0.739   2.925  18.455  0.00  0.00    +0.000 NA
ATOM     16  N   UNL     1       1.697   2.531  19.302  0.00  0.00    +0.000 N 
ATOM     17  N   UNL     1       2.900   3.106  19.145  0.00  0.00    +0.000 NA
ATOM     18  H   UNL     1       1.523   1.825  20.012  0.00  0.00    +0.000 HD
ENDBRANCH  12  13
ENDBRANCH   4   7
BRANCH   1  19
ATOM     19  C   UNL     1       0.462   9.382  21.097  0.00  0.00    +0.000 C 
BRANCH  19  22
ATOM     20  N   UNL     1      -1.304  11.462  18.803  0.00  0.00    +0.000 N 
ATOM     21  N   UNL     1      -1.026  10.265  19.360  0.00  0.00    +0.000 NA
ATOM     22  C   UNL     1      -0.177  10.525  20.362  0.00  0.00    +0.000 A 
ATOM     23  C   UNL     1       0.142  11.912  20.407  0.00  0.00    +0.000 A 
ATOM     24  C   UNL     1      -0.608  12.500  19.384  0.00  0.00    +0.000 A 
BRANCH  24  25
ATOM     25  C   UNL     1      -0.586  13.962  18.979  0.00  0.00    +0.000 C 
ATOM     26  C   UNL     1      -1.348  14.831  19.979  0.00  0.00    +0.000 C 
ATOM     27  C   UNL     1       0.773  14.563  18.644  0.00  0.00    +0.000 C 
ENDBRANCH  24  25
BRANCH  23  28
ATOM     28  C   UNL     1       1.088  12.626  21.237  0.00  0.00    +0.000 C 
ATOM     29  O   UNL     1       2.295  12.696  21.058  0.00  0.00    +0.000 OA
BRANCH  28  30
ATOM     30  O   UNL     1       0.550  13.317  22.260  0.00  0.00    +0.000 OA
ATOM     31  H   UNL     1       1.317  13.418  22.862  0.00  0.00    +0.000 HD
ENDBRANCH  28  30
ENDBRANCH  23  28
BRANCH  20  32
ATOM     32  C   UNL     1      -2.152  11.483  17.622  0.00  0.00    +0.000 C 
BRANCH  32  34
ATOM     33  C   UNL     1      -2.748  10.398  15.394  0.00  0.00    +0.000 C 
ATOM     34  C   UNL     1      -2.270  10.178  16.823  0.00  0.00    +0.000 C 
ENDBRANCH  32  34
ENDBRANCH  20  32
ENDBRANCH  19  22
ENDBRANCH   1  19
TORSDOF 9
ENDMDL
MODEL 7
REMARK VINA RESULT:      -8.3      3.935      9.422
REMARK  Name = 
REMARK  12 active torsions:
REMARK  status: ('A' for Active; 'I' for Inactive)
REMARK    1  A    between atoms: C_1  and  C_2
REMARK    2  A    between atoms: C_2  and  C_3
REMARK    3  A    between atoms: C_3  and  N_4
REMARK    4  A    between atoms: C_6  and  C_7
REMARK    5  A    between atoms: C_7  and  C_8
REMARK    6  A    between atoms: C_11  and  C_12
REMARK    7  A    between atoms: C_17  and  C_18
REMARK    8  A    between atoms: C_25  and  C_26
REMARK    9  A    between atoms: C_26  and  O_28
REMARK   10  A    between atoms: C_29  and  C_30
REMARK   11  A    between atoms: C_30  and  C_31
REMARK   12  A    between atoms: C_30  and  C_32
REMARK                            x       y       z     vdW  Elec       q    Type
REMARK                         _______ _______ _______ _____ _____    ______ ____
ROOT
ATOM      1  C   UNL     1       0.902   9.250  19.959  0.00  0.00    +0.000 A 
ATOM      2  C   UNL     1       1.218   9.375  18.603  0.00  0.00    +0.000 A 
ATOM      3  C   UNL     1       2.007   8.406  17.955  0.00  0.00    +0.000 A 
ATOM      4  C   UNL     1       2.528   7.285  18.635  0.00  0.00    +0.000 A 
ATOM      5  C   UNL     1       2.247   7.214  20.007  0.00  0.00    +0.000 A 
ATOM      6  C   UNL     1       1.438   8.158  20.648  0.00  0.00    +0.000 A 
ENDROOT
BRANCH   4   7
ATOM      7  C   UNL     1       3.369   6.259  17.940  0.00  0.00    +0.000 A 
ATOM      8  C   UNL     1       4.324   6.697  16.992  0.00  0.00    +0.000 A 
ATOM      9  C   UNL     1       5.175   5.815  16.317  0.00  0.00    +0.000 A 
ATOM     10  C   UNL     1       5.120   4.457  16.583  0.00  0.00    +0.000 A 
ATOM     11  C   UNL     1       4.204   3.982  17.515  0.00  0.00    +0.000 A 
ATOM     12  C   UNL     1       3.318   4.858  18.183  0.00  0.00    +0.000 A 
BRANCH  12  13
ATOM     13  C   UNL     1       2.390   4.226  19.111  0.00  0.00    +0.000 A 
ATOM     14  N   UNL     1       2.768   3.875  20.393  0.00  0.00    +0.000 NA
ATOM     15  N   UNL     1       1.692   3.376  20.989  0.00  0.00    +0.000 NA
ATOM     16  N   UNL     1       0.737   3.439  20.054  0.00  0.00    +0.000 N 
ATOM     17  N   UNL     1       1.115   3.907  18.853  0.00  0.00    +0.000 NA
ATOM     18  H   UNL     1      -0.221   3.162  20.250  0.00  0.00    +0.000 HD
ENDBRANCH  12  13
ENDBRANCH   4   7
BRANCH   1  19
ATOM     19  C   UNL     1       0.110  10.302  20.699  0.00  0.00    +0.000 C 
BRANCH  19  22
ATOM     20  N   UNL     1       1.703  13.484  20.473  0.00  0.00    +0.000 N 
ATOM     21  N   UNL     1       1.625  12.216  20.931  0.00  0.00    +0.000 NA
ATOM     22  C   UNL     1       0.577  11.672  20.299  0.00  0.00    +0.000 A 
ATOM     23  C   UNL     1      -0.065  12.632  19.466  0.00  0.00    +0.000 A 
ATOM     24  C   UNL     1       0.689  13.801  19.595  0.00  0.00    +0.000 A 
BRANCH  24  25
ATOM     25  C   UNL     1       0.391  15.141  18.946  0.00  0.00    +0.000 C 
ATOM     26  C   UNL     1      -0.543  15.985  19.813  0.00  0.00    +0.000 C 
ATOM     27  C   UNL     1       1.585  15.953  18.463  0.00  0.00    +0.000 C 
ENDBRANCH  24  25
BRANCH  23  28
ATOM     28  C   UNL     1      -1.284  12.529  18.693  0.00  0.00    +0.000 C 
ATOM     29  O   UNL     1      -2.415  12.416  19.141  0.00  0.00    +0.000 OA
BRANCH  28  30
ATOM     30  O   UNL     1      -1.130  12.632  17.358  0.00  0.00    +0.000 OA
ATOM     31  H   UNL     1      -0.164  12.776  17.278  0.00  0.00    +0.000 HD
ENDBRANCH  28  30
ENDBRANCH  23  28
BRANCH  20  32
ATOM     32  C   UNL     1       2.714  14.355  21.050  0.00  0.00    +0.000 C 
BRANCH  32  34
ATOM     33  C   UNL     1       3.180  16.538  22.281  0.00  0.00    +0.000 C 
ATOM     34  C   UNL     1       2.251  15.339  22.133  0.00  0.00    +0.000 C 
ENDBRANCH  32  34
ENDBRANCH  20  32
ENDBRANCH  19  22
ENDBRANCH   1  19
TORSDOF 9
ENDMDL
MODEL 8
REMARK VINA RESULT:      -8.3      0.616      1.381
REMARK  Name = 
REMARK  12 active torsions:
REMARK  status: ('A' for Active; 'I' for Inactive)
REMARK    1  A    between atoms: C_1  and  C_2
REMARK    2  A    between atoms: C_2  and  C_3
REMARK    3  A    between atoms: C_3  and  N_4
REMARK    4  A    between atoms: C_6  and  C_7
REMARK    5  A    between atoms: C_7  and  C_8
REMARK    6  A    between atoms: C_11  and  C_12
REMARK    7  A    between atoms: C_17  and  C_18
REMARK    8  A    between atoms: C_25  and  C_26
REMARK    9  A    between atoms: C_26  and  O_28
REMARK   10  A    between atoms: C_29  and  C_30
REMARK   11  A    between atoms: C_30  and  C_31
REMARK   12  A    between atoms: C_30  and  C_32
REMARK                            x       y       z     vdW  Elec       q    Type
REMARK                         _______ _______ _______ _____ _____    ______ ____
ROOT
ATOM      1  C   UNL     1       2.513   8.090  18.339  0.00  0.00    +0.000 A 
ATOM      2  C   UNL     1       1.833   9.242  17.931  0.00  0.00    +0.000 A 
ATOM      3  C   UNL     1       0.982   9.927  18.818  0.00  0.00    +0.000 A 
ATOM      4  C   UNL     1       0.759   9.485  20.139  0.00  0.00    +0.000 A 
ATOM      5  C   UNL     1       1.405   8.295  20.504  0.00  0.00    +0.000 A 
ATOM      6  C   UNL     1       2.276   7.627  19.636  0.00  0.00    +0.000 A 
ENDROOT
BRANCH   4   7
ATOM      7  C   UNL     1      -0.150  10.218  21.076  0.00  0.00    +0.000 A 
ATOM      8  C   UNL     1      -0.254   9.762  22.412  0.00  0.00    +0.000 A 
ATOM      9  C   UNL     1      -1.053  10.401  23.365  0.00  0.00    +0.000 A 
ATOM     10  C   UNL     1      -1.763  11.541  23.026  0.00  0.00    +0.000 A 
ATOM     11  C   UNL     1      -1.682  12.031  21.727  0.00  0.00    +0.000 A 
ATOM     12  C   UNL     1      -0.902  11.379  20.745  0.00  0.00    +0.000 A 
BRANCH  12  13
ATOM     13  C   UNL     1      -0.929  11.981  19.419  0.00  0.00    +0.000 A 
ATOM     14  N   UNL     1      -0.117  13.048  19.086  0.00  0.00    +0.000 NA
ATOM     15  N   UNL     1      -0.344  13.322  17.807  0.00  0.00    +0.000 NA
ATOM     16  N   UNL     1      -1.272  12.431  17.439  0.00  0.00    +0.000 N 
ATOM     17  N   UNL     1      -1.715  11.606  18.401  0.00  0.00    +0.000 NA
ATOM     18  H   UNL     1      -1.608  12.376  16.482  0.00  0.00    +0.000 HD
ENDBRANCH  12  13
ENDBRANCH   4   7
BRANCH   1  19
ATOM     19  C   UNL     1       3.385   7.295  17.396  0.00  0.00    +0.000 C 
BRANCH  19  22
ATOM     20  N   UNL     1       2.313   4.042  18.385  0.00  0.00    +0.000 N 
ATOM     21  N   UNL     1       2.074   5.315  18.007  0.00  0.00    +0.000 NA
ATOM     22  C   UNL     1       3.273   5.830  17.705  0.00  0.00    +0.000 A 
ATOM     23  C   UNL     1       4.307   4.884  17.956  0.00  0.00    +0.000 A 
ATOM     24  C   UNL     1       3.655   3.727  18.394  0.00  0.00    +0.000 A 
BRANCH  24  25
ATOM     25  C   UNL     1       4.317   2.437  18.843  0.00  0.00    +0.000 C 
ATOM     26  C   UNL     1       4.498   2.402  20.360  0.00  0.00    +0.000 C 
ATOM     27  C   UNL     1       3.714   1.138  18.325  0.00  0.00    +0.000 C 
ENDBRANCH  24  25
BRANCH  23  28
ATOM     28  C   UNL     1       5.745   5.032  17.884  0.00  0.00    +0.000 C 
ATOM     29  O   UNL     1       6.463   4.666  16.966  0.00  0.00    +0.000 OA
BRANCH  28  30
ATOM     30  O   UNL     1       6.307   5.694  18.915  0.00  0.00    +0.000 OA
ATOM     31  H   UNL     1       5.520   5.984  19.421  0.00  0.00    +0.000 HD
ENDBRANCH  28  30
ENDBRANCH  23  28
BRANCH  20  32
ATOM     32  C   UNL     1       1.189   3.247  18.852  0.00  0.00    +0.000 C 
BRANCH  32  34
ATOM     33  C   UNL     1       1.295   2.787  21.357  0.00  0.00    +0.000 C 
ATOM     34  C   UNL     1       0.628   3.582  20.241  0.00  0.00    +0.000 C 
ENDBRANCH  32  34
ENDBRANCH  20  32
ENDBRANCH  19  22
ENDBRANCH   1  19
TORSDOF 9
ENDMDL
MODEL 9
REMARK VINA RESULT:      -8.2      1.836      3.094
REMARK  Name = 
REMARK  12 active torsions:
REMARK  status: ('A' for Active; 'I' for Inactive)
REMARK    1  A    between atoms: C_1  and  C_2
REMARK    2  A    between atoms: C_2  and  C_3
REMARK    3  A    between atoms: C_3  and  N_4
REMARK    4  A    between atoms: C_6  and  C_7
REMARK    5  A    between atoms: C_7  and  C_8
REMARK    6  A    between atoms: C_11  and  C_12
REMARK    7  A    between atoms: C_17  and  C_18
REMARK    8  A    between atoms: C_25  and  C_26
REMARK    9  A    between atoms: C_26  and  O_28
REMARK   10  A    between atoms: C_29  and  C_30
REMARK   11  A    between atoms: C_30  and  C_31
REMARK   12  A    between atoms: C_30  and  C_32
REMARK                            x       y       z     vdW  Elec       q    Type
REMARK                         _______ _______ _______ _____ _____    ______ ____
ROOT
ATOM      1  C   UNL     1       2.214   8.107  18.198  0.00  0.00    +0.000 A 
ATOM      2  C   UNL     1       1.406   9.175  17.794  0.00  0.00    +0.000 A 
ATOM      3  C   UNL     1       0.628   9.883  18.728  0.00  0.00    +0.000 A 
ATOM      4  C   UNL     1       0.609   9.547  20.098  0.00  0.00    +0.000 A 
ATOM      5  C   UNL     1       1.381   8.437  20.469  0.00  0.00    +0.000 A 
ATOM      6  C   UNL     1       2.179   7.748  19.548  0.00  0.00    +0.000 A 
ENDROOT
BRANCH   4   7
ATOM      7  C   UNL     1      -0.222  10.304  21.087  0.00  0.00    +0.000 A 
ATOM      8  C   UNL     1      -0.405   9.755  22.378  0.00  0.00    +0.000 A 
ATOM      9  C   UNL     1      -1.139  10.404  23.377  0.00  0.00    +0.000 A 
ATOM     10  C   UNL     1      -1.701  11.646  23.129  0.00  0.00    +0.000 A 
ATOM     11  C   UNL     1      -1.539  12.229  21.877  0.00  0.00    +0.000 A 
ATOM     12  C   UNL     1      -0.825  11.571  20.850  0.00  0.00    +0.000 A 
BRANCH  12  13
ATOM     13  C   UNL     1      -0.756  12.280  19.579  0.00  0.00    +0.000 A 
ATOM     14  N   UNL     1       0.234  13.207  19.315  0.00  0.00    +0.000 NA
ATOM     15  N   UNL     1       0.047  13.626  18.069  0.00  0.00    +0.000 NA
ATOM     16  N   UNL     1      -1.032  12.954  17.653  0.00  0.00    +0.000 N 
ATOM     17  N   UNL     1      -1.608  12.143  18.555  0.00  0.00    +0.000 NA
ATOM     18  H   UNL     1      -1.383  13.043  16.704  0.00  0.00    +0.000 HD
ENDBRANCH  12  13
ENDBRANCH   4   7
BRANCH   1  19
ATOM     19  C   UNL     1       3.012   7.286  17.213  0.00  0.00    +0.000 C 
BRANCH  19  22
ATOM     20  N   UNL     1       5.302   4.917  18.575  0.00  0.00    +0.000 N 
ATOM     21  N   UNL     1       5.001   6.126  18.057  0.00  0.00    +0.000 NA
ATOM     22  C   UNL     1       3.668   6.135  17.918  0.00  0.00    +0.000 A 
ATOM     23  C   UNL     1       3.114   4.880  18.298  0.00  0.00    +0.000 A 
ATOM     24  C   UNL     1       4.197   4.107  18.725  0.00  0.00    +0.000 A 
BRANCH  24  25
ATOM     25  C   UNL     1       4.145   2.661  19.185  0.00  0.00    +0.000 C 
ATOM     26  C   UNL     1       3.555   2.543  20.590  0.00  0.00    +0.000 C 
ATOM     27  C   UNL     1       3.513   1.658  18.230  0.00  0.00    +0.000 C 
ENDBRANCH  24  25
BRANCH  23  28
ATOM     28  C   UNL     1       1.752   4.397  18.210  0.00  0.00    +0.000 C 
ATOM     29  O   UNL     1       1.191   4.001  17.200  0.00  0.00    +0.000 OA
BRANCH  28  30
ATOM     30  O   UNL     1       1.087   4.333  19.380  0.00  0.00    +0.000 OA
ATOM     31  H   UNL     1       0.626   3.472  19.303  0.00  0.00    +0.000 HD
ENDBRANCH  28  30
ENDBRANCH  23  28
BRANCH  20  32
ATOM     32  C   UNL     1       6.705   4.587  18.763  0.00  0.00    +0.000 C 
BRANCH  32  34
ATOM     33  C   UNL     1       7.009   4.308  16.248  0.00  0.00    +0.000 C 
ATOM     34  C   UNL     1       7.634   4.775  17.556  0.00  0.00    +0.000 C 
ENDBRANCH  32  34
ENDBRANCH  20  32
ENDBRANCH  19  22
ENDBRANCH   1  19
TORSDOF 9
ENDMDL
