MODEL 1
REMARK VINA RESULT:      -8.5      0.000      0.000
REMARK  Name = 
REMARK  7 active torsions:
REMARK  status: ('A' for Active; 'I' for Inactive)
REMARK    1  A    between atoms: C_1  and  S_2
REMARK    2  A    between atoms: S_2  and  C_5
REMARK    3  A    between atoms: C_7  and  C_8
REMARK    4  A    between atoms: C_12  and  O_13
REMARK    5  A    between atoms: O_13  and  C_14
REMARK    6  A    between atoms: C_14  and  C_15
REMARK    7  A    between atoms: C_26  and  C_27
REMARK                            x       y       z     vdW  Elec       q    Type
REMARK                         _______ _______ _______ _____ _____    ______ ____
ROOT
ATOM      1  C   UNL     1       2.010   7.927  19.339  0.00  0.00    +0.000 A 
ATOM      2  C   UNL     1       1.672   7.750  20.685  0.00  0.00    +0.000 A 
ATOM      3  C   UNL     1       0.796   8.637  21.310  0.00  0.00    +0.000 A 
ATOM      4  C   UNL     1       0.269   9.715  20.598  0.00  0.00    +0.000 A 
ATOM      5  C   UNL     1       0.639   9.927  19.270  0.00  0.00    +0.000 A 
ATOM      6  C   UNL     1       1.489   9.019  18.635  0.00  0.00    +0.000 A 
ENDROOT
BRANCH   1   9
ATOM      7  C   UNL     1       3.842   4.756  18.339  0.00  0.00    +0.000 A 
ATOM      8  C   UNL     1       2.980   5.683  19.065  0.00  0.00    +0.000 A 
ATOM      9  C   UNL     1       2.874   6.955  18.666  0.00  0.00    +0.000 A 
ATOM     10  N   UNL     1       3.587   7.385  17.582  0.00  0.00    +0.000 N 
ATOM     11  C   UNL     1       4.432   6.595  16.848  0.00  0.00    +0.000 A 
ATOM     12  O   UNL     1       5.037   7.053  15.886  0.00  0.00    +0.000 OA
ATOM     13  C   UNL     1       4.553   5.161  17.264  0.00  0.00    +0.000 A 
ATOM     14  H   UNL     1       3.516   8.354  17.287  0.00  0.00    +0.000 HD
BRANCH   7  16
ATOM     15  C   UNL     1       2.646   3.050  20.135  0.00  0.00    +0.000 C 
ATOM     16  S   UNL     1       3.920   3.096  18.897  0.00  0.00    +0.000 S 
ATOM     17  O   UNL     1       5.179   2.898  19.595  0.00  0.00    +0.000 OA
ATOM     18  O   UNL     1       3.546   2.185  17.835  0.00  0.00    +0.000 OA
ENDBRANCH   7  16
BRANCH  13  19
ATOM     19  C   UNL     1       5.380   4.342  16.446  0.00  0.00    +0.000 C 
ATOM     20  N   UNL     1       6.061   3.638  15.825  0.00  0.00    +0.000 NA
ENDBRANCH  13  19
ENDBRANCH   1   9
BRANCH   5  21
ATOM     21  O   UNL     1       0.220  10.977  18.500  0.00  0.00    +0.000 OA
BRANCH  21  22
ATOM     22  C   UNL     1      -0.866  11.734  19.041  0.00  0.00    +0.000 C 
BRANCH  22  23
ATOM     23  C   UNL     1      -2.100  11.487  18.213  0.00  0.00    +0.000 A 
ATOM     24  C   UNL     1      -3.371  11.823  18.697  0.00  0.00    +0.000 A 
ATOM     25  C   UNL     1      -4.504  11.619  17.908  0.00  0.00    +0.000 A 
ATOM     26  C   UNL     1      -4.376  11.082  16.626  0.00  0.00    +0.000 A 
ATOM     27  C   UNL     1      -3.114  10.754  16.137  0.00  0.00    +0.000 A 
ATOM     28 CL   UNL     1      -2.952  10.104  14.552  0.00  0.00    +0.000 Cl
ATOM     29  C   UNL     1      -1.980  10.956  16.919  0.00  0.00    +0.000 A 
ENDBRANCH  22  23
ENDBRANCH  21  22
ENDBRANCH   5  21
TORSDOF 6
ENDMDL
MODEL 2
REMARK VINA RESULT:      -8.2      3.196      4.232
REMARK  Name = 
REMARK  7 active torsions:
REMARK  status: ('A' for Active; 'I' for Inactive)
REMARK    1  A    between atoms: C_1  and  S_2
REMARK    2  A    between atoms: S_2  and  C_5
REMARK    3  A    between atoms: C_7  and  C_8
REMARK    4  A    between atoms: C_12  and  O_13
REMARK    5  A    between atoms: O_13  and  C_14
REMARK    6  A    between atoms: C_14  and  C_15
REMARK    7  A    between atoms: C_26  and  C_27
REMARK                            x       y       z     vdW  Elec       q    Type
REMARK                         _______ _______ _______ _____ _____    ______ ____
ROOT
ATOM      1  C   UNL     1       1.885   7.995  19.324  0.00  0.00    +0.000 A 
ATOM      2  C   UNL     1       1.942   8.735  18.137  0.00  0.00    +0.000 A 
ATOM      3  C   UNL     1       1.369  10.004  18.074  0.00  0.00    +0.000 A 
ATOM      4  C   UNL     1       0.719  10.532  19.190  0.00  0.00    +0.000 A 
ATOM      5  C   UNL     1       0.614   9.783  20.361  0.00  0.00    +0.000 A 
ATOM      6  C   UNL     1       1.220   8.526  20.435  0.00  0.00    +0.000 A 
ENDROOT
BRANCH   1   9
ATOM      7  C   UNL     1       4.164   5.019  18.726  0.00  0.00    +0.000 A 
ATOM      8  C   UNL     1       3.526   6.323  18.575  0.00  0.00    +0.000 A 
ATOM      9  C   UNL     1       2.548   6.693  19.409  0.00  0.00    +0.000 A 
ATOM     10  N   UNL     1       2.141   5.838  20.395  0.00  0.00    +0.000 N 
ATOM     11  C   UNL     1       2.668   4.591  20.604  0.00  0.00    +0.000 A 
ATOM     12  O   UNL     1       2.251   3.881  21.512  0.00  0.00    +0.000 OA
ATOM     13  C   UNL     1       3.778   4.161  19.695  0.00  0.00    +0.000 A 
ATOM     14  H   UNL     1       1.391   6.114  21.020  0.00  0.00    +0.000 HD
BRANCH   7  16
ATOM     15  C   UNL     1       5.635   6.092  16.664  0.00  0.00    +0.000 C 
ATOM     16  S   UNL     1       5.456   4.602  17.616  0.00  0.00    +0.000 S 
ATOM     17  O   UNL     1       4.972   3.584  16.700  0.00  0.00    +0.000 OA
ATOM     18  O   UNL     1       6.692   4.379  18.337  0.00  0.00    +0.000 OA
ENDBRANCH   7  16
BRANCH  13  19
ATOM     19  C   UNL     1       4.357   2.892  19.974  0.00  0.00    +0.000 C 
ATOM     20  N   UNL     1       4.781   1.832  20.179  0.00  0.00    +0.000 NA
ENDBRANCH  13  19
ENDBRANCH   1   9
BRANCH   5  21
ATOM     21  O   UNL     1      -0.041  10.186  21.492  0.00  0.00    +0.000 OA
BRANCH  21  22
ATOM     22  C   UNL     1      -0.074  11.600  21.705  0.00  0.00    +0.000 C 
BRANCH  22  23
ATOM     23  C   UNL     1      -1.507  12.048  21.820  0.00  0.00    +0.000 A 
ATOM     24  C   UNL     1      -2.229  12.448  20.687  0.00  0.00    +0.000 A 
ATOM     25  C   UNL     1      -3.567  12.831  20.801  0.00  0.00    +0.000 A 
ATOM     26  C   UNL     1      -4.196  12.812  22.047  0.00  0.00    +0.000 A 
ATOM     27  C   UNL     1      -3.485  12.407  23.174  0.00  0.00    +0.000 A 
ATOM     28 CL   UNL     1      -4.262  12.372  24.709  0.00  0.00    +0.000 Cl
ATOM     29  C   UNL     1      -2.150  12.024  23.067  0.00  0.00    +0.000 A 
ENDBRANCH  22  23
ENDBRANCH  21  22
ENDBRANCH   5  21
TORSDOF 6
ENDMDL
MODEL 3
REMARK VINA RESULT:      -8.1      1.122      1.444
REMARK  Name = 
REMARK  7 active torsions:
REMARK  status: ('A' for Active; 'I' for Inactive)
REMARK    1  A    between atoms: C_1  and  S_2
REMARK    2  A    between atoms: S_2  and  C_5
REMARK    3  A    between atoms: C_7  and  C_8
REMARK    4  A    between atoms: C_12  and  O_13
REMARK    5  A    between atoms: O_13  and  C_14
REMARK    6  A    between atoms: C_14  and  C_15
REMARK    7  A    between atoms: C_26  and  C_27
REMARK                            x       y       z     vdW  Elec       q    Type
REMARK                         _______ _______ _______ _____ _____    ______ ____
ROOT
ATOM      1  C   UNL     1       2.031   7.908  19.263  0.00  0.00    +0.000 A 
ATOM      2  C   UNL     1       1.666   7.740  20.604  0.00  0.00    +0.000 A 
ATOM      3  C   UNL     1       0.791   8.640  21.211  0.00  0.00    +0.000 A 
ATOM      4  C   UNL     1       0.292   9.723  20.487  0.00  0.00    +0.000 A 
ATOM      5  C   UNL     1       0.688   9.927  19.165  0.00  0.00    +0.000 A 
ATOM      6  C   UNL     1       1.537   9.005  18.547  0.00  0.00    +0.000 A 
ENDROOT
BRANCH   1   9
ATOM      7  C   UNL     1       3.849   4.714  18.312  0.00  0.00    +0.000 A 
ATOM      8  C   UNL     1       2.987   5.655  19.022  0.00  0.00    +0.000 A 
ATOM      9  C   UNL     1       2.893   6.924  18.608  0.00  0.00    +0.000 A 
ATOM     10  N   UNL     1       3.619   7.337  17.526  0.00  0.00    +0.000 N 
ATOM     11  C   UNL     1       4.464   6.533  16.808  0.00  0.00    +0.000 A 
ATOM     12  O   UNL     1       5.081   6.976  15.846  0.00  0.00    +0.000 OA
ATOM     13  C   UNL     1       4.572   5.103  17.239  0.00  0.00    +0.000 A 
ATOM     14  H   UNL     1       3.558   8.303  17.221  0.00  0.00    +0.000 HD
BRANCH   7  16
ATOM     15  C   UNL     1       2.618   3.033  20.109  0.00  0.00    +0.000 C 
ATOM     16  S   UNL     1       3.910   3.059  18.889  0.00  0.00    +0.000 S 
ATOM     17  O   UNL     1       5.157   2.862  19.606  0.00  0.00    +0.000 OA
ATOM     18  O   UNL     1       3.546   2.140  17.831  0.00  0.00    +0.000 OA
ENDBRANCH   7  16
BRANCH  13  19
ATOM     19  C   UNL     1       5.400   4.269  16.437  0.00  0.00    +0.000 C 
ATOM     20  N   UNL     1       6.090   3.638  15.751  0.00  0.00    +0.000 NA
ENDBRANCH  13  19
ENDBRANCH   1   9
BRANCH   5  21
ATOM     21  O   UNL     1       0.297  10.980  18.385  0.00  0.00    +0.000 OA
BRANCH  21  22
ATOM     22  C   UNL     1      -0.677  11.846  18.974  0.00  0.00    +0.000 C 
BRANCH  22  23
ATOM     23  C   UNL     1      -2.006  11.621  18.303  0.00  0.00    +0.000 A 
ATOM     24  C   UNL     1      -2.079  11.077  17.014  0.00  0.00    +0.000 A 
ATOM     25  C   UNL     1      -3.318  10.843  16.414  0.00  0.00    +0.000 A 
ATOM     26  C   UNL     1      -4.494  11.145  17.101  0.00  0.00    +0.000 A 
ATOM     27  C   UNL     1      -4.428  11.677  18.386  0.00  0.00    +0.000 A 
ATOM     28 CL   UNL     1      -5.878  12.039  19.239  0.00  0.00    +0.000 Cl
ATOM     29  C   UNL     1      -3.195  11.913  18.990  0.00  0.00    +0.000 A 
ENDBRANCH  22  23
ENDBRANCH  21  22
ENDBRANCH   5  21
TORSDOF 6
ENDMDL
MODEL 4
REMARK VINA RESULT:      -8.1      1.759      2.753
REMARK  Name = 
REMARK  7 active torsions:
REMARK  status: ('A' for Active; 'I' for Inactive)
REMARK    1  A    between atoms: C_1  and  S_2
REMARK    2  A    between atoms: S_2  and  C_5
REMARK    3  A    between atoms: C_7  and  C_8
REMARK    4  A    between atoms: C_12  and  O_13
REMARK    5  A    between atoms: O_13  and  C_14
REMARK    6  A    between atoms: C_14  and  C_15
REMARK    7  A    between atoms: C_26  and  C_27
REMARK                            x       y       z     vdW  Elec       q    Type
REMARK                         _______ _______ _______ _____ _____    ______ ____
ROOT
ATOM      1  C   UNL     1       1.486   8.136  20.386  0.00  0.00    +0.000 A 
ATOM      2  C   UNL     1       1.137   8.513  21.687  0.00  0.00    +0.000 A 
ATOM      3  C   UNL     1       0.436   9.697  21.910  0.00  0.00    +0.000 A 
ATOM      4  C   UNL     1       0.098  10.520  20.835  0.00  0.00    +0.000 A 
ATOM      5  C   UNL     1       0.485  10.177  19.540  0.00  0.00    +0.000 A 
ATOM      6  C   UNL     1       1.156   8.973  19.313  0.00  0.00    +0.000 A 
ENDROOT
BRANCH   1   9
ATOM      7  C   UNL     1       3.666   5.373  18.961  0.00  0.00    +0.000 A 
ATOM      8  C   UNL     1       3.008   6.665  19.131  0.00  0.00    +0.000 A 
ATOM      9  C   UNL     1       2.160   6.858  20.148  0.00  0.00    +0.000 A 
ATOM     10  N   UNL     1       1.904   5.835  21.018  0.00  0.00    +0.000 N 
ATOM     11  C   UNL     1       2.461   4.587  20.930  0.00  0.00    +0.000 A 
ATOM     12  O   UNL     1       2.183   3.720  21.751  0.00  0.00    +0.000 OA
ATOM     13  C   UNL     1       3.428   4.351  19.812  0.00  0.00    +0.000 A 
ATOM     14  H   UNL     1       1.251   5.979  21.782  0.00  0.00    +0.000 HD
BRANCH   7  16
ATOM     15  C   UNL     1       4.699   6.782  16.835  0.00  0.00    +0.000 C 
ATOM     16  S   UNL     1       4.785   5.190  17.623  0.00  0.00    +0.000 S 
ATOM     17  O   UNL     1       4.230   4.235  16.680  0.00  0.00    +0.000 OA
ATOM     18  O   UNL     1       6.135   5.004  18.112  0.00  0.00    +0.000 OA
ENDBRANCH   7  16
BRANCH  13  19
ATOM     19  C   UNL     1       4.047   3.071  19.781  0.00  0.00    +0.000 C 
ATOM     20  N   UNL     1       4.600   2.051  19.780  0.00  0.00    +0.000 NA
ENDBRANCH  13  19
ENDBRANCH   1   9
BRANCH   5  21
ATOM     21  O   UNL     1       0.248  10.936  18.426  0.00  0.00    +0.000 OA
BRANCH  21  22
ATOM     22  C   UNL     1      -0.640  12.040  18.619  0.00  0.00    +0.000 C 
BRANCH  22  23
ATOM     23  C   UNL     1      -1.993  11.687  18.059  0.00  0.00    +0.000 A 
ATOM     24  C   UNL     1      -3.160  11.909  18.803  0.00  0.00    +0.000 A 
ATOM     25  C   UNL     1      -4.411  11.607  18.262  0.00  0.00    +0.000 A 
ATOM     26  C   UNL     1      -4.507  11.087  16.970  0.00  0.00    +0.000 A 
ATOM     27  C   UNL     1      -3.351  10.874  16.223  0.00  0.00    +0.000 A 
ATOM     28 CL   UNL     1      -3.468  10.245  14.626  0.00  0.00    +0.000 Cl
ATOM     29  C   UNL     1      -2.100  11.172  16.758  0.00  0.00    +0.000 A 
ENDBRANCH  22  23
ENDBRANCH  21  22
ENDBRANCH   5  21
TORSDOF 6
ENDMDL
MODEL 5
REMARK VINA RESULT:      -7.9      2.057      3.088
REMARK  Name = 
REMARK  7 active torsions:
REMARK  status: ('A' for Active; 'I' for Inactive)
REMARK    1  A    between atoms: C_1  and  S_2
REMARK    2  A    between atoms: S_2  and  C_5
REMARK    3  A    between atoms: C_7  and  C_8
REMARK    4  A    between atoms: C_12  and  O_13
REMARK    5  A    between atoms: O_13  and  C_14
REMARK    6  A    between atoms: C_14  and  C_15
REMARK    7  A    between atoms: C_26  and  C_27
REMARK                            x       y       z     vdW  Elec       q    Type
REMARK                         _______ _______ _______ _____ _____    ______ ____
ROOT
ATOM      1  C   UNL     1       1.594   7.955  20.384  0.00  0.00    +0.000 A 
ATOM      2  C   UNL     1       1.138   8.289  21.665  0.00  0.00    +0.000 A 
ATOM      3  C   UNL     1       0.454   9.486  21.876  0.00  0.00    +0.000 A 
ATOM      4  C   UNL     1       0.239  10.363  20.813  0.00  0.00    +0.000 A 
ATOM      5  C   UNL     1       0.732  10.062  19.544  0.00  0.00    +0.000 A 
ATOM      6  C   UNL     1       1.386   8.847  19.325  0.00  0.00    +0.000 A 
ENDROOT
BRANCH   1   9
ATOM      7  C   UNL     1       3.720   5.152  18.960  0.00  0.00    +0.000 A 
ATOM      8  C   UNL     1       3.079   6.453  19.125  0.00  0.00    +0.000 A 
ATOM      9  C   UNL     1       2.249   6.668  20.152  0.00  0.00    +0.000 A 
ATOM     10  N   UNL     1       1.995   5.658  21.038  0.00  0.00    +0.000 N 
ATOM     11  C   UNL     1       2.536   4.402  20.956  0.00  0.00    +0.000 A 
ATOM     12  O   UNL     1       2.261   3.548  21.791  0.00  0.00    +0.000 OA
ATOM     13  C   UNL     1       3.483   4.143  19.826  0.00  0.00    +0.000 A 
ATOM     14  H   UNL     1       1.355   5.817  21.809  0.00  0.00    +0.000 HD
BRANCH   7  16
ATOM     15  C   UNL     1       4.770   6.537  16.827  0.00  0.00    +0.000 C 
ATOM     16  S   UNL     1       4.816   4.941  17.607  0.00  0.00    +0.000 S 
ATOM     17  O   UNL     1       4.221   4.007  16.668  0.00  0.00    +0.000 OA
ATOM     18  O   UNL     1       6.165   4.711  18.079  0.00  0.00    +0.000 OA
ENDBRANCH   7  16
BRANCH  13  19
ATOM     19  C   UNL     1       4.087   2.855  19.801  0.00  0.00    +0.000 C 
ATOM     20  N   UNL     1       4.630   1.830  19.800  0.00  0.00    +0.000 NA
ENDBRANCH  13  19
ENDBRANCH   1   9
BRANCH   5  21
ATOM     21  O   UNL     1       0.619  10.873  18.448  0.00  0.00    +0.000 OA
BRANCH  21  22
ATOM     22  C   UNL     1      -0.326  11.939  18.574  0.00  0.00    +0.000 C 
BRANCH  22  23
ATOM     23  C   UNL     1      -1.686  11.444  18.159  0.00  0.00    +0.000 A 
ATOM     24  C   UNL     1      -1.821  10.419  17.213  0.00  0.00    +0.000 A 
ATOM     25  C   UNL     1      -3.086   9.946  16.859  0.00  0.00    +0.000 A 
ATOM     26  C   UNL     1      -4.226  10.490  17.452  0.00  0.00    +0.000 A 
ATOM     27  C   UNL     1      -4.097  11.503  18.399  0.00  0.00    +0.000 A 
ATOM     28 CL   UNL     1      -5.501  12.167  19.141  0.00  0.00    +0.000 Cl
ATOM     29  C   UNL     1      -2.838  11.979  18.756  0.00  0.00    +0.000 A 
ENDBRANCH  22  23
ENDBRANCH  21  22
ENDBRANCH   5  21
TORSDOF 6
ENDMDL
MODEL 6
REMARK VINA RESULT:      -7.9      2.831      3.934
REMARK  Name = 
REMARK  7 active torsions:
REMARK  status: ('A' for Active; 'I' for Inactive)
REMARK    1  A    between atoms: C_1  and  S_2
REMARK    2  A    between atoms: S_2  and  C_5
REMARK    3  A    between atoms: C_7  and  C_8
REMARK    4  A    between atoms: C_12  and  O_13
REMARK    5  A    between atoms: O_13  and  C_14
REMARK    6  A    between atoms: C_14  and  C_15
REMARK    7  A    between atoms: C_26  and  C_27
REMARK                            x       y       z     vdW  Elec       q    Type
REMARK                         _______ _______ _______ _____ _____    ______ ____
ROOT
ATOM      1  C   UNL     1       1.929   8.018  19.255  0.00  0.00    +0.000 A 
ATOM      2  C   UNL     1       1.896   8.699  18.032  0.00  0.00    +0.000 A 
ATOM      3  C   UNL     1       1.333   9.972  17.954  0.00  0.00    +0.000 A 
ATOM      4  C   UNL     1       0.784  10.563  19.091  0.00  0.00    +0.000 A 
ATOM      5  C   UNL     1       0.768   9.873  20.303  0.00  0.00    +0.000 A 
ATOM      6  C   UNL     1       1.364   8.612  20.390  0.00  0.00    +0.000 A 
ENDROOT
BRANCH   1   9
ATOM      7  C   UNL     1       4.183   5.019  18.675  0.00  0.00    +0.000 A 
ATOM      8  C   UNL     1       3.554   6.326  18.514  0.00  0.00    +0.000 A 
ATOM      9  C   UNL     1       2.583   6.712  19.349  0.00  0.00    +0.000 A 
ATOM     10  N   UNL     1       2.175   5.870  20.346  0.00  0.00    +0.000 N 
ATOM     11  C   UNL     1       2.693   4.621  20.564  0.00  0.00    +0.000 A 
ATOM     12  O   UNL     1       2.275   3.923  21.481  0.00  0.00    +0.000 OA
ATOM     13  C   UNL     1       3.795   4.174  19.654  0.00  0.00    +0.000 A 
ATOM     14  H   UNL     1       1.429   6.158  20.971  0.00  0.00    +0.000 HD
BRANCH   7  16
ATOM     15  C   UNL     1       5.645   6.058  16.589  0.00  0.00    +0.000 C 
ATOM     16  S   UNL     1       5.466   4.582  17.562  0.00  0.00    +0.000 S 
ATOM     17  O   UNL     1       4.973   3.553  16.663  0.00  0.00    +0.000 OA
ATOM     18  O   UNL     1       6.706   4.364  18.279  0.00  0.00    +0.000 OA
ENDBRANCH   7  16
BRANCH  13  19
ATOM     19  C   UNL     1       4.366   2.903  19.943  0.00  0.00    +0.000 C 
ATOM     20  N   UNL     1       4.795   1.863  20.224  0.00  0.00    +0.000 NA
ENDBRANCH  13  19
ENDBRANCH   1   9
BRANCH   5  21
ATOM     21  O   UNL     1       0.213  10.341  21.463  0.00  0.00    +0.000 OA
BRANCH  21  22
ATOM     22  C   UNL     1       0.026  11.757  21.521  0.00  0.00    +0.000 C 
BRANCH  22  23
ATOM     23  C   UNL     1      -1.409  12.051  21.871  0.00  0.00    +0.000 A 
ATOM     24  C   UNL     1      -1.852  11.991  23.199  0.00  0.00    +0.000 A 
ATOM     25  C   UNL     1      -3.177  12.296  23.516  0.00  0.00    +0.000 A 
ATOM     26  C   UNL     1      -4.069  12.669  22.509  0.00  0.00    +0.000 A 
ATOM     27  C   UNL     1      -3.631  12.738  21.189  0.00  0.00    +0.000 A 
ATOM     28 CL   UNL     1      -4.725  13.210  19.948  0.00  0.00    +0.000 Cl
ATOM     29  C   UNL     1      -2.310  12.435  20.867  0.00  0.00    +0.000 A 
ENDBRANCH  22  23
ENDBRANCH  21  22
ENDBRANCH   5  21
TORSDOF 6
ENDMDL
MODEL 7
REMARK VINA RESULT:      -7.8      1.184      1.547
REMARK  Name = 
REMARK  7 active torsions:
REMARK  status: ('A' for Active; 'I' for Inactive)
REMARK    1  A    between atoms: C_1  and  S_2
REMARK    2  A    between atoms: S_2  and  C_5
REMARK    3  A    between atoms: C_7  and  C_8
REMARK    4  A    between atoms: C_12  and  O_13
REMARK    5  A    between atoms: O_13  and  C_14
REMARK    6  A    between atoms: C_14  and  C_15
REMARK    7  A    between atoms: C_26  and  C_27
REMARK                            x       y       z     vdW  Elec       q    Type
REMARK                         _______ _______ _______ _____ _____    ______ ____
ROOT
ATOM      1  C   UNL     1       1.785   7.989  19.797  0.00  0.00    +0.000 A 
ATOM      2  C   UNL     1       1.486   7.868  21.159  0.00  0.00    +0.000 A 
ATOM      3  C   UNL     1       0.631   8.782  21.773  0.00  0.00    +0.000 A 
ATOM      4  C   UNL     1       0.086   9.832  21.035  0.00  0.00    +0.000 A 
ATOM      5  C   UNL     1       0.417   9.990  19.689  0.00  0.00    +0.000 A 
ATOM      6  C   UNL     1       1.246   9.054  19.066  0.00  0.00    +0.000 A 
ENDROOT
BRANCH   1   9
ATOM      7  C   UNL     1       3.588   4.777  18.878  0.00  0.00    +0.000 A 
ATOM      8  C   UNL     1       2.750   5.736  19.592  0.00  0.00    +0.000 A 
ATOM      9  C   UNL     1       2.627   6.988  19.139  0.00  0.00    +0.000 A 
ATOM     10  N   UNL     1       3.299   7.369  18.012  0.00  0.00    +0.000 N 
ATOM     11  C   UNL     1       4.119   6.546  17.285  0.00  0.00    +0.000 A 
ATOM     12  O   UNL     1       4.688   6.960  16.281  0.00  0.00    +0.000 OA
ATOM     13  C   UNL     1       4.259   5.133  17.761  0.00  0.00    +0.000 A 
ATOM     14  H   UNL     1       3.216   8.323  17.676  0.00  0.00    +0.000 HD
BRANCH   7  16
ATOM     15  C   UNL     1       2.963   2.185  18.201  0.00  0.00    +0.000 C 
ATOM     16  S   UNL     1       3.690   3.144  19.509  0.00  0.00    +0.000 S 
ATOM     17  O   UNL     1       2.797   3.028  20.648  0.00  0.00    +0.000 OA
ATOM     18  O   UNL     1       5.073   2.739  19.647  0.00  0.00    +0.000 OA
ENDBRANCH   7  16
BRANCH  13  19
ATOM     19  C   UNL     1       5.058   4.278  16.952  0.00  0.00    +0.000 C 
ATOM     20  N   UNL     1       5.665   3.578  16.254  0.00  0.00    +0.000 NA
ENDBRANCH  13  19
ENDBRANCH   1   9
BRANCH   5  21
ATOM     21  O   UNL     1      -0.022  11.010  18.889  0.00  0.00    +0.000 OA
BRANCH  21  22
ATOM     22  C   UNL     1      -1.315  11.526  19.216  0.00  0.00    +0.000 C 
BRANCH  22  23
ATOM     23  C   UNL     1      -2.255  11.260  18.070  0.00  0.00    +0.000 A 
ATOM     24  C   UNL     1      -1.887  10.409  17.019  0.00  0.00    +0.000 A 
ATOM     25  C   UNL     1      -2.779  10.145  15.978  0.00  0.00    +0.000 A 
ATOM     26  C   UNL     1      -4.048  10.725  15.982  0.00  0.00    +0.000 A 
ATOM     27  C   UNL     1      -4.423  11.564  17.028  0.00  0.00    +0.000 A 
ATOM     28 CL   UNL     1      -5.992  12.270  17.041  0.00  0.00    +0.000 Cl
ATOM     29  C   UNL     1      -3.537  11.831  18.070  0.00  0.00    +0.000 A 
ENDBRANCH  22  23
ENDBRANCH  21  22
ENDBRANCH   5  21
TORSDOF 6
ENDMDL
MODEL 8
REMARK VINA RESULT:      -7.8      3.462      4.635
REMARK  Name = 
REMARK  7 active torsions:
REMARK  status: ('A' for Active; 'I' for Inactive)
REMARK    1  A    between atoms: C_1  and  S_2
REMARK    2  A    between atoms: S_2  and  C_5
REMARK    3  A    between atoms: C_7  and  C_8
REMARK    4  A    between atoms: C_12  and  O_13
REMARK    5  A    between atoms: O_13  and  C_14
REMARK    6  A    between atoms: C_14  and  C_15
REMARK    7  A    between atoms: C_26  and  C_27
REMARK                            x       y       z     vdW  Elec       q    Type
REMARK                         _______ _______ _______ _____ _____    ______ ____
ROOT
ATOM      1  C   UNL     1       1.660   8.277  19.768  0.00  0.00    +0.000 A 
ATOM      2  C   UNL     1       1.376   8.988  18.597  0.00  0.00    +0.000 A 
ATOM      3  C   UNL     1       0.828  10.268  18.669  0.00  0.00    +0.000 A 
ATOM      4  C   UNL     1       0.543  10.836  19.911  0.00  0.00    +0.000 A 
ATOM      5  C   UNL     1       0.777  10.115  21.082  0.00  0.00    +0.000 A 
ATOM      6  C   UNL     1       1.358   8.847  21.011  0.00  0.00    +0.000 A 
ENDROOT
BRANCH   1   9
ATOM      7  C   UNL     1       3.788   5.314  18.718  0.00  0.00    +0.000 A 
ATOM      8  C   UNL     1       3.166   6.634  18.727  0.00  0.00    +0.000 A 
ATOM      9  C   UNL     1       2.299   6.963  19.692  0.00  0.00    +0.000 A 
ATOM     10  N   UNL     1       1.991   6.050  20.661  0.00  0.00    +0.000 N 
ATOM     11  C   UNL     1       2.510   4.784  20.726  0.00  0.00    +0.000 A 
ATOM     12  O   UNL     1       2.185   4.021  21.629  0.00  0.00    +0.000 OA
ATOM     13  C   UNL     1       3.497   4.399  19.669  0.00  0.00    +0.000 A 
ATOM     14  H   UNL     1       1.323   6.294  21.386  0.00  0.00    +0.000 HD
BRANCH   7  16
ATOM     15  C   UNL     1       4.985   6.481  16.533  0.00  0.00    +0.000 C 
ATOM     16  S   UNL     1       4.934   4.953  17.440  0.00  0.00    +0.000 S 
ATOM     17  O   UNL     1       4.345   3.967  16.552  0.00  0.00    +0.000 OA
ATOM     18  O   UNL     1       6.251   4.716  17.993  0.00  0.00    +0.000 OA
ENDBRANCH   7  16
BRANCH  13  19
ATOM     19  C   UNL     1       4.077   3.107  19.796  0.00  0.00    +0.000 C 
ATOM     20  N   UNL     1       4.530   2.040  19.845  0.00  0.00    +0.000 NA
ENDBRANCH  13  19
ENDBRANCH   1   9
BRANCH   5  21
ATOM     21  O   UNL     1       0.489  10.559  22.344  0.00  0.00    +0.000 OA
BRANCH  21  22
ATOM     22  C   UNL     1      -0.874  10.405  22.748  0.00  0.00    +0.000 C 
BRANCH  22  23
ATOM     23  C   UNL     1      -1.478  11.766  22.975  0.00  0.00    +0.000 A 
ATOM     24  C   UNL     1      -2.798  11.902  23.426  0.00  0.00    +0.000 A 
ATOM     25  C   UNL     1      -3.336  13.168  23.664  0.00  0.00    +0.000 A 
ATOM     26  C   UNL     1      -2.558  14.308  23.459  0.00  0.00    +0.000 A 
ATOM     27  C   UNL     1      -1.243  14.178  23.020  0.00  0.00    +0.000 A 
ATOM     28 CL   UNL     1      -0.278  15.582  22.779  0.00  0.00    +0.000 Cl
ATOM     29  C   UNL     1      -0.700  12.918  22.781  0.00  0.00    +0.000 A 
ENDBRANCH  22  23
ENDBRANCH  21  22
ENDBRANCH   5  21
TORSDOF 6
ENDMDL
MODEL 9
REMARK VINA RESULT:      -7.8      1.386      1.730
REMARK  Name = 
REMARK  7 active torsions:
REMARK  status: ('A' for Active; 'I' for Inactive)
REMARK    1  A    between atoms: C_1  and  S_2
REMARK    2  A    between atoms: S_2  and  C_5
REMARK    3  A    between atoms: C_7  and  C_8
REMARK    4  A    between atoms: C_12  and  O_13
REMARK    5  A    between atoms: O_13  and  C_14
REMARK    6  A    between atoms: C_14  and  C_15
REMARK    7  A    between atoms: C_26  and  C_27
REMARK                            x       y       z     vdW  Elec       q    Type
REMARK                         _______ _______ _______ _____ _____    ______ ____
ROOT
ATOM      1  C   UNL     1       1.130   8.541  20.726  0.00  0.00    +0.000 A 
ATOM      2  C   UNL     1       1.006   8.526  22.121  0.00  0.00    +0.000 A 
ATOM      3  C   UNL     1       0.271   9.518  22.770  0.00  0.00    +0.000 A 
ATOM      4  C   UNL     1      -0.326  10.539  22.031  0.00  0.00    +0.000 A 
ATOM      5  C   UNL     1      -0.167  10.590  20.646  0.00  0.00    +0.000 A 
ATOM      6  C   UNL     1       0.539   9.577  19.993  0.00  0.00    +0.000 A 
ENDROOT
BRANCH   1   9
ATOM      7  C   UNL     1       2.567   5.165  19.755  0.00  0.00    +0.000 A 
ATOM      8  C   UNL     1       1.857   6.203  20.496  0.00  0.00    +0.000 A 
ATOM      9  C   UNL     1       1.842   7.461  20.042  0.00  0.00    +0.000 A 
ATOM     10  N   UNL     1       2.506   7.771  18.888  0.00  0.00    +0.000 N 
ATOM     11  C   UNL     1       3.211   6.870  18.135  0.00  0.00    +0.000 A 
ATOM     12  O   UNL     1       3.781   7.225  17.109  0.00  0.00    +0.000 OA
ATOM     13  C   UNL     1       3.227   5.451  18.612  0.00  0.00    +0.000 A 
ATOM     14  H   UNL     1       2.505   8.729  18.551  0.00  0.00    +0.000 HD
BRANCH   7  16
ATOM     15  C   UNL     1       1.364   2.731  19.311  0.00  0.00    +0.000 C 
ATOM     16  S   UNL     1       2.530   3.530  20.389  0.00  0.00    +0.000 S 
ATOM     17  O   UNL     1       1.920   3.556  21.707  0.00  0.00    +0.000 OA
ATOM     18  O   UNL     1       3.816   2.889  20.214  0.00  0.00    +0.000 OA
ENDBRANCH   7  16
BRANCH  13  19
ATOM     19  C   UNL     1       3.906   4.520  17.777  0.00  0.00    +0.000 C 
ATOM     20  N   UNL     1       4.442   3.793  17.050  0.00  0.00    +0.000 NA
ENDBRANCH  13  19
ENDBRANCH   1   9
BRANCH   5  21
ATOM     21  O   UNL     1      -0.669  11.572  19.837  0.00  0.00    +0.000 OA
BRANCH  21  22
ATOM     22  C   UNL     1      -0.614  11.294  18.436  0.00  0.00    +0.000 C 
BRANCH  22  23
ATOM     23  C   UNL     1      -2.017  11.232  17.890  0.00  0.00    +0.000 A 
ATOM     24  C   UNL     1      -3.103  11.704  18.641  0.00  0.00    +0.000 A 
ATOM     25  C   UNL     1      -4.394  11.671  18.113  0.00  0.00    +0.000 A 
ATOM     26  C   UNL     1      -4.612  11.172  16.828  0.00  0.00    +0.000 A 
ATOM     27  C   UNL     1      -3.535  10.711  16.074  0.00  0.00    +0.000 A 
ATOM     28 CL   UNL     1      -3.799  10.107  14.485  0.00  0.00    +0.000 Cl
ATOM     29  C   UNL     1      -2.244  10.741  16.596  0.00  0.00    +0.000 A 
ENDBRANCH  22  23
ENDBRANCH  21  22
ENDBRANCH   5  21
TORSDOF 6
ENDMDL
