MODEL 1
REMARK VINA RESULT:      -8.7      0.000      0.000
REMARK  Name = 
REMARK  8 active torsions:
REMARK  status: ('A' for Active; 'I' for Inactive)
REMARK    1  A    between atoms: C_1  and  O_2
REMARK    2  A    between atoms: O_2  and  C_3
REMARK    3  A    between atoms: C_6  and  N_7
REMARK    4  A    between atoms: C_11  and  C_31
REMARK    5  A    between atoms: N_12  and  N_13
REMARK    6  A    between atoms: N_13  and  C_14
REMARK    7  A    between atoms: C_21  and  C_22
REMARK    8  A    between atoms: C_31  and  C_32
REMARK                            x       y       z     vdW  Elec       q    Type
REMARK                         _______ _______ _______ _____ _____    ______ ____
ROOT
ATOM      1  N   UNL     1       4.504   4.413  17.364  0.00  0.00    +0.000 N 
ATOM      2  C   UNL     1       4.968   4.743  18.721  0.00  0.00    +0.000 C 
ATOM      3  C   UNL     1       4.169   5.933  19.324  0.00  0.00    +0.000 C 
ATOM      4  N   UNL     1       2.695   5.760  19.238  0.00  0.00    +0.000 N 
ATOM      5  C   UNL     1       1.900   5.501  20.383  0.00  0.00    +0.000 C 
ATOM      6  N   UNL     1       1.565   6.344  21.333  0.00  0.00    +0.000 NA
ATOM      7  C   UNL     1       2.258   5.323  17.880  0.00  0.00    +0.000 C 
ATOM      8  C   UNL     1       3.062   4.134  17.284  0.00  0.00    +0.000 C 
ENDROOT
BRANCH   1  12
ATOM      9  C   UNL     1       6.944   4.536  13.896  0.00  0.00    +0.000 A 
ATOM     10  C   UNL     1       5.682   3.950  13.855  0.00  0.00    +0.000 A 
ATOM     11  C   UNL     1       4.873   3.912  15.010  0.00  0.00    +0.000 A 
ATOM     12  C   UNL     1       5.308   4.424  16.238  0.00  0.00    +0.000 A 
ATOM     13  C   UNL     1       6.599   4.963  16.261  0.00  0.00    +0.000 A 
ATOM     14  C   UNL     1       7.406   5.031  15.108  0.00  0.00    +0.000 A 
BRANCH   9  16
ATOM     15  C   UNL     1       7.082   3.815  11.648  0.00  0.00    +0.000 C 
ATOM     16  O   UNL     1       7.653   4.546  12.728  0.00  0.00    +0.000 OA
ENDBRANCH   9  16
ENDBRANCH   1  12
BRANCH   5  17
ATOM     17  C   UNL     1       1.297   4.079  20.571  0.00  0.00    +0.000 C 
ATOM     18  C   UNL     1       1.884   3.192  21.636  0.00  0.00    +0.000 C 
ATOM     19  O   UNL     1       0.342   3.717  19.891  0.00  0.00    +0.000 OA
ENDBRANCH   5  17
BRANCH   6  20
ATOM     20  N   UNL     1       2.038   7.607  21.208  0.00  0.00    +0.000 N 
ATOM     21  H   UNL     1       2.913   7.690  20.685  0.00  0.00    +0.000 HD
BRANCH  20  22
ATOM     22  C   UNL     1       1.210   8.756  21.076  0.00  0.00    +0.000 A 
ATOM     23  C   UNL     1       0.813   9.024  19.752  0.00  0.00    +0.000 A 
ATOM     24  C   UNL     1      -0.044  10.068  19.446  0.00  0.00    +0.000 A 
ATOM     25  C   UNL     1      -0.520  10.874  20.473  0.00  0.00    +0.000 A 
ATOM     26  C   UNL     1      -1.619  11.780  20.168  0.00  0.00    +0.000 A 
ATOM     27  O   UNL     1      -1.960  12.053  19.023  0.00  0.00    +0.000 OA
ATOM     28  C   UNL     1      -2.310  12.357  21.304  0.00  0.00    +0.000 A 
ATOM     29  C   UNL     1      -1.638  12.466  22.460  0.00  0.00    +0.000 A 
ATOM     30  O   UNL     1      -0.489  11.682  22.756  0.00  0.00    +0.000 OA
ATOM     31  C   UNL     1      -0.066  10.757  21.789  0.00  0.00    +0.000 A 
ATOM     32  C   UNL     1       0.827   9.686  22.086  0.00  0.00    +0.000 A 
BRANCH  29  33
ATOM     33  C   UNL     1      -2.109  13.530  23.407  0.00  0.00    +0.000 A 
ATOM     34  C   UNL     1      -1.255  14.437  24.053  0.00  0.00    +0.000 A 
ATOM     35  C   UNL     1      -1.770  15.420  24.926  0.00  0.00    +0.000 A 
ATOM     36  C   UNL     1      -3.141  15.528  25.174  0.00  0.00    +0.000 A 
ATOM     37  C   UNL     1      -4.011  14.670  24.531  0.00  0.00    +0.000 A 
ATOM     38  C   UNL     1      -3.502  13.707  23.657  0.00  0.00    +0.000 A 
ENDBRANCH  29  33
ENDBRANCH  20  22
ENDBRANCH   6  20
TORSDOF 6
ENDMDL
MODEL 2
REMARK VINA RESULT:      -8.7      2.847     12.526
REMARK  Name = 
REMARK  8 active torsions:
REMARK  status: ('A' for Active; 'I' for Inactive)
REMARK    1  A    between atoms: C_1  and  O_2
REMARK    2  A    between atoms: O_2  and  C_3
REMARK    3  A    between atoms: C_6  and  N_7
REMARK    4  A    between atoms: C_11  and  C_31
REMARK    5  A    between atoms: N_12  and  N_13
REMARK    6  A    between atoms: N_13  and  C_14
REMARK    7  A    between atoms: C_21  and  C_22
REMARK    8  A    between atoms: C_31  and  C_32
REMARK                            x       y       z     vdW  Elec       q    Type
REMARK                         _______ _______ _______ _____ _____    ______ ____
ROOT
ATOM      1  N   UNL     1      -1.872  12.603  21.731  0.00  0.00    +0.000 N 
ATOM      2  C   UNL     1      -0.690  11.865  22.208  0.00  0.00    +0.000 C 
ATOM      3  C   UNL     1      -0.225  10.802  21.172  0.00  0.00    +0.000 C 
ATOM      4  N   UNL     1      -0.059  11.347  19.799  0.00  0.00    +0.000 N 
ATOM      5  C   UNL     1       1.219  11.523  19.210  0.00  0.00    +0.000 C 
ATOM      6  N   UNL     1       2.021  10.593  18.744  0.00  0.00    +0.000 NA
ATOM      7  C   UNL     1      -1.224  12.178  19.378  0.00  0.00    +0.000 C 
ATOM      8  C   UNL     1      -1.684  13.238  20.419  0.00  0.00    +0.000 C 
ENDROOT
BRANCH   1  12
ATOM      9  C   UNL     1      -5.585  12.665  23.784  0.00  0.00    +0.000 A 
ATOM     10  C   UNL     1      -5.538  12.783  22.397  0.00  0.00    +0.000 A 
ATOM     11  C   UNL     1      -4.302  12.760  21.719  0.00  0.00    +0.000 A 
ATOM     12  C   UNL     1      -3.084  12.653  22.399  0.00  0.00    +0.000 A 
ATOM     13  C   UNL     1      -3.159  12.585  23.795  0.00  0.00    +0.000 A 
ATOM     14  C   UNL     1      -4.389  12.580  24.482  0.00  0.00    +0.000 A 
BRANCH   9  16
ATOM     15  C   UNL     1      -7.917  12.401  23.487  0.00  0.00    +0.000 C 
ATOM     16  O   UNL     1      -6.825  12.678  24.358  0.00  0.00    +0.000 OA
ENDBRANCH   9  16
ENDBRANCH   1  12
BRANCH   5  17
ATOM     17  C   UNL     1       1.772  12.967  19.035  0.00  0.00    +0.000 C 
ATOM     18  C   UNL     1       2.029  13.785  20.271  0.00  0.00    +0.000 C 
ATOM     19  O   UNL     1       2.024  13.401  17.915  0.00  0.00    +0.000 OA
ENDBRANCH   5  17
BRANCH   6  20
ATOM     20  N   UNL     1       1.580   9.316  18.844  0.00  0.00    +0.000 N 
ATOM     21  H   UNL     1       0.586   9.186  18.641  0.00  0.00    +0.000 HD
BRANCH  20  22
ATOM     22  C   UNL     1       2.361   8.176  18.503  0.00  0.00    +0.000 A 
ATOM     23  C   UNL     1       2.389   7.184  19.502  0.00  0.00    +0.000 A 
ATOM     24  C   UNL     1       3.050   5.982  19.316  0.00  0.00    +0.000 A 
ATOM     25  C   UNL     1       3.707   5.752  18.113  0.00  0.00    +0.000 A 
ATOM     26  C   UNL     1       4.155   4.393  17.836  0.00  0.00    +0.000 A 
ATOM     27  O   UNL     1       4.218   3.523  18.697  0.00  0.00    +0.000 OA
ATOM     28  C   UNL     1       4.529   4.108  16.465  0.00  0.00    +0.000 A 
ATOM     29  C   UNL     1       4.938   5.130  15.698  0.00  0.00    +0.000 A 
ATOM     30  O   UNL     1       4.621   6.484  15.993  0.00  0.00    +0.000 OA
ATOM     31  C   UNL     1       3.839   6.736  17.131  0.00  0.00    +0.000 A 
ATOM     32  C   UNL     1       3.164   7.975  17.343  0.00  0.00    +0.000 A 
BRANCH  29  33
ATOM     33  C   UNL     1       5.833   4.781  14.546  0.00  0.00    +0.000 A 
ATOM     34  C   UNL     1       7.092   5.361  14.329  0.00  0.00    +0.000 A 
ATOM     35  C   UNL     1       7.886   4.978  13.225  0.00  0.00    +0.000 A 
ATOM     36  C   UNL     1       7.450   4.011  12.316  0.00  0.00    +0.000 A 
ATOM     37  C   UNL     1       6.227   3.400  12.517  0.00  0.00    +0.000 A 
ATOM     38  C   UNL     1       5.450   3.769  13.616  0.00  0.00    +0.000 A 
ENDBRANCH  29  33
ENDBRANCH  20  22
ENDBRANCH   6  20
TORSDOF 6
ENDMDL
MODEL 3
REMARK VINA RESULT:      -8.7      1.951      2.573
REMARK  Name = 
REMARK  8 active torsions:
REMARK  status: ('A' for Active; 'I' for Inactive)
REMARK    1  A    between atoms: C_1  and  O_2
REMARK    2  A    between atoms: O_2  and  C_3
REMARK    3  A    between atoms: C_6  and  N_7
REMARK    4  A    between atoms: C_11  and  C_31
REMARK    5  A    between atoms: N_12  and  N_13
REMARK    6  A    between atoms: N_13  and  C_14
REMARK    7  A    between atoms: C_21  and  C_22
REMARK    8  A    between atoms: C_31  and  C_32
REMARK                            x       y       z     vdW  Elec       q    Type
REMARK                         _______ _______ _______ _____ _____    ______ ____
ROOT
ATOM      1  N   UNL     1       4.564   4.575  17.423  0.00  0.00    +0.000 N 
ATOM      2  C   UNL     1       5.003   5.044  18.748  0.00  0.00    +0.000 C 
ATOM      3  C   UNL     1       4.113   6.212  19.262  0.00  0.00    +0.000 C 
ATOM      4  N   UNL     1       2.657   5.919  19.200  0.00  0.00    +0.000 N 
ATOM      5  C   UNL     1       1.887   5.688  20.367  0.00  0.00    +0.000 C 
ATOM      6  N   UNL     1       1.487   6.573  21.251  0.00  0.00    +0.000 NA
ATOM      7  C   UNL     1       2.255   5.345  17.883  0.00  0.00    +0.000 C 
ATOM      8  C   UNL     1       3.149   4.179  17.374  0.00  0.00    +0.000 C 
ENDROOT
BRANCH   1  12
ATOM      9  C   UNL     1       6.996   4.623  13.947  0.00  0.00    +0.000 A 
ATOM     10  C   UNL     1       5.709   4.091  13.906  0.00  0.00    +0.000 A 
ATOM     11  C   UNL     1       4.904   4.078  15.064  0.00  0.00    +0.000 A 
ATOM     12  C   UNL     1       5.365   4.561  16.294  0.00  0.00    +0.000 A 
ATOM     13  C   UNL     1       6.678   5.045  16.316  0.00  0.00    +0.000 A 
ATOM     14  C   UNL     1       7.483   5.088  15.161  0.00  0.00    +0.000 A 
BRANCH   9  16
ATOM     15  C   UNL     1       7.096   3.914  11.692  0.00  0.00    +0.000 C 
ATOM     16  O   UNL     1       7.701   4.613  12.776  0.00  0.00    +0.000 OA
ENDBRANCH   9  16
ENDBRANCH   1  12
BRANCH   5  17
ATOM     17  C   UNL     1       1.396   4.242  20.668  0.00  0.00    +0.000 C 
ATOM     18  C   UNL     1       2.168   3.423  21.667  0.00  0.00    +0.000 C 
ATOM     19  O   UNL     1       0.383   3.808  20.130  0.00  0.00    +0.000 OA
ENDBRANCH   5  17
BRANCH   6  20
ATOM     20  N   UNL     1       1.860   7.856  21.026  0.00  0.00    +0.000 N 
ATOM     21  H   UNL     1       2.475   7.991  20.220  0.00  0.00    +0.000 HD
BRANCH  20  22
ATOM     22  C   UNL     1       1.026   8.981  21.272  0.00  0.00    +0.000 A 
ATOM     23  C   UNL     1       0.153   8.816  22.365  0.00  0.00    +0.000 A 
ATOM     24  C   UNL     1      -0.688   9.832  22.786  0.00  0.00    +0.000 A 
ATOM     25  C   UNL     1      -0.672  11.046  22.108  0.00  0.00    +0.000 A 
ATOM     26  C   UNL     1      -1.353  12.175  22.727  0.00  0.00    +0.000 A 
ATOM     27  O   UNL     1      -2.142  12.051  23.657  0.00  0.00    +0.000 OA
ATOM     28  C   UNL     1      -1.048  13.484  22.185  0.00  0.00    +0.000 A 
ATOM     29  C   UNL     1      -0.628  13.556  20.912  0.00  0.00    +0.000 A 
ATOM     30  O   UNL     1      -0.061  12.445  20.229  0.00  0.00    +0.000 OA
ATOM     31  C   UNL     1       0.063  11.239  20.936  0.00  0.00    +0.000 A 
ATOM     32  C   UNL     1       0.913  10.178  20.508  0.00  0.00    +0.000 A 
BRANCH  29  33
ATOM     33  C   UNL     1      -0.866  14.857  20.204  0.00  0.00    +0.000 A 
ATOM     34  C   UNL     1      -0.134  15.285  19.086  0.00  0.00    +0.000 A 
ATOM     35  C   UNL     1      -0.419  16.520  18.464  0.00  0.00    +0.000 A 
ATOM     36  C   UNL     1      -1.437  17.354  18.933  0.00  0.00    +0.000 A 
ATOM     37  C   UNL     1      -2.195  16.949  20.014  0.00  0.00    +0.000 A 
ATOM     38  C   UNL     1      -1.922  15.721  20.619  0.00  0.00    +0.000 A 
ENDBRANCH  29  33
ENDBRANCH  20  22
ENDBRANCH   6  20
TORSDOF 6
ENDMDL
MODEL 4
REMARK VINA RESULT:      -8.7      3.075     11.822
REMARK  Name = 
REMARK  8 active torsions:
REMARK  status: ('A' for Active; 'I' for Inactive)
REMARK    1  A    between atoms: C_1  and  O_2
REMARK    2  A    between atoms: O_2  and  C_3
REMARK    3  A    between atoms: C_6  and  N_7
REMARK    4  A    between atoms: C_11  and  C_31
REMARK    5  A    between atoms: N_12  and  N_13
REMARK    6  A    between atoms: N_13  and  C_14
REMARK    7  A    between atoms: C_21  and  C_22
REMARK    8  A    between atoms: C_31  and  C_32
REMARK                            x       y       z     vdW  Elec       q    Type
REMARK                         _______ _______ _______ _____ _____    ______ ____
ROOT
ATOM      1  N   UNL     1      -0.624  13.209  20.570  0.00  0.00    +0.000 N 
ATOM      2  C   UNL     1      -1.259  11.969  20.093  0.00  0.00    +0.000 C 
ATOM      3  C   UNL     1      -0.201  10.923  19.640  0.00  0.00    +0.000 C 
ATOM      4  N   UNL     1       0.863  10.682  20.650  0.00  0.00    +0.000 N 
ATOM      5  C   UNL     1       0.943   9.472  21.383  0.00  0.00    +0.000 C 
ATOM      6  N   UNL     1       1.338   8.297  20.950  0.00  0.00    +0.000 NA
ATOM      7  C   UNL     1       1.419  11.954  21.195  0.00  0.00    +0.000 C 
ATOM      8  C   UNL     1       0.356  12.995  21.645  0.00  0.00    +0.000 C 
ENDROOT
BRANCH   1  12
ATOM      9  C   UNL     1      -1.255  17.085  18.966  0.00  0.00    +0.000 A 
ATOM     10  C   UNL     1      -2.058  16.605  19.998  0.00  0.00    +0.000 A 
ATOM     11  C   UNL     1      -1.843  15.315  20.529  0.00  0.00    +0.000 A 
ATOM     12  C   UNL     1      -0.853  14.462  20.030  0.00  0.00    +0.000 A 
ATOM     13  C   UNL     1      -0.094  14.953  18.961  0.00  0.00    +0.000 A 
ATOM     14  C   UNL     1      -0.281  16.249  18.440  0.00  0.00    +0.000 A 
BRANCH   9  16
ATOM     15  C   UNL     1      -1.142  18.631  17.179  0.00  0.00    +0.000 C 
ATOM     16  O   UNL     1      -1.520  18.351  18.524  0.00  0.00    +0.000 OA
ENDBRANCH   9  16
ENDBRANCH   1  12
BRANCH   5  17
ATOM     17  C   UNL     1       0.565   9.484  22.893  0.00  0.00    +0.000 C 
ATOM     18  C   UNL     1      -0.871   9.736  23.265  0.00  0.00    +0.000 C 
ATOM     19  O   UNL     1       1.417   9.254  23.745  0.00  0.00    +0.000 OA
ENDBRANCH   5  17
BRANCH   6  20
ATOM     20  N   UNL     1       1.707   8.231  19.649  0.00  0.00    +0.000 N 
ATOM     21  H   UNL     1       1.886   9.135  19.205  0.00  0.00    +0.000 HD
BRANCH  20  22
ATOM     22  C   UNL     1       2.500   7.185  19.100  0.00  0.00    +0.000 A 
ATOM     23  C   UNL     1       2.594   6.047  19.924  0.00  0.00    +0.000 A 
ATOM     24  C   UNL     1       3.276   4.911  19.523  0.00  0.00    +0.000 A 
ATOM     25  C   UNL     1       3.885   4.896  18.273  0.00  0.00    +0.000 A 
ATOM     26  C   UNL     1       4.354   3.613  17.765  0.00  0.00    +0.000 A 
ATOM     27  O   UNL     1       4.475   2.619  18.472  0.00  0.00    +0.000 OA
ATOM     28  C   UNL     1       4.675   3.561  16.352  0.00  0.00    +0.000 A 
ATOM     29  C   UNL     1       5.026   4.704  15.745  0.00  0.00    +0.000 A 
ATOM     30  O   UNL     1       4.690   5.984  16.265  0.00  0.00    +0.000 OA
ATOM     31  C   UNL     1       3.952   6.028  17.459  0.00  0.00    +0.000 A 
ATOM     32  C   UNL     1       3.257   7.195  17.893  0.00  0.00    +0.000 A 
BRANCH  29  33
ATOM     33  C   UNL     1       5.879   4.572  14.518  0.00  0.00    +0.000 A 
ATOM     34  C   UNL     1       7.076   5.275  14.316  0.00  0.00    +0.000 A 
ATOM     35  C   UNL     1       7.833   5.094  13.137  0.00  0.00    +0.000 A 
ATOM     36  C   UNL     1       7.422   4.210  12.137  0.00  0.00    +0.000 A 
ATOM     37  C   UNL     1       6.263   3.480  12.317  0.00  0.00    +0.000 A 
ATOM     38  C   UNL     1       5.523   3.650  13.489  0.00  0.00    +0.000 A 
ENDBRANCH  29  33
ENDBRANCH  20  22
ENDBRANCH   6  20
TORSDOF 6
ENDMDL
MODEL 5
REMARK VINA RESULT:      -8.4      2.799     12.594
REMARK  Name = 
REMARK  8 active torsions:
REMARK  status: ('A' for Active; 'I' for Inactive)
REMARK    1  A    between atoms: C_1  and  O_2
REMARK    2  A    between atoms: O_2  and  C_3
REMARK    3  A    between atoms: C_6  and  N_7
REMARK    4  A    between atoms: C_11  and  C_31
REMARK    5  A    between atoms: N_12  and  N_13
REMARK    6  A    between atoms: N_13  and  C_14
REMARK    7  A    between atoms: C_21  and  C_22
REMARK    8  A    between atoms: C_31  and  C_32
REMARK                            x       y       z     vdW  Elec       q    Type
REMARK                         _______ _______ _______ _____ _____    ______ ____
ROOT
ATOM      1  N   UNL     1      -2.079  12.753  21.704  0.00  0.00    +0.000 N 
ATOM      2  C   UNL     1      -0.846  12.160  22.248  0.00  0.00    +0.000 C 
ATOM      3  C   UNL     1      -0.339  10.987  21.363  0.00  0.00    +0.000 C 
ATOM      4  N   UNL     1      -0.231  11.336  19.922  0.00  0.00    +0.000 N 
ATOM      5  C   UNL     1       1.022  11.496  19.279  0.00  0.00    +0.000 C 
ATOM      6  N   UNL     1       1.870  10.555  18.929  0.00  0.00    +0.000 NA
ATOM      7  C   UNL     1      -1.451  12.030  19.419  0.00  0.00    +0.000 C 
ATOM      8  C   UNL     1      -1.954  13.202  20.309  0.00  0.00    +0.000 C 
ENDROOT
BRANCH   1  12
ATOM      9  C   UNL     1      -5.731  13.080  23.837  0.00  0.00    +0.000 A 
ATOM     10  C   UNL     1      -4.652  12.388  24.380  0.00  0.00    +0.000 A 
ATOM     11  C   UNL     1      -3.439  12.283  23.667  0.00  0.00    +0.000 A 
ATOM     12  C   UNL     1      -3.278  12.832  22.391  0.00  0.00    +0.000 A 
ATOM     13  C   UNL     1      -4.395  13.480  21.850  0.00  0.00    +0.000 A 
ATOM     14  C   UNL     1      -5.603  13.614  22.563  0.00  0.00    +0.000 A 
BRANCH   9  16
ATOM     15  C   UNL     1      -7.916  13.953  24.081  0.00  0.00    +0.000 C 
ATOM     16  O   UNL     1      -6.862  13.149  24.602  0.00  0.00    +0.000 OA
ENDBRANCH   9  16
ENDBRANCH   1  12
BRANCH   5  17
ATOM     17  C   UNL     1       1.485  12.929  18.883  0.00  0.00    +0.000 C 
ATOM     18  C   UNL     1       2.531  13.598  19.733  0.00  0.00    +0.000 C 
ATOM     19  O   UNL     1       1.030  13.471  17.882  0.00  0.00    +0.000 OA
ENDBRANCH   5  17
BRANCH   6  20
ATOM     20  N   UNL     1       1.507   9.283  19.222  0.00  0.00    +0.000 N 
ATOM     21  H   UNL     1       0.499   9.110  19.215  0.00  0.00    +0.000 HD
BRANCH  20  22
ATOM     22  C   UNL     1       2.263   8.136  18.851  0.00  0.00    +0.000 A 
ATOM     23  C   UNL     1       2.275   7.121  19.827  0.00  0.00    +0.000 A 
ATOM     24  C   UNL     1       2.911   5.910  19.610  0.00  0.00    +0.000 A 
ATOM     25  C   UNL     1       3.556   5.694  18.398  0.00  0.00    +0.000 A 
ATOM     26  C   UNL     1       3.975   4.334  18.089  0.00  0.00    +0.000 A 
ATOM     27  O   UNL     1       4.025   3.443  18.929  0.00  0.00    +0.000 OA
ATOM     28  C   UNL     1       4.336   4.072  16.709  0.00  0.00    +0.000 A 
ATOM     29  C   UNL     1       4.762   5.102  15.963  0.00  0.00    +0.000 A 
ATOM     30  O   UNL     1       4.475   6.456  16.291  0.00  0.00    +0.000 OA
ATOM     31  C   UNL     1       3.704   6.698  17.439  0.00  0.00    +0.000 A 
ATOM     32  C   UNL     1       3.056   7.945  17.683  0.00  0.00    +0.000 A 
BRANCH  29  33
ATOM     33  C   UNL     1       5.644   4.762  14.798  0.00  0.00    +0.000 A 
ATOM     34  C   UNL     1       5.290   3.856  13.787  0.00  0.00    +0.000 A 
ATOM     35  C   UNL     1       6.168   3.590  12.713  0.00  0.00    +0.000 A 
ATOM     36  C   UNL     1       7.412   4.219  12.616  0.00  0.00    +0.000 A 
ATOM     37  C   UNL     1       7.778   5.139  13.580  0.00  0.00    +0.000 A 
ATOM     38  C   UNL     1       6.903   5.411  14.634  0.00  0.00    +0.000 A 
ENDBRANCH  29  33
ENDBRANCH  20  22
ENDBRANCH   6  20
TORSDOF 6
ENDMDL
MODEL 6
REMARK VINA RESULT:      -8.4      1.043      1.203
REMARK  Name = 
REMARK  8 active torsions:
REMARK  status: ('A' for Active; 'I' for Inactive)
REMARK    1  A    between atoms: C_1  and  O_2
REMARK    2  A    between atoms: O_2  and  C_3
REMARK    3  A    between atoms: C_6  and  N_7
REMARK    4  A    between atoms: C_11  and  C_31
REMARK    5  A    between atoms: N_12  and  N_13
REMARK    6  A    between atoms: N_13  and  C_14
REMARK    7  A    between atoms: C_21  and  C_22
REMARK    8  A    between atoms: C_31  and  C_32
REMARK                            x       y       z     vdW  Elec       q    Type
REMARK                         _______ _______ _______ _____ _____    ______ ____
ROOT
ATOM      1  N   UNL     1       4.581   4.401  17.287  0.00  0.00    +0.000 N 
ATOM      2  C   UNL     1       5.028   4.767  18.642  0.00  0.00    +0.000 C 
ATOM      3  C   UNL     1       4.193   5.944  19.220  0.00  0.00    +0.000 C 
ATOM      4  N   UNL     1       2.724   5.729  19.128  0.00  0.00    +0.000 N 
ATOM      5  C   UNL     1       1.930   5.467  20.273  0.00  0.00    +0.000 C 
ATOM      6  N   UNL     1       1.566   6.316  21.207  0.00  0.00    +0.000 NA
ATOM      7  C   UNL     1       2.309   5.258  17.775  0.00  0.00    +0.000 C 
ATOM      8  C   UNL     1       3.149   4.082  17.203  0.00  0.00    +0.000 C 
ENDROOT
BRANCH   1  12
ATOM      9  C   UNL     1       7.042   4.536  13.834  0.00  0.00    +0.000 A 
ATOM     10  C   UNL     1       5.782   3.944  13.785  0.00  0.00    +0.000 A 
ATOM     11  C   UNL     1       4.967   3.903  14.936  0.00  0.00    +0.000 A 
ATOM     12  C   UNL     1       5.393   4.416  16.166  0.00  0.00    +0.000 A 
ATOM     13  C   UNL     1       6.681   4.962  16.196  0.00  0.00    +0.000 A 
ATOM     14  C   UNL     1       7.494   5.033  15.048  0.00  0.00    +0.000 A 
BRANCH   9  16
ATOM     15  C   UNL     1       8.260   5.818  12.263  0.00  0.00    +0.000 C 
ATOM     16  O   UNL     1       7.758   4.549  12.670  0.00  0.00    +0.000 OA
ENDBRANCH   9  16
ENDBRANCH   1  12
BRANCH   5  17
ATOM     17  C   UNL     1       1.364   4.032  20.481  0.00  0.00    +0.000 C 
ATOM     18  C   UNL     1       2.175   3.059  21.293  0.00  0.00    +0.000 C 
ATOM     19  O   UNL     1       0.268   3.728  20.023  0.00  0.00    +0.000 OA
ENDBRANCH   5  17
BRANCH   6  20
ATOM     20  N   UNL     1       2.005   7.589  21.064  0.00  0.00    +0.000 N 
ATOM     21  H   UNL     1       2.942   7.680  20.663  0.00  0.00    +0.000 HD
BRANCH  20  22
ATOM     22  C   UNL     1       1.163   8.689  20.740  0.00  0.00    +0.000 A 
ATOM     23  C   UNL     1       1.190   9.047  19.378  0.00  0.00    +0.000 A 
ATOM     24  C   UNL     1       0.387  10.055  18.873  0.00  0.00    +0.000 A 
ATOM     25  C   UNL     1      -0.466  10.734  19.736  0.00  0.00    +0.000 A 
ATOM     26  C   UNL     1      -1.486  11.589  19.144  0.00  0.00    +0.000 A 
ATOM     27  O   UNL     1      -1.464  11.940  17.970  0.00  0.00    +0.000 OA
ATOM     28  C   UNL     1      -2.557  12.015  20.025  0.00  0.00    +0.000 A 
ATOM     29  C   UNL     1      -2.306  12.065  21.342  0.00  0.00    +0.000 A 
ATOM     30  O   UNL     1      -1.247  11.336  21.948  0.00  0.00    +0.000 OA
ATOM     31  C   UNL     1      -0.452  10.530  21.118  0.00  0.00    +0.000 A 
ATOM     32  C   UNL     1       0.392   9.498  21.624  0.00  0.00    +0.000 A 
BRANCH  29  33
ATOM     33  C   UNL     1      -3.151  13.007  22.146  0.00  0.00    +0.000 A 
ATOM     34  C   UNL     1      -3.803  14.128  21.609  0.00  0.00    +0.000 A 
ATOM     35  C   UNL     1      -4.591  14.968  22.426  0.00  0.00    +0.000 A 
ATOM     36  C   UNL     1      -4.754  14.714  23.790  0.00  0.00    +0.000 A 
ATOM     37  C   UNL     1      -4.150  13.602  24.344  0.00  0.00    +0.000 A 
ATOM     38  C   UNL     1      -3.382  12.764  23.533  0.00  0.00    +0.000 A 
ENDBRANCH  29  33
ENDBRANCH  20  22
ENDBRANCH   6  20
TORSDOF 6
ENDMDL
MODEL 7
REMARK VINA RESULT:      -8.3      5.556     10.422
REMARK  Name = 
REMARK  8 active torsions:
REMARK  status: ('A' for Active; 'I' for Inactive)
REMARK    1  A    between atoms: C_1  and  O_2
REMARK    2  A    between atoms: O_2  and  C_3
REMARK    3  A    between atoms: C_6  and  N_7
REMARK    4  A    between atoms: C_11  and  C_31
REMARK    5  A    between atoms: N_12  and  N_13
REMARK    6  A    between atoms: N_13  and  C_14
REMARK    7  A    between atoms: C_21  and  C_22
REMARK    8  A    between atoms: C_31  and  C_32
REMARK                            x       y       z     vdW  Elec       q    Type
REMARK                         _______ _______ _______ _____ _____    ______ ____
ROOT
ATOM      1  N   UNL     1       3.992  15.193  18.997  0.00  0.00    +0.000 N 
ATOM      2  C   UNL     1       2.860  15.216  18.056  0.00  0.00    +0.000 C 
ATOM      3  C   UNL     1       2.137  13.840  17.998  0.00  0.00    +0.000 C 
ATOM      4  N   UNL     1       1.772  13.307  19.337  0.00  0.00    +0.000 N 
ATOM      5  C   UNL     1       0.428  13.255  19.784  0.00  0.00    +0.000 C 
ATOM      6  N   UNL     1      -0.514  12.426  19.396  0.00  0.00    +0.000 NA
ATOM      7  C   UNL     1       2.905  13.391  20.304  0.00  0.00    +0.000 C 
ATOM      8  C   UNL     1       3.623  14.769  20.355  0.00  0.00    +0.000 C 
ENDROOT
BRANCH   1  12
ATOM      9  C   UNL     1       8.039  15.985  18.001  0.00  0.00    +0.000 A 
ATOM     10  C   UNL     1       7.315  16.875  18.790  0.00  0.00    +0.000 A 
ATOM     11  C   UNL     1       5.969  16.607  19.120  0.00  0.00    +0.000 A 
ATOM     12  C   UNL     1       5.303  15.470  18.650  0.00  0.00    +0.000 A 
ATOM     13  C   UNL     1       6.041  14.618  17.820  0.00  0.00    +0.000 A 
ATOM     14  C   UNL     1       7.392  14.862  17.506  0.00  0.00    +0.000 A 
BRANCH   9  16
ATOM     15  C   UNL     1      10.222  16.277  18.864  0.00  0.00    +0.000 C 
ATOM     16  O   UNL     1       9.341  16.313  17.745  0.00  0.00    +0.000 OA
ENDBRANCH   9  16
ENDBRANCH   1  12
BRANCH   5  17
ATOM     17  C   UNL     1      -0.034  14.248  20.890  0.00  0.00    +0.000 C 
ATOM     18  C   UNL     1      -0.046  15.717  20.566  0.00  0.00    +0.000 C 
ATOM     19  O   UNL     1      -0.413  13.828  21.978  0.00  0.00    +0.000 OA
ENDBRANCH   5  17
BRANCH   6  20
ATOM     20  N   UNL     1      -0.163  11.518  18.454  0.00  0.00    +0.000 N 
ATOM     21  H   UNL     1       0.018  11.907  17.526  0.00  0.00    +0.000 HD
BRANCH  20  22
ATOM     22  C   UNL     1       0.614  10.356  18.721  0.00  0.00    +0.000 A 
ATOM     23  C   UNL     1       0.321   9.745  19.955  0.00  0.00    +0.000 A 
ATOM     24  C   UNL     1       0.937   8.570  20.351  0.00  0.00    +0.000 A 
ATOM     25  C   UNL     1       1.874   7.982  19.509  0.00  0.00    +0.000 A 
ATOM     26  C   UNL     1       2.300   6.623  19.816  0.00  0.00    +0.000 A 
ATOM     27  O   UNL     1       2.085   6.084  20.895  0.00  0.00    +0.000 OA
ATOM     28  C   UNL     1       3.005   5.919  18.763  0.00  0.00    +0.000 A 
ATOM     29  C   UNL     1       3.660   6.648  17.847  0.00  0.00    +0.000 A 
ATOM     30  O   UNL     1       3.355   8.013  17.593  0.00  0.00    +0.000 OA
ATOM     31  C   UNL     1       2.316   8.597  18.335  0.00  0.00    +0.000 A 
ATOM     32  C   UNL     1       1.681   9.814  17.948  0.00  0.00    +0.000 A 
BRANCH  29  33
ATOM     33  C   UNL     1       4.805   5.973  17.152  0.00  0.00    +0.000 A 
ATOM     34  C   UNL     1       6.136   6.411  17.229  0.00  0.00    +0.000 A 
ATOM     35  C   UNL     1       7.166   5.720  16.553  0.00  0.00    +0.000 A 
ATOM     36  C   UNL     1       6.901   4.579  15.793  0.00  0.00    +0.000 A 
ATOM     37  C   UNL     1       5.605   4.104  15.721  0.00  0.00    +0.000 A 
ATOM     38  C   UNL     1       4.590   4.780  16.400  0.00  0.00    +0.000 A 
ENDBRANCH  29  33
ENDBRANCH  20  22
ENDBRANCH   6  20
TORSDOF 6
ENDMDL
MODEL 8
REMARK VINA RESULT:      -8.3      1.958      2.752
REMARK  Name = 
REMARK  8 active torsions:
REMARK  status: ('A' for Active; 'I' for Inactive)
REMARK    1  A    between atoms: C_1  and  O_2
REMARK    2  A    between atoms: O_2  and  C_3
REMARK    3  A    between atoms: C_6  and  N_7
REMARK    4  A    between atoms: C_11  and  C_31
REMARK    5  A    between atoms: N_12  and  N_13
REMARK    6  A    between atoms: N_13  and  C_14
REMARK    7  A    between atoms: C_21  and  C_22
REMARK    8  A    between atoms: C_31  and  C_32
REMARK                            x       y       z     vdW  Elec       q    Type
REMARK                         _______ _______ _______ _____ _____    ______ ____
ROOT
ATOM      1  N   UNL     1       4.513   4.594  17.315  0.00  0.00    +0.000 N 
ATOM      2  C   UNL     1       4.992   5.053  18.630  0.00  0.00    +0.000 C 
ATOM      3  C   UNL     1       4.103   6.199  19.192  0.00  0.00    +0.000 C 
ATOM      4  N   UNL     1       2.651   5.884  19.178  0.00  0.00    +0.000 N 
ATOM      5  C   UNL     1       1.926   5.626  20.369  0.00  0.00    +0.000 C 
ATOM      6  N   UNL     1       1.546   6.493  21.279  0.00  0.00    +0.000 NA
ATOM      7  C   UNL     1       2.210   5.322  17.868  0.00  0.00    +0.000 C 
ATOM      8  C   UNL     1       3.103   4.177  17.312  0.00  0.00    +0.000 C 
ENDROOT
BRANCH   1  12
ATOM      9  C   UNL     1       6.873   4.553  13.790  0.00  0.00    +0.000 A 
ATOM     10  C   UNL     1       7.302   5.240  14.924  0.00  0.00    +0.000 A 
ATOM     11  C   UNL     1       6.514   5.250  16.094  0.00  0.00    +0.000 A 
ATOM     12  C   UNL     1       5.272   4.609  16.158  0.00  0.00    +0.000 A 
ATOM     13  C   UNL     1       4.845   3.968  14.989  0.00  0.00    +0.000 A 
ATOM     14  C   UNL     1       5.635   3.929  13.823  0.00  0.00    +0.000 A 
BRANCH   9  16
ATOM     15  C   UNL     1       8.441   5.785  12.517  0.00  0.00    +0.000 C 
ATOM     16  O   UNL     1       7.706   4.580  12.707  0.00  0.00    +0.000 OA
ENDBRANCH   9  16
ENDBRANCH   1  12
BRANCH   5  17
ATOM     17  C   UNL     1       1.469   4.168  20.667  0.00  0.00    +0.000 C 
ATOM     18  C   UNL     1       2.260   3.365  21.664  0.00  0.00    +0.000 C 
ATOM     19  O   UNL     1       0.466   3.712  20.128  0.00  0.00    +0.000 OA
ENDBRANCH   5  17
BRANCH   6  20
ATOM     20  N   UNL     1       1.890   7.784  21.058  0.00  0.00    +0.000 N 
ATOM     21  H   UNL     1       2.504   7.935  20.254  0.00  0.00    +0.000 HD
BRANCH  20  22
ATOM     22  C   UNL     1       1.030   8.890  21.305  0.00  0.00    +0.000 A 
ATOM     23  C   UNL     1       0.125   8.683  22.364  0.00  0.00    +0.000 A 
ATOM     24  C   UNL     1      -0.746   9.675  22.782  0.00  0.00    +0.000 A 
ATOM     25  C   UNL     1      -0.727  10.906  22.137  0.00  0.00    +0.000 A 
ATOM     26  C   UNL     1      -1.446  12.008  22.762  0.00  0.00    +0.000 A 
ATOM     27  O   UNL     1      -2.262  11.848  23.662  0.00  0.00    +0.000 OA
ATOM     28  C   UNL     1      -1.144  13.336  22.264  0.00  0.00    +0.000 A 
ATOM     29  C   UNL     1      -0.683  13.447  21.008  0.00  0.00    +0.000 A 
ATOM     30  O   UNL     1      -0.077  12.363  20.315  0.00  0.00    +0.000 OA
ATOM     31  C   UNL     1       0.043  11.141  20.996  0.00  0.00    +0.000 A 
ATOM     32  C   UNL     1       0.924  10.105  20.568  0.00  0.00    +0.000 A 
BRANCH  29  33
ATOM     33  C   UNL     1      -0.919  14.762  20.326  0.00  0.00    +0.000 A 
ATOM     34  C   UNL     1      -1.843  15.720  20.770  0.00  0.00    +0.000 A 
ATOM     35  C   UNL     1      -2.006  16.943  20.082  0.00  0.00    +0.000 A 
ATOM     36  C   UNL     1      -1.255  17.243  18.943  0.00  0.00    +0.000 A 
ATOM     37  C   UNL     1      -0.316  16.333  18.497  0.00  0.00    +0.000 A 
ATOM     38  C   UNL     1      -0.146  15.132  19.186  0.00  0.00    +0.000 A 
ENDBRANCH  29  33
ENDBRANCH  20  22
ENDBRANCH   6  20
TORSDOF 6
ENDMDL
MODEL 9
REMARK VINA RESULT:      -8.1      4.189     10.801
REMARK  Name = 
REMARK  8 active torsions:
REMARK  status: ('A' for Active; 'I' for Inactive)
REMARK    1  A    between atoms: C_1  and  O_2
REMARK    2  A    between atoms: O_2  and  C_3
REMARK    3  A    between atoms: C_6  and  N_7
REMARK    4  A    between atoms: C_11  and  C_31
REMARK    5  A    between atoms: N_12  and  N_13
REMARK    6  A    between atoms: N_13  and  C_14
REMARK    7  A    between atoms: C_21  and  C_22
REMARK    8  A    between atoms: C_31  and  C_32
REMARK                            x       y       z     vdW  Elec       q    Type
REMARK                         _______ _______ _______ _____ _____    ______ ____
ROOT
ATOM      1  N   UNL     1       2.063  13.913  18.801  0.00  0.00    +0.000 N 
ATOM      2  C   UNL     1       2.258  12.598  18.167  0.00  0.00    +0.000 C 
ATOM      3  C   UNL     1       2.032  11.438  19.179  0.00  0.00    +0.000 C 
ATOM      4  N   UNL     1       0.749  11.543  19.922  0.00  0.00    +0.000 N 
ATOM      5  C   UNL     1      -0.336  10.663  19.677  0.00  0.00    +0.000 C 
ATOM      6  N   UNL     1      -0.441   9.403  20.031  0.00  0.00    +0.000 NA
ATOM      7  C   UNL     1       0.524  12.913  20.466  0.00  0.00    +0.000 C 
ATOM      8  C   UNL     1       0.752  14.068  19.450  0.00  0.00    +0.000 C 
ENDROOT
BRANCH   1  12
ATOM      9  C   UNL     1       5.066  16.899  19.042  0.00  0.00    +0.000 A 
ATOM     10  C   UNL     1       3.866  17.042  19.735  0.00  0.00    +0.000 A 
ATOM     11  C   UNL     1       2.871  16.045  19.652  0.00  0.00    +0.000 A 
ATOM     12  C   UNL     1       3.027  14.903  18.859  0.00  0.00    +0.000 A 
ATOM     13  C   UNL     1       4.223  14.811  18.137  0.00  0.00    +0.000 A 
ATOM     14  C   UNL     1       5.235  15.786  18.232  0.00  0.00    +0.000 A 
BRANCH   9  16
ATOM     15  C   UNL     1       6.358  18.206  20.532  0.00  0.00    +0.000 C 
ATOM     16  O   UNL     1       5.982  17.902  19.192  0.00  0.00    +0.000 OA
ENDBRANCH   9  16
ENDBRANCH   1  12
BRANCH   5  17
ATOM     17  C   UNL     1      -1.592  11.209  18.938  0.00  0.00    +0.000 C 
ATOM     18  C   UNL     1      -1.887  10.689  17.557  0.00  0.00    +0.000 C 
ATOM     19  O   UNL     1      -2.335  12.012  19.493  0.00  0.00    +0.000 OA
ENDBRANCH   5  17
BRANCH   6  20
ATOM     20  N   UNL     1       0.612   8.879  20.704  0.00  0.00    +0.000 N 
ATOM     21  H   UNL     1       0.523   8.896  21.722  0.00  0.00    +0.000 HD
BRANCH  20  22
ATOM     22  C   UNL     1       1.384   7.779  20.238  0.00  0.00    +0.000 A 
ATOM     23  C   UNL     1       1.247   6.615  21.019  0.00  0.00    +0.000 A 
ATOM     24  C   UNL     1       1.878   5.430  20.678  0.00  0.00    +0.000 A 
ATOM     25  C   UNL     1       2.672   5.393  19.538  0.00  0.00    +0.000 A 
ATOM     26  C   UNL     1       3.098   4.086  19.054  0.00  0.00    +0.000 A 
ATOM     27  O   UNL     1       3.018   3.066  19.728  0.00  0.00    +0.000 OA
ATOM     28  C   UNL     1       3.631   4.044  17.706  0.00  0.00    +0.000 A 
ATOM     29  C   UNL     1       4.174   5.166  17.209  0.00  0.00    +0.000 A 
ATOM     30  O   UNL     1       3.876   6.456  17.726  0.00  0.00    +0.000 OA
ATOM     31  C   UNL     1       2.966   6.536  18.792  0.00  0.00    +0.000 A 
ATOM     32  C   UNL     1       2.319   7.751  19.164  0.00  0.00    +0.000 A 
BRANCH  29  33
ATOM     33  C   UNL     1       5.193   4.988  16.122  0.00  0.00    +0.000 A 
ATOM     34  C   UNL     1       6.528   5.408  16.224  0.00  0.00    +0.000 A 
ATOM     35  C   UNL     1       7.436   5.200  15.162  0.00  0.00    +0.000 A 
ATOM     36  C   UNL     1       7.042   4.568  13.981  0.00  0.00    +0.000 A 
ATOM     37  C   UNL     1       5.742   4.115  13.860  0.00  0.00    +0.000 A 
ATOM     38  C   UNL     1       4.850   4.309  14.916  0.00  0.00    +0.000 A 
ENDBRANCH  29  33
ENDBRANCH  20  22
ENDBRANCH   6  20
TORSDOF 6
ENDMDL
