MODEL 1
REMARK VINA RESULT:      -8.4      0.000      0.000
REMARK  Name = 
REMARK  9 active torsions:
REMARK  status: ('A' for Active; 'I' for Inactive)
REMARK    1  A    between atoms: C_1  and  N_2
REMARK    2  A    between atoms: N_5  and  C_6
REMARK    3  A    between atoms: C_7  and  C_8
REMARK    4  A    between atoms: C_8  and  C_10
REMARK    5  A    between atoms: C_13  and  O_14
REMARK    6  A    between atoms: O_14  and  C_15
REMARK    7  A    between atoms: C_15  and  C_16
REMARK    8  A    between atoms: N_18  and  C_19
REMARK    9  A    between atoms: C_19  and  C_20
REMARK                            x       y       z     vdW  Elec       q    Type
REMARK                         _______ _______ _______ _____ _____    ______ ____
ROOT
ATOM      1  C   UNL     1       1.288   9.061  19.613  0.00  0.00    +0.000 A 
ATOM      2  C   UNL     1       0.394  10.111  19.408  0.00  0.00    +0.000 A 
ATOM      3  C   UNL     1      -0.372  10.583  20.467  0.00  0.00    +0.000 A 
ATOM      4  C   UNL     1      -0.285   9.977  21.726  0.00  0.00    +0.000 A 
ATOM      5  C   UNL     1       0.645   8.966  21.948  0.00  0.00    +0.000 A 
ATOM      6  C   UNL     1       1.430   8.498  20.890  0.00  0.00    +0.000 A 
ENDROOT
BRANCH   1   7
ATOM      7  C   UNL     1       2.039   8.555  18.441  0.00  0.00    +0.000 C 
ATOM      8  O   UNL     1       2.151   9.224  17.422  0.00  0.00    +0.000 OA
BRANCH   7  10
ATOM      9  C   UNL     1       2.047   6.110  18.217  0.00  0.00    +0.000 C 
ATOM     10  C   UNL     1       2.669   7.227  18.610  0.00  0.00    +0.000 C 
BRANCH   9  15
ATOM     11  C   UNL     1       3.711   1.370  18.699  0.00  0.00    +0.000 C 
ATOM     12  N   UNL     1       2.626   2.039  19.410  0.00  0.00    +0.000 NA
ATOM     13  C   UNL     1       3.104   3.224  20.159  0.00  0.00    +0.000 C 
ATOM     14  C   UNL     1       3.550   4.431  19.296  0.00  0.00    +0.000 C 
ATOM     15  N   UNL     1       2.502   4.808  18.330  0.00  0.00    +0.000 N 
ATOM     16  C   UNL     1       1.954   3.661  17.562  0.00  0.00    +0.000 C 
ATOM     17  C   UNL     1       1.574   2.472  18.476  0.00  0.00    +0.000 C 
ATOM     18  F   UNL     1       0.486   2.829  19.222  0.00  0.00    +0.000 F 
ENDBRANCH   9  15
ENDBRANCH   7  10
ENDBRANCH   1   7
BRANCH   4  19
ATOM     19  O   UNL     1      -1.094  10.299  22.784  0.00  0.00    +0.000 OA
BRANCH  19  20
ATOM     20  C   UNL     1      -1.267  11.714  22.969  0.00  0.00    +0.000 C 
BRANCH  20  21
ATOM     21  C   UNL     1      -2.688  12.124  22.924  0.00  0.00    +0.000 A 
ATOM     22  C   UNL     1      -3.406  12.760  21.938  0.00  0.00    +0.000 A 
ATOM     23  N   UNL     1      -4.654  12.878  22.468  0.00  0.00    +0.000 N 
ATOM     24  N   UNL     1      -4.717  12.340  23.699  0.00  0.00    +0.000 NA
ATOM     25  N   UNL     1      -3.509  11.887  23.997  0.00  0.00    +0.000 NA
BRANCH  23  26
ATOM     26  C   UNL     1      -5.847  13.383  21.816  0.00  0.00    +0.000 C 
BRANCH  26  27
ATOM     27  C   UNL     1      -6.123  12.689  20.508  0.00  0.00    +0.000 A 
ATOM     28  C   UNL     1      -6.651  11.389  20.494  0.00  0.00    +0.000 A 
ATOM     29  C   UNL     1      -6.945  10.757  19.284  0.00  0.00    +0.000 A 
ATOM     30  C   UNL     1      -6.716  11.416  18.077  0.00  0.00    +0.000 A 
ATOM     31  C   UNL     1      -6.193  12.706  18.077  0.00  0.00    +0.000 A 
ATOM     32  C   UNL     1      -5.899  13.341  19.285  0.00  0.00    +0.000 A 
ENDBRANCH  26  27
ENDBRANCH  23  26
ENDBRANCH  20  21
ENDBRANCH  19  20
ENDBRANCH   4  19
TORSDOF 8
ENDMDL
MODEL 2
REMARK VINA RESULT:      -8.0      1.299      1.584
REMARK  Name = 
REMARK  9 active torsions:
REMARK  status: ('A' for Active; 'I' for Inactive)
REMARK    1  A    between atoms: C_1  and  N_2
REMARK    2  A    between atoms: N_5  and  C_6
REMARK    3  A    between atoms: C_7  and  C_8
REMARK    4  A    between atoms: C_8  and  C_10
REMARK    5  A    between atoms: C_13  and  O_14
REMARK    6  A    between atoms: O_14  and  C_15
REMARK    7  A    between atoms: C_15  and  C_16
REMARK    8  A    between atoms: N_18  and  C_19
REMARK    9  A    between atoms: C_19  and  C_20
REMARK                            x       y       z     vdW  Elec       q    Type
REMARK                         _______ _______ _______ _____ _____    ______ ____
ROOT
ATOM      1  C   UNL     1       0.980   9.383  20.270  0.00  0.00    +0.000 A 
ATOM      2  C   UNL     1       0.592  10.719  20.194  0.00  0.00    +0.000 A 
ATOM      3  C   UNL     1      -0.169  11.278  21.214  0.00  0.00    +0.000 A 
ATOM      4  C   UNL     1      -0.587  10.491  22.293  0.00  0.00    +0.000 A 
ATOM      5  C   UNL     1      -0.156   9.172  22.401  0.00  0.00    +0.000 A 
ATOM      6  C   UNL     1       0.623   8.610  21.385  0.00  0.00    +0.000 A 
ENDROOT
BRANCH   1   7
ATOM      7  C   UNL     1       1.740   8.818  19.131  0.00  0.00    +0.000 C 
ATOM      8  O   UNL     1       1.904   9.455  18.099  0.00  0.00    +0.000 OA
BRANCH   7  10
ATOM      9  C   UNL     1       2.080   6.471  18.492  0.00  0.00    +0.000 C 
ATOM     10  C   UNL     1       2.313   7.471  19.350  0.00  0.00    +0.000 C 
BRANCH   9  15
ATOM     11  C   UNL     1       3.695   1.696  18.744  0.00  0.00    +0.000 C 
ATOM     12  N   UNL     1       3.881   2.674  17.675  0.00  0.00    +0.000 NA
ATOM     13  C   UNL     1       2.590   3.142  17.123  0.00  0.00    +0.000 C 
ATOM     14  C   UNL     1       1.738   4.033  18.062  0.00  0.00    +0.000 C 
ATOM     15  N   UNL     1       2.530   5.166  18.579  0.00  0.00    +0.000 N 
ATOM     16  C   UNL     1       3.854   4.772  19.123  0.00  0.00    +0.000 C 
ATOM     17  C   UNL     1       4.632   3.844  18.160  0.00  0.00    +0.000 C 
ATOM     18  F   UNL     1       5.007   4.572  17.065  0.00  0.00    +0.000 F 
ENDBRANCH   9  15
ENDBRANCH   7  10
ENDBRANCH   1   7
BRANCH   4  19
ATOM     19  O   UNL     1      -1.441  10.931  23.271  0.00  0.00    +0.000 OA
BRANCH  19  20
ATOM     20  C   UNL     1      -1.844  12.301  23.110  0.00  0.00    +0.000 C 
BRANCH  20  21
ATOM     21  C   UNL     1      -3.316  12.464  23.098  0.00  0.00    +0.000 A 
ATOM     22  C   UNL     1      -4.163  12.872  22.095  0.00  0.00    +0.000 A 
ATOM     23  N   UNL     1      -5.394  12.832  22.673  0.00  0.00    +0.000 N 
ATOM     24  N   UNL     1      -5.325  12.413  23.948  0.00  0.00    +0.000 NA
ATOM     25  N   UNL     1      -4.048  12.199  24.227  0.00  0.00    +0.000 NA
BRANCH  23  26
ATOM     26  C   UNL     1      -6.677  13.066  22.037  0.00  0.00    +0.000 C 
BRANCH  26  27
ATOM     27  C   UNL     1      -6.706  12.587  20.609  0.00  0.00    +0.000 A 
ATOM     28  C   UNL     1      -6.895  11.226  20.322  0.00  0.00    +0.000 A 
ATOM     29  C   UNL     1      -6.961  10.784  19.000  0.00  0.00    +0.000 A 
ATOM     30  C   UNL     1      -6.839  11.693  17.951  0.00  0.00    +0.000 A 
ATOM     31  C   UNL     1      -6.651  13.046  18.222  0.00  0.00    +0.000 A 
ATOM     32  C   UNL     1      -6.586  13.492  19.543  0.00  0.00    +0.000 A 
ENDBRANCH  26  27
ENDBRANCH  23  26
ENDBRANCH  20  21
ENDBRANCH  19  20
ENDBRANCH   4  19
TORSDOF 8
ENDMDL
MODEL 3
REMARK VINA RESULT:      -7.9      3.301      4.184
REMARK  Name = 
REMARK  9 active torsions:
REMARK  status: ('A' for Active; 'I' for Inactive)
REMARK    1  A    between atoms: C_1  and  N_2
REMARK    2  A    between atoms: N_5  and  C_6
REMARK    3  A    between atoms: C_7  and  C_8
REMARK    4  A    between atoms: C_8  and  C_10
REMARK    5  A    between atoms: C_13  and  O_14
REMARK    6  A    between atoms: O_14  and  C_15
REMARK    7  A    between atoms: C_15  and  C_16
REMARK    8  A    between atoms: N_18  and  C_19
REMARK    9  A    between atoms: C_19  and  C_20
REMARK                            x       y       z     vdW  Elec       q    Type
REMARK                         _______ _______ _______ _____ _____    ______ ____
ROOT
ATOM      1  C   UNL     1       1.345   7.971  20.347  0.00  0.00    +0.000 A 
ATOM      2  C   UNL     1       1.413   8.824  19.247  0.00  0.00    +0.000 A 
ATOM      3  C   UNL     1       0.684  10.007  19.243  0.00  0.00    +0.000 A 
ATOM      4  C   UNL     1      -0.153  10.323  20.319  0.00  0.00    +0.000 A 
ATOM      5  C   UNL     1      -0.182   9.502  21.443  0.00  0.00    +0.000 A 
ATOM      6  C   UNL     1       0.561   8.318  21.458  0.00  0.00    +0.000 A 
ENDROOT
BRANCH   1   7
ATOM      7  C   UNL     1       2.093   6.694  20.279  0.00  0.00    +0.000 C 
ATOM      8  O   UNL     1       1.876   5.789  21.074  0.00  0.00    +0.000 OA
BRANCH   7  10
ATOM      9  C   UNL     1       3.840   5.498  19.036  0.00  0.00    +0.000 C 
ATOM     10  C   UNL     1       3.069   6.582  19.173  0.00  0.00    +0.000 C 
BRANCH   9  15
ATOM     11  C   UNL     1       7.315   4.692  15.465  0.00  0.00    +0.000 C 
ATOM     12  N   UNL     1       6.728   5.954  15.908  0.00  0.00    +0.000 NA
ATOM     13  C   UNL     1       5.259   5.976  15.723  0.00  0.00    +0.000 C 
ATOM     14  C   UNL     1       4.448   5.041  16.655  0.00  0.00    +0.000 C 
ATOM     15  N   UNL     1       4.803   5.266  18.070  0.00  0.00    +0.000 N 
ATOM     16  C   UNL     1       6.265   5.286  18.325  0.00  0.00    +0.000 C 
ATOM     17  C   UNL     1       7.022   6.198  17.330  0.00  0.00    +0.000 C 
ATOM     18  F   UNL     1       6.694   7.497  17.598  0.00  0.00    +0.000 F 
ENDBRANCH   9  15
ENDBRANCH   7  10
ENDBRANCH   1   7
BRANCH   4  19
ATOM     19  O   UNL     1      -0.996  11.403  20.337  0.00  0.00    +0.000 OA
BRANCH  19  20
ATOM     20  C   UNL     1      -1.079  12.091  19.077  0.00  0.00    +0.000 C 
BRANCH  20  21
ATOM     21  C   UNL     1      -2.338  11.805  18.353  0.00  0.00    +0.000 A 
ATOM     22  C   UNL     1      -3.647  11.876  18.771  0.00  0.00    +0.000 A 
ATOM     23  N   UNL     1      -4.359  11.489  17.678  0.00  0.00    +0.000 N 
ATOM     24  N   UNL     1      -3.552  11.208  16.640  0.00  0.00    +0.000 NA
ATOM     25  N   UNL     1      -2.304  11.383  17.049  0.00  0.00    +0.000 NA
BRANCH  23  26
ATOM     26  C   UNL     1      -5.801  11.478  17.521  0.00  0.00    +0.000 C 
BRANCH  26  27
ATOM     27  C   UNL     1      -6.515  11.142  18.804  0.00  0.00    +0.000 A 
ATOM     28  C   UNL     1      -6.978  12.166  19.646  0.00  0.00    +0.000 A 
ATOM     29  C   UNL     1      -7.674  11.859  20.816  0.00  0.00    +0.000 A 
ATOM     30  C   UNL     1      -7.916  10.530  21.159  0.00  0.00    +0.000 A 
ATOM     31  C   UNL     1      -7.462   9.505  20.333  0.00  0.00    +0.000 A 
ATOM     32  C   UNL     1      -6.766   9.808  19.161  0.00  0.00    +0.000 A 
ENDBRANCH  26  27
ENDBRANCH  23  26
ENDBRANCH  20  21
ENDBRANCH  19  20
ENDBRANCH   4  19
TORSDOF 8
ENDMDL
MODEL 4
REMARK VINA RESULT:      -7.7      1.198      1.751
REMARK  Name = 
REMARK  9 active torsions:
REMARK  status: ('A' for Active; 'I' for Inactive)
REMARK    1  A    between atoms: C_1  and  N_2
REMARK    2  A    between atoms: N_5  and  C_6
REMARK    3  A    between atoms: C_7  and  C_8
REMARK    4  A    between atoms: C_8  and  C_10
REMARK    5  A    between atoms: C_13  and  O_14
REMARK    6  A    between atoms: O_14  and  C_15
REMARK    7  A    between atoms: C_15  and  C_16
REMARK    8  A    between atoms: N_18  and  C_19
REMARK    9  A    between atoms: C_19  and  C_20
REMARK                            x       y       z     vdW  Elec       q    Type
REMARK                         _______ _______ _______ _____ _____    ______ ____
ROOT
ATOM      1  C   UNL     1       1.106   9.600  19.760  0.00  0.00    +0.000 A 
ATOM      2  C   UNL     1       0.694   8.973  20.934  0.00  0.00    +0.000 A 
ATOM      3  C   UNL     1       0.126   9.723  21.956  0.00  0.00    +0.000 A 
ATOM      4  C   UNL     1       0.008  11.112  21.830  0.00  0.00    +0.000 A 
ATOM      5  C   UNL     1       0.367  11.735  20.638  0.00  0.00    +0.000 A 
ATOM      6  C   UNL     1       0.924  10.982  19.601  0.00  0.00    +0.000 A 
ENDROOT
BRANCH   1   7
ATOM      7  C   UNL     1       1.759   8.767  18.723  0.00  0.00    +0.000 C 
ATOM      8  O   UNL     1       2.026   9.223  17.619  0.00  0.00    +0.000 OA
BRANCH   7  10
ATOM      9  C   UNL     1       3.024   6.677  18.477  0.00  0.00    +0.000 C 
ATOM     10  C   UNL     1       2.097   7.386  19.131  0.00  0.00    +0.000 C 
BRANCH   9  15
ATOM     11  C   UNL     1       4.426   1.925  19.435  0.00  0.00    +0.000 C 
ATOM     12  N   UNL     1       3.237   2.409  18.741  0.00  0.00    +0.000 NA
ATOM     13  C   UNL     1       2.406   3.278  19.606  0.00  0.00    +0.000 C 
ATOM     14  C   UNL     1       3.011   4.660  19.953  0.00  0.00    +0.000 C 
ATOM     15  N   UNL     1       3.426   5.378  18.733  0.00  0.00    +0.000 N 
ATOM     16  C   UNL     1       4.240   4.556  17.802  0.00  0.00    +0.000 C 
ATOM     17  C   UNL     1       3.606   3.170  17.536  0.00  0.00    +0.000 C 
ATOM     18  F   UNL     1       2.469   3.348  16.799  0.00  0.00    +0.000 F 
ENDBRANCH   9  15
ENDBRANCH   7  10
ENDBRANCH   1   7
BRANCH   4  19
ATOM     19  O   UNL     1      -0.422  11.934  22.838  0.00  0.00    +0.000 OA
BRANCH  19  20
ATOM     20  C   UNL     1      -1.048  13.141  22.369  0.00  0.00    +0.000 C 
BRANCH  20  21
ATOM     21  C   UNL     1      -2.525  13.043  22.341  0.00  0.00    +0.000 A 
ATOM     22  C   UNL     1      -3.437  13.537  21.438  0.00  0.00    +0.000 A 
ATOM     23  N   UNL     1      -4.638  13.139  21.940  0.00  0.00    +0.000 N 
ATOM     24  N   UNL     1      -4.488  12.432  23.073  0.00  0.00    +0.000 NA
ATOM     25  N   UNL     1      -3.191  12.380  23.339  0.00  0.00    +0.000 NA
BRANCH  23  26
ATOM     26  C   UNL     1      -5.946  13.299  21.332  0.00  0.00    +0.000 C 
BRANCH  26  27
ATOM     27  C   UNL     1      -6.389  12.064  20.593  0.00  0.00    +0.000 A 
ATOM     28  C   UNL     1      -5.832  11.747  19.345  0.00  0.00    +0.000 A 
ATOM     29  C   UNL     1      -6.211  10.583  18.674  0.00  0.00    +0.000 A 
ATOM     30  C   UNL     1      -7.150   9.724  19.241  0.00  0.00    +0.000 A 
ATOM     31  C   UNL     1      -7.712  10.026  20.479  0.00  0.00    +0.000 A 
ATOM     32  C   UNL     1      -7.333  11.188  21.153  0.00  0.00    +0.000 A 
ENDBRANCH  26  27
ENDBRANCH  23  26
ENDBRANCH  20  21
ENDBRANCH  19  20
ENDBRANCH   4  19
TORSDOF 8
ENDMDL
MODEL 5
REMARK VINA RESULT:      -7.6      3.247     10.908
REMARK  Name = 
REMARK  9 active torsions:
REMARK  status: ('A' for Active; 'I' for Inactive)
REMARK    1  A    between atoms: C_1  and  N_2
REMARK    2  A    between atoms: N_5  and  C_6
REMARK    3  A    between atoms: C_7  and  C_8
REMARK    4  A    between atoms: C_8  and  C_10
REMARK    5  A    between atoms: C_13  and  O_14
REMARK    6  A    between atoms: O_14  and  C_15
REMARK    7  A    between atoms: C_15  and  C_16
REMARK    8  A    between atoms: N_18  and  C_19
REMARK    9  A    between atoms: C_19  and  C_20
REMARK                            x       y       z     vdW  Elec       q    Type
REMARK                         _______ _______ _______ _____ _____    ______ ____
ROOT
ATOM      1  C   UNL     1       0.364  10.009  21.152  0.00  0.00    +0.000 A 
ATOM      2  C   UNL     1       1.100   8.827  21.215  0.00  0.00    +0.000 A 
ATOM      3  C   UNL     1       1.703   8.326  20.067  0.00  0.00    +0.000 A 
ATOM      4  C   UNL     1       1.535   8.979  18.840  0.00  0.00    +0.000 A 
ATOM      5  C   UNL     1       0.848  10.188  18.783  0.00  0.00    +0.000 A 
ATOM      6  C   UNL     1       0.252  10.704  19.938  0.00  0.00    +0.000 A 
ENDROOT
BRANCH   1   7
ATOM      7  C   UNL     1      -0.309  10.471  22.389  0.00  0.00    +0.000 C 
ATOM      8  O   UNL     1       0.035  10.059  23.489  0.00  0.00    +0.000 OA
BRANCH   7  10
ATOM      9  C   UNL     1      -2.127  11.894  23.223  0.00  0.00    +0.000 C 
ATOM     10  C   UNL     1      -1.373  11.480  22.198  0.00  0.00    +0.000 C 
BRANCH   9  15
ATOM     11  C   UNL     1      -5.880  15.268  23.160  0.00  0.00    +0.000 C 
ATOM     12  N   UNL     1      -4.442  15.496  23.253  0.00  0.00    +0.000 NA
ATOM     13  C   UNL     1      -3.855  14.849  24.448  0.00  0.00    +0.000 C 
ATOM     14  C   UNL     1      -3.809  13.301  24.423  0.00  0.00    +0.000 C 
ATOM     15  N   UNL     1      -3.164  12.810  23.190  0.00  0.00    +0.000 N 
ATOM     16  C   UNL     1      -3.683  13.440  21.950  0.00  0.00    +0.000 C 
ATOM     17  C   UNL     1      -3.750  14.982  22.059  0.00  0.00    +0.000 C 
ATOM     18  F   UNL     1      -2.474  15.470  22.083  0.00  0.00    +0.000 F 
ENDBRANCH   9  15
ENDBRANCH   7  10
ENDBRANCH   1   7
BRANCH   4  19
ATOM     19  O   UNL     1       1.990   8.484  17.646  0.00  0.00    +0.000 OA
BRANCH  19  20
ATOM     20  C   UNL     1       3.416   8.312  17.598  0.00  0.00    +0.000 C 
BRANCH  20  21
ATOM     21  C   UNL     1       3.814   6.891  17.480  0.00  0.00    +0.000 A 
ATOM     22  C   UNL     1       3.504   5.806  18.267  0.00  0.00    +0.000 A 
ATOM     23  N   UNL     1       4.161   4.774  17.672  0.00  0.00    +0.000 N 
ATOM     24  N   UNL     1       4.827   5.182  16.577  0.00  0.00    +0.000 NA
ATOM     25  N   UNL     1       4.634   6.487  16.459  0.00  0.00    +0.000 NA
BRANCH  23  26
ATOM     26  C   UNL     1       4.103   3.368  18.024  0.00  0.00    +0.000 C 
BRANCH  26  27
ATOM     27  C   UNL     1       3.100   3.091  19.113  0.00  0.00    +0.000 A 
ATOM     28  C   UNL     1       3.531   2.841  20.426  0.00  0.00    +0.000 A 
ATOM     29  C   UNL     1       2.603   2.622  21.446  0.00  0.00    +0.000 A 
ATOM     30  C   UNL     1       1.238   2.651  21.168  0.00  0.00    +0.000 A 
ATOM     31  C   UNL     1       0.797   2.898  19.871  0.00  0.00    +0.000 A 
ATOM     32  C   UNL     1       1.722   3.119  18.848  0.00  0.00    +0.000 A 
ENDBRANCH  26  27
ENDBRANCH  23  26
ENDBRANCH  20  21
ENDBRANCH  19  20
ENDBRANCH   4  19
TORSDOF 8
ENDMDL
MODEL 6
REMARK VINA RESULT:      -7.4      3.592     10.894
REMARK  Name = 
REMARK  9 active torsions:
REMARK  status: ('A' for Active; 'I' for Inactive)
REMARK    1  A    between atoms: C_1  and  N_2
REMARK    2  A    between atoms: N_5  and  C_6
REMARK    3  A    between atoms: C_7  and  C_8
REMARK    4  A    between atoms: C_8  and  C_10
REMARK    5  A    between atoms: C_13  and  O_14
REMARK    6  A    between atoms: O_14  and  C_15
REMARK    7  A    between atoms: C_15  and  C_16
REMARK    8  A    between atoms: N_18  and  C_19
REMARK    9  A    between atoms: C_19  and  C_20
REMARK                            x       y       z     vdW  Elec       q    Type
REMARK                         _______ _______ _______ _____ _____    ______ ____
ROOT
ATOM      1  C   UNL     1       0.811   9.452  20.789  0.00  0.00    +0.000 A 
ATOM      2  C   UNL     1       1.446   8.212  20.757  0.00  0.00    +0.000 A 
ATOM      3  C   UNL     1       2.083   7.791  19.595  0.00  0.00    +0.000 A 
ATOM      4  C   UNL     1       2.049   8.587  18.445  0.00  0.00    +0.000 A 
ATOM      5  C   UNL     1       1.465   9.850  18.489  0.00  0.00    +0.000 A 
ATOM      6  C   UNL     1       0.836  10.284  19.660  0.00  0.00    +0.000 A 
ENDROOT
BRANCH   1   7
ATOM      7  C   UNL     1       0.096   9.831  22.030  0.00  0.00    +0.000 C 
ATOM      8  O   UNL     1       0.118   9.110  23.020  0.00  0.00    +0.000 OA
BRANCH   7  10
ATOM      9  C   UNL     1      -1.489  11.474  22.934  0.00  0.00    +0.000 C 
ATOM     10  C   UNL     1      -0.594  11.139  21.997  0.00  0.00    +0.000 C 
BRANCH   9  15
ATOM     11  C   UNL     1      -4.183  15.726  23.304  0.00  0.00    +0.000 C 
ATOM     12  N   UNL     1      -3.302  15.108  24.290  0.00  0.00    +0.000 NA
ATOM     13  C   UNL     1      -3.749  13.744  24.653  0.00  0.00    +0.000 C 
ATOM     14  C   UNL     1      -3.596  12.668  23.549  0.00  0.00    +0.000 C 
ATOM     15  N   UNL     1      -2.220  12.645  23.018  0.00  0.00    +0.000 N 
ATOM     16  C   UNL     1      -1.694  13.987  22.660  0.00  0.00    +0.000 C 
ATOM     17  C   UNL     1      -1.922  15.026  23.783  0.00  0.00    +0.000 C 
ATOM     18  F   UNL     1      -1.116  14.705  24.840  0.00  0.00    +0.000 F 
ENDBRANCH   9  15
ENDBRANCH   7  10
ENDBRANCH   1   7
BRANCH   4  19
ATOM     19  O   UNL     1       2.541   8.191  17.229  0.00  0.00    +0.000 OA
BRANCH  19  20
ATOM     20  C   UNL     1       3.926   7.806  17.266  0.00  0.00    +0.000 C 
BRANCH  20  21
ATOM     21  C   UNL     1       4.111   6.339  17.207  0.00  0.00    +0.000 A 
ATOM     22  C   UNL     1       3.603   5.340  18.005  0.00  0.00    +0.000 A 
ATOM     23  N   UNL     1       4.126   4.202  17.474  0.00  0.00    +0.000 N 
ATOM     24  N   UNL     1       4.899   4.467  16.407  0.00  0.00    +0.000 NA
ATOM     25  N   UNL     1       4.911   5.781  16.243  0.00  0.00    +0.000 NA
BRANCH  23  26
ATOM     26  C   UNL     1       3.839   2.833  17.861  0.00  0.00    +0.000 C 
BRANCH  26  27
ATOM     27  C   UNL     1       2.954   2.754  19.077  0.00  0.00    +0.000 A 
ATOM     28  C   UNL     1       3.518   2.621  20.355  0.00  0.00    +0.000 A 
ATOM     29  C   UNL     1       2.703   2.586  21.488  0.00  0.00    +0.000 A 
ATOM     30  C   UNL     1       1.319   2.685  21.358  0.00  0.00    +0.000 A 
ATOM     31  C   UNL     1       0.747   2.818  20.096  0.00  0.00    +0.000 A 
ATOM     32  C   UNL     1       1.559   2.854  18.961  0.00  0.00    +0.000 A 
ENDBRANCH  26  27
ENDBRANCH  23  26
ENDBRANCH  20  21
ENDBRANCH  19  20
ENDBRANCH   4  19
TORSDOF 8
ENDMDL
MODEL 7
REMARK VINA RESULT:      -7.4      1.595      2.692
REMARK  Name = 
REMARK  9 active torsions:
REMARK  status: ('A' for Active; 'I' for Inactive)
REMARK    1  A    between atoms: C_1  and  N_2
REMARK    2  A    between atoms: N_5  and  C_6
REMARK    3  A    between atoms: C_7  and  C_8
REMARK    4  A    between atoms: C_8  and  C_10
REMARK    5  A    between atoms: C_13  and  O_14
REMARK    6  A    between atoms: O_14  and  C_15
REMARK    7  A    between atoms: C_15  and  C_16
REMARK    8  A    between atoms: N_18  and  C_19
REMARK    9  A    between atoms: C_19  and  C_20
REMARK                            x       y       z     vdW  Elec       q    Type
REMARK                         _______ _______ _______ _____ _____    ______ ____
ROOT
ATOM      1  C   UNL     1       1.223   9.156  19.552  0.00  0.00    +0.000 A 
ATOM      2  C   UNL     1       0.277  10.158  19.348  0.00  0.00    +0.000 A 
ATOM      3  C   UNL     1      -0.468  10.635  20.421  0.00  0.00    +0.000 A 
ATOM      4  C   UNL     1      -0.304  10.080  21.695  0.00  0.00    +0.000 A 
ATOM      5  C   UNL     1       0.679   9.118  21.914  0.00  0.00    +0.000 A 
ATOM      6  C   UNL     1       1.441   8.647  20.842  0.00  0.00    +0.000 A 
ENDROOT
BRANCH   1   7
ATOM      7  C   UNL     1       1.950   8.640  18.369  0.00  0.00    +0.000 C 
ATOM      8  O   UNL     1       2.027   9.294  17.337  0.00  0.00    +0.000 OA
BRANCH   7  10
ATOM      9  C   UNL     1       1.985   6.192  18.178  0.00  0.00    +0.000 C 
ATOM     10  C   UNL     1       2.601   7.323  18.542  0.00  0.00    +0.000 C 
BRANCH   9  15
ATOM     11  C   UNL     1       3.723   1.482  18.686  0.00  0.00    +0.000 C 
ATOM     12  N   UNL     1       2.670   2.158  19.438  0.00  0.00    +0.000 NA
ATOM     13  C   UNL     1       3.173   3.366  20.131  0.00  0.00    +0.000 C 
ATOM     14  C   UNL     1       3.561   4.555  19.217  0.00  0.00    +0.000 C 
ATOM     15  N   UNL     1       2.459   4.898  18.298  0.00  0.00    +0.000 N 
ATOM     16  C   UNL     1       1.884   3.728  17.589  0.00  0.00    +0.000 C 
ATOM     17  C   UNL     1       1.566   2.558  18.550  0.00  0.00    +0.000 C 
ATOM     18  F   UNL     1       0.514   2.923  19.343  0.00  0.00    +0.000 F 
ENDBRANCH   9  15
ENDBRANCH   7  10
ENDBRANCH   1   7
BRANCH   4  19
ATOM     19  O   UNL     1      -1.085  10.404  22.773  0.00  0.00    +0.000 OA
BRANCH  19  20
ATOM     20  C   UNL     1      -1.240  11.820  22.967  0.00  0.00    +0.000 C 
BRANCH  20  21
ATOM     21  C   UNL     1      -2.660  12.235  23.017  0.00  0.00    +0.000 A 
ATOM     22  C   UNL     1      -3.388  13.039  22.171  0.00  0.00    +0.000 A 
ATOM     23  N   UNL     1      -4.628  13.062  22.731  0.00  0.00    +0.000 N 
ATOM     24  N   UNL     1      -4.678  12.312  23.846  0.00  0.00    +0.000 NA
ATOM     25  N   UNL     1      -3.468  11.811  24.041  0.00  0.00    +0.000 NA
BRANCH  23  26
ATOM     26  C   UNL     1      -5.828  13.679  22.198  0.00  0.00    +0.000 C 
BRANCH  26  27
ATOM     27  C   UNL     1      -6.022  15.086  22.699  0.00  0.00    +0.000 A 
ATOM     28  C   UNL     1      -5.421  15.499  23.898  0.00  0.00    +0.000 A 
ATOM     29  C   UNL     1      -5.566  16.814  24.346  0.00  0.00    +0.000 A 
ATOM     30  C   UNL     1      -6.310  17.728  23.603  0.00  0.00    +0.000 A 
ATOM     31  C   UNL     1      -6.911  17.331  22.412  0.00  0.00    +0.000 A 
ATOM     32  C   UNL     1      -6.767  16.018  21.960  0.00  0.00    +0.000 A 
ENDBRANCH  26  27
ENDBRANCH  23  26
ENDBRANCH  20  21
ENDBRANCH  19  20
ENDBRANCH   4  19
TORSDOF 8
ENDMDL
MODEL 8
REMARK VINA RESULT:      -7.4      2.698      3.236
REMARK  Name = 
REMARK  9 active torsions:
REMARK  status: ('A' for Active; 'I' for Inactive)
REMARK    1  A    between atoms: C_1  and  N_2
REMARK    2  A    between atoms: N_5  and  C_6
REMARK    3  A    between atoms: C_7  and  C_8
REMARK    4  A    between atoms: C_8  and  C_10
REMARK    5  A    between atoms: C_13  and  O_14
REMARK    6  A    between atoms: O_14  and  C_15
REMARK    7  A    between atoms: C_15  and  C_16
REMARK    8  A    between atoms: N_18  and  C_19
REMARK    9  A    between atoms: C_19  and  C_20
REMARK                            x       y       z     vdW  Elec       q    Type
REMARK                         _______ _______ _______ _____ _____    ______ ____
ROOT
ATOM      1  C   UNL     1       1.598   8.095  20.033  0.00  0.00    +0.000 A 
ATOM      2  C   UNL     1       1.522   8.936  18.924  0.00  0.00    +0.000 A 
ATOM      3  C   UNL     1       0.818  10.131  19.010  0.00  0.00    +0.000 A 
ATOM      4  C   UNL     1       0.148  10.472  20.190  0.00  0.00    +0.000 A 
ATOM      5  C   UNL     1       0.267   9.662  21.317  0.00  0.00    +0.000 A 
ATOM      6  C   UNL     1       0.986   8.466  21.240  0.00  0.00    +0.000 A 
ENDROOT
BRANCH   1   7
ATOM      7  C   UNL     1       2.309   6.805  19.875  0.00  0.00    +0.000 C 
ATOM      8  O   UNL     1       2.188   5.909  20.700  0.00  0.00    +0.000 OA
BRANCH   7  10
ATOM      9  C   UNL     1       3.966   5.644  18.483  0.00  0.00    +0.000 C 
ATOM     10  C   UNL     1       3.123   6.670  18.647  0.00  0.00    +0.000 C 
BRANCH   9  15
ATOM     11  C   UNL     1       7.026   4.825  14.555  0.00  0.00    +0.000 C 
ATOM     12  N   UNL     1       7.343   5.388  15.864  0.00  0.00    +0.000 NA
ATOM     13  C   UNL     1       6.567   6.619  16.139  0.00  0.00    +0.000 C 
ATOM     14  C   UNL     1       5.048   6.422  16.370  0.00  0.00    +0.000 C 
ATOM     15  N   UNL     1       4.798   5.401  17.405  0.00  0.00    +0.000 N 
ATOM     16  C   UNL     1       5.568   4.147  17.209  0.00  0.00    +0.000 C 
ATOM     17  C   UNL     1       7.067   4.416  16.934  0.00  0.00    +0.000 C 
ATOM     18  F   UNL     1       7.638   4.894  18.080  0.00  0.00    +0.000 F 
ENDBRANCH   9  15
ENDBRANCH   7  10
ENDBRANCH   1   7
BRANCH   4  19
ATOM     19  O   UNL     1      -0.668  11.565  20.315  0.00  0.00    +0.000 OA
BRANCH  19  20
ATOM     20  C   UNL     1      -0.792  12.042  21.665  0.00  0.00    +0.000 C 
BRANCH  20  21
ATOM     21  C   UNL     1      -2.200  12.277  22.059  0.00  0.00    +0.000 A 
ATOM     22  C   UNL     1      -3.218  12.924  21.398  0.00  0.00    +0.000 A 
ATOM     23  N   UNL     1      -4.273  12.829  22.252  0.00  0.00    +0.000 N 
ATOM     24  N   UNL     1      -3.942  12.156  23.368  0.00  0.00    +0.000 NA
ATOM     25  N   UNL     1      -2.664  11.825  23.268  0.00  0.00    +0.000 NA
BRANCH  23  26
ATOM     26  C   UNL     1      -5.640  13.252  22.018  0.00  0.00    +0.000 C 
BRANCH  26  27
ATOM     27  C   UNL     1      -6.124  12.892  20.638  0.00  0.00    +0.000 A 
ATOM     28  C   UNL     1      -6.213  13.874  19.640  0.00  0.00    +0.000 A 
ATOM     29  C   UNL     1      -6.624  13.537  18.349  0.00  0.00    +0.000 A 
ATOM     30  C   UNL     1      -6.950  12.218  18.041  0.00  0.00    +0.000 A 
ATOM     31  C   UNL     1      -6.867  11.233  19.022  0.00  0.00    +0.000 A 
ATOM     32  C   UNL     1      -6.455  11.567  20.313  0.00  0.00    +0.000 A 
ENDBRANCH  26  27
ENDBRANCH  23  26
ENDBRANCH  20  21
ENDBRANCH  19  20
ENDBRANCH   4  19
TORSDOF 8
ENDMDL
MODEL 9
REMARK VINA RESULT:      -7.3      2.845      3.670
REMARK  Name = 
REMARK  9 active torsions:
REMARK  status: ('A' for Active; 'I' for Inactive)
REMARK    1  A    between atoms: C_1  and  N_2
REMARK    2  A    between atoms: N_5  and  C_6
REMARK    3  A    between atoms: C_7  and  C_8
REMARK    4  A    between atoms: C_8  and  C_10
REMARK    5  A    between atoms: C_13  and  O_14
REMARK    6  A    between atoms: O_14  and  C_15
REMARK    7  A    between atoms: C_15  and  C_16
REMARK    8  A    between atoms: N_18  and  C_19
REMARK    9  A    between atoms: C_19  and  C_20
REMARK                            x       y       z     vdW  Elec       q    Type
REMARK                         _______ _______ _______ _____ _____    ______ ____
ROOT
ATOM      1  C   UNL     1       1.455   7.873  20.238  0.00  0.00    +0.000 A 
ATOM      2  C   UNL     1       0.909   8.320  21.439  0.00  0.00    +0.000 A 
ATOM      3  C   UNL     1       0.337   9.585  21.510  0.00  0.00    +0.000 A 
ATOM      4  C   UNL     1       0.348  10.428  20.393  0.00  0.00    +0.000 A 
ATOM      5  C   UNL     1       0.842   9.964  19.176  0.00  0.00    +0.000 A 
ATOM      6  C   UNL     1       1.405   8.687  19.096  0.00  0.00    +0.000 A 
ENDROOT
BRANCH   1   7
ATOM      7  C   UNL     1       2.106   6.542  20.227  0.00  0.00    +0.000 C 
ATOM      8  O   UNL     1       1.644   5.605  20.867  0.00  0.00    +0.000 OA
BRANCH   7  10
ATOM      9  C   UNL     1       3.303   5.638  18.284  0.00  0.00    +0.000 C 
ATOM     10  C   UNL     1       3.304   6.422  19.367  0.00  0.00    +0.000 C 
BRANCH   9  15
ATOM     11  C   UNL     1       7.141   4.891  15.092  0.00  0.00    +0.000 C 
ATOM     12  N   UNL     1       7.168   5.414  16.455  0.00  0.00    +0.000 NA
ATOM     13  C   UNL     1       6.358   6.646  16.590  0.00  0.00    +0.000 C 
ATOM     14  C   UNL     1       4.824   6.460  16.479  0.00  0.00    +0.000 C 
ATOM     15  N   UNL     1       4.349   5.415  17.405  0.00  0.00    +0.000 N 
ATOM     16  C   UNL     1       5.137   4.158  17.345  0.00  0.00    +0.000 C 
ATOM     17  C   UNL     1       6.661   4.417  17.410  0.00  0.00    +0.000 C 
ATOM     18  F   UNL     1       6.971   4.857  18.666  0.00  0.00    +0.000 F 
ENDBRANCH   9  15
ENDBRANCH   7  10
ENDBRANCH   1   7
BRANCH   4  19
ATOM     19  O   UNL     1      -0.080  11.729  20.416  0.00  0.00    +0.000 OA
BRANCH  19  20
ATOM     20  C   UNL     1      -0.753  12.136  19.213  0.00  0.00    +0.000 C 
BRANCH  20  21
ATOM     21  C   UNL     1      -2.220  12.237  19.388  0.00  0.00    +0.000 A 
ATOM     22  C   UNL     1      -3.242  12.086  18.480  0.00  0.00    +0.000 A 
ATOM     23  N   UNL     1      -4.366  12.303  19.217  0.00  0.00    +0.000 N 
ATOM     24  N   UNL     1      -4.068  12.560  20.502  0.00  0.00    +0.000 NA
ATOM     25  N   UNL     1      -2.749  12.538  20.616  0.00  0.00    +0.000 NA
BRANCH  23  26
ATOM     26  C   UNL     1      -5.744  12.167  18.787  0.00  0.00    +0.000 C 
BRANCH  26  27
ATOM     27  C   UNL     1      -6.472  11.078  19.528  0.00  0.00    +0.000 A 
ATOM     28  C   UNL     1      -7.208  11.378  20.685  0.00  0.00    +0.000 A 
ATOM     29  C   UNL     1      -7.916  10.378  21.354  0.00  0.00    +0.000 A 
ATOM     30  C   UNL     1      -7.898   9.069  20.876  0.00  0.00    +0.000 A 
ATOM     31  C   UNL     1      -7.172   8.757  19.729  0.00  0.00    +0.000 A 
ATOM     32  C   UNL     1      -6.464   9.755  19.057  0.00  0.00    +0.000 A 
ENDBRANCH  26  27
ENDBRANCH  23  26
ENDBRANCH  20  21
ENDBRANCH  19  20
ENDBRANCH   4  19
TORSDOF 8
ENDMDL
