MODEL 1
REMARK VINA RESULT:      -7.9      0.000      0.000
REMARK  Name = 
REMARK  5 active torsions:
REMARK  status: ('A' for Active; 'I' for Inactive)
REMARK    1  A    between atoms: C_1  and  C_2
REMARK    2  A    between atoms: C_6  and  O_7
REMARK    3  A    between atoms: O_7  and  C_8
REMARK    4  A    between atoms: N_12  and  S_13
REMARK    5  A    between atoms: S_13  and  C_14
REMARK                            x       y       z     vdW  Elec       q    Type
REMARK                         _______ _______ _______ _____ _____    ______ ____
ROOT
ATOM      1  O   UNL     1       2.624   6.940  19.846  0.00  0.00    +0.000 OA
ENDROOT
BRANCH   1   7
ATOM      2  C   UNL     1       5.313   5.940  16.040  0.00  0.00    +0.000 C 
ATOM      3  C   UNL     1       4.347   5.498  17.093  0.00  0.00    +0.000 A 
ATOM      4  N   UNL     1       3.854   4.250  17.018  0.00  0.00    +0.000 NA
ATOM      5  C   UNL     1       2.941   3.887  17.944  0.00  0.00    +0.000 A 
ATOM      6  C   UNL     1       2.469   4.757  18.914  0.00  0.00    +0.000 A 
ATOM      7  C   UNL     1       3.044   6.014  18.895  0.00  0.00    +0.000 A 
ATOM      8  N   UNL     1       3.997   6.396  18.020  0.00  0.00    +0.000 NA
ATOM      9  C   UNL     1       1.446   4.348  19.933  0.00  0.00    +0.000 C 
ATOM     10  C   UNL     1       0.714   3.056  19.564  0.00  0.00    +0.000 C 
ATOM     11  C   UNL     1       1.700   2.000  19.083  0.00  0.00    +0.000 C 
ATOM     12  C   UNL     1       2.410   2.482  17.821  0.00  0.00    +0.000 C 
ENDBRANCH   1   7
BRANCH   1  13
ATOM     13  C   UNL     1       1.951   8.046  19.388  0.00  0.00    +0.000 A 
ATOM     14  C   UNL     1       1.842   8.390  18.040  0.00  0.00    +0.000 A 
ATOM     15  C   UNL     1       1.121   9.521  17.678  0.00  0.00    +0.000 A 
ATOM     16  C   UNL     1       0.515  10.255  18.682  0.00  0.00    +0.000 A 
ATOM     17  N   UNL     1      -0.294  11.360  18.382  0.00  0.00    +0.000 N 
ATOM     18  N   UNL     1       0.558   9.944  19.991  0.00  0.00    +0.000 NA
ATOM     19  C   UNL     1       1.275   8.835  20.312  0.00  0.00    +0.000 A 
ATOM     20  H   UNL     1      -0.241  12.082  19.097  0.00  0.00    +0.000 HD
BRANCH  17  21
ATOM     21  S   UNL     1      -1.890  10.984  17.999  0.00  0.00    +0.000 S 
ATOM     22  C   UNL     1      -2.828  11.979  19.150  0.00  0.00    +0.000 C 
ATOM     23  O   UNL     1      -2.125  11.526  16.678  0.00  0.00    +0.000 OA
ATOM     24  O   UNL     1      -2.138   9.586  18.283  0.00  0.00    +0.000 OA
ENDBRANCH  17  21
ENDBRANCH   1  13
TORSDOF 3
ENDMDL
MODEL 2
REMARK VINA RESULT:      -7.5      2.272      3.816
REMARK  Name = 
REMARK  5 active torsions:
REMARK  status: ('A' for Active; 'I' for Inactive)
REMARK    1  A    between atoms: C_1  and  C_2
REMARK    2  A    between atoms: C_6  and  O_7
REMARK    3  A    between atoms: O_7  and  C_8
REMARK    4  A    between atoms: N_12  and  S_13
REMARK    5  A    between atoms: S_13  and  C_14
REMARK                            x       y       z     vdW  Elec       q    Type
REMARK                         _______ _______ _______ _____ _____    ______ ____
ROOT
ATOM      1  O   UNL     1       3.323   7.714  17.926  0.00  0.00    +0.000 OA
ENDROOT
BRANCH   1   7
ATOM      2  C   UNL     1       1.181   3.470  18.254  0.00  0.00    +0.000 C 
ATOM      3  C   UNL     1       2.334   4.304  17.793  0.00  0.00    +0.000 A 
ATOM      4  N   UNL     1       3.389   3.681  17.244  0.00  0.00    +0.000 NA
ATOM      5  C   UNL     1       4.443   4.444  16.884  0.00  0.00    +0.000 A 
ATOM      6  C   UNL     1       4.491   5.811  17.107  0.00  0.00    +0.000 A 
ATOM      7  C   UNL     1       3.352   6.345  17.680  0.00  0.00    +0.000 A 
ATOM      8  N   UNL     1       2.259   5.624  18.003  0.00  0.00    +0.000 NA
ATOM      9  C   UNL     1       5.671   6.650  16.714  0.00  0.00    +0.000 C 
ATOM     10  C   UNL     1       6.925   5.823  16.422  0.00  0.00    +0.000 C 
ATOM     11  C   UNL     1       6.583   4.623  15.548  0.00  0.00    +0.000 C 
ATOM     12  C   UNL     1       5.608   3.704  16.278  0.00  0.00    +0.000 C 
ENDBRANCH   1   7
BRANCH   1  13
ATOM     13  C   UNL     1       2.316   8.185  18.733  0.00  0.00    +0.000 A 
ATOM     14  C   UNL     1       2.087   7.738  20.034  0.00  0.00    +0.000 A 
ATOM     15  C   UNL     1       1.051   8.292  20.777  0.00  0.00    +0.000 A 
ATOM     16  C   UNL     1       0.296   9.293  20.193  0.00  0.00    +0.000 A 
ATOM     17  N   UNL     1      -0.711   9.952  20.912  0.00  0.00    +0.000 N 
ATOM     18  N   UNL     1       0.501   9.786  18.956  0.00  0.00    +0.000 NA
ATOM     19  C   UNL     1       1.518   9.218  18.256  0.00  0.00    +0.000 A 
ATOM     20  H   UNL     1      -1.487  10.234  20.318  0.00  0.00    +0.000 HD
BRANCH  17  21
ATOM     21  S   UNL     1      -0.174  11.225  21.874  0.00  0.00    +0.000 S 
ATOM     22  C   UNL     1      -1.357  12.519  21.531  0.00  0.00    +0.000 C 
ATOM     23  O   UNL     1      -0.384  10.809  23.245  0.00  0.00    +0.000 OA
ATOM     24  O   UNL     1       1.131  11.656  21.421  0.00  0.00    +0.000 OA
ENDBRANCH  17  21
ENDBRANCH   1  13
TORSDOF 3
ENDMDL
MODEL 3
REMARK VINA RESULT:      -7.5      1.014      2.766
REMARK  Name = 
REMARK  5 active torsions:
REMARK  status: ('A' for Active; 'I' for Inactive)
REMARK    1  A    between atoms: C_1  and  C_2
REMARK    2  A    between atoms: C_6  and  O_7
REMARK    3  A    between atoms: O_7  and  C_8
REMARK    4  A    between atoms: N_12  and  S_13
REMARK    5  A    between atoms: S_13  and  C_14
REMARK                            x       y       z     vdW  Elec       q    Type
REMARK                         _______ _______ _______ _____ _____    ______ ____
ROOT
ATOM      1  O   UNL     1       2.766   6.892  19.766  0.00  0.00    +0.000 OA
ENDROOT
BRANCH   1   7
ATOM      2  C   UNL     1       0.697   2.717  18.765  0.00  0.00    +0.000 C 
ATOM      3  C   UNL     1       1.741   3.747  18.469  0.00  0.00    +0.000 A 
ATOM      4  N   UNL     1       2.660   3.467  17.530  0.00  0.00    +0.000 NA
ATOM      5  C   UNL     1       3.627   4.384  17.315  0.00  0.00    +0.000 A 
ATOM      6  C   UNL     1       3.730   5.553  18.052  0.00  0.00    +0.000 A 
ATOM      7  C   UNL     1       2.733   5.736  18.992  0.00  0.00    +0.000 A 
ATOM      8  N   UNL     1       1.721   4.868  19.198  0.00  0.00    +0.000 NA
ATOM      9  C   UNL     1       4.814   6.563  17.814  0.00  0.00    +0.000 C 
ATOM     10  C   UNL     1       5.977   6.010  16.986  0.00  0.00    +0.000 C 
ATOM     11  C   UNL     1       5.457   5.229  15.787  0.00  0.00    +0.000 C 
ATOM     12  C   UNL     1       4.640   4.029  16.257  0.00  0.00    +0.000 C 
ENDBRANCH   1   7
BRANCH   1  13
ATOM     13  C   UNL     1       2.048   7.970  19.311  0.00  0.00    +0.000 A 
ATOM     14  C   UNL     1       1.943   8.325  17.966  0.00  0.00    +0.000 A 
ATOM     15  C   UNL     1       1.174   9.425  17.605  0.00  0.00    +0.000 A 
ATOM     16  C   UNL     1       0.518  10.117  18.608  0.00  0.00    +0.000 A 
ATOM     17  N   UNL     1      -0.338  11.186  18.309  0.00  0.00    +0.000 N 
ATOM     18  N   UNL     1       0.557   9.793  19.915  0.00  0.00    +0.000 NA
ATOM     19  C   UNL     1       1.322   8.715  20.233  0.00  0.00    +0.000 A 
ATOM     20  H   UNL     1      -0.330  11.901  19.033  0.00  0.00    +0.000 HD
BRANCH  17  21
ATOM     21  S   UNL     1      -1.908  10.739  17.897  0.00  0.00    +0.000 S 
ATOM     22  C   UNL     1      -2.913  11.831  18.892  0.00  0.00    +0.000 C 
ATOM     23  O   UNL     1      -2.089  11.134  16.517  0.00  0.00    +0.000 OA
ATOM     24  O   UNL     1      -2.148   9.375  18.317  0.00  0.00    +0.000 OA
ENDBRANCH  17  21
ENDBRANCH   1  13
TORSDOF 3
ENDMDL
MODEL 4
REMARK VINA RESULT:      -7.5      1.813      2.088
REMARK  Name = 
REMARK  5 active torsions:
REMARK  status: ('A' for Active; 'I' for Inactive)
REMARK    1  A    between atoms: C_1  and  C_2
REMARK    2  A    between atoms: C_6  and  O_7
REMARK    3  A    between atoms: O_7  and  C_8
REMARK    4  A    between atoms: N_12  and  S_13
REMARK    5  A    between atoms: S_13  and  C_14
REMARK                            x       y       z     vdW  Elec       q    Type
REMARK                         _______ _______ _______ _____ _____    ______ ____
ROOT
ATOM      1  O   UNL     1       2.908   6.640  19.967  0.00  0.00    +0.000 OA
ENDROOT
BRANCH   1   7
ATOM      2  C   UNL     1       5.325   5.796  15.947  0.00  0.00    +0.000 C 
ATOM      3  C   UNL     1       4.396   5.325  17.020  0.00  0.00    +0.000 A 
ATOM      4  N   UNL     1       3.832   4.114  16.884  0.00  0.00    +0.000 NA
ATOM      5  C   UNL     1       2.953   3.728  17.834  0.00  0.00    +0.000 A 
ATOM      6  C   UNL     1       2.583   4.544  18.890  0.00  0.00    +0.000 A 
ATOM      7  C   UNL     1       3.223   5.769  18.929  0.00  0.00    +0.000 A 
ATOM      8  N   UNL     1       4.146   6.167  18.029  0.00  0.00    +0.000 NA
ATOM      9  C   UNL     1       1.597   4.112  19.935  0.00  0.00    +0.000 C 
ATOM     10  C   UNL     1       0.776   2.891  19.517  0.00  0.00    +0.000 C 
ATOM     11  C   UNL     1       1.675   1.826  18.904  0.00  0.00    +0.000 C 
ATOM     12  C   UNL     1       2.340   2.365  17.640  0.00  0.00    +0.000 C 
ENDBRANCH   1   7
BRANCH   1  13
ATOM     13  C   UNL     1       2.159   7.747  19.650  0.00  0.00    +0.000 A 
ATOM     14  C   UNL     1       1.274   8.367  20.533  0.00  0.00    +0.000 A 
ATOM     15  C   UNL     1       0.575   9.496  20.122  0.00  0.00    +0.000 A 
ATOM     16  C   UNL     1       0.806   9.974  18.845  0.00  0.00    +0.000 A 
ATOM     17  N   UNL     1       0.196  11.154  18.393  0.00  0.00    +0.000 N 
ATOM     18  N   UNL     1       1.676   9.435  17.970  0.00  0.00    +0.000 NA
ATOM     19  C   UNL     1       2.339   8.330  18.401  0.00  0.00    +0.000 A 
ATOM     20  H   UNL     1      -0.002  11.127  17.396  0.00  0.00    +0.000 HD
BRANCH  17  21
ATOM     21  S   UNL     1       0.993  12.571  18.829  0.00  0.00    +0.000 S 
ATOM     22  C   UNL     1      -0.217  13.839  18.479  0.00  0.00    +0.000 C 
ATOM     23  O   UNL     1       1.150  12.518  20.266  0.00  0.00    +0.000 OA
ATOM     24  O   UNL     1       2.136  12.769  17.963  0.00  0.00    +0.000 OA
ENDBRANCH  17  21
ENDBRANCH   1  13
TORSDOF 3
ENDMDL
MODEL 5
REMARK VINA RESULT:      -7.4      1.971      3.415
REMARK  Name = 
REMARK  5 active torsions:
REMARK  status: ('A' for Active; 'I' for Inactive)
REMARK    1  A    between atoms: C_1  and  C_2
REMARK    2  A    between atoms: C_6  and  O_7
REMARK    3  A    between atoms: O_7  and  C_8
REMARK    4  A    between atoms: N_12  and  S_13
REMARK    5  A    between atoms: S_13  and  C_14
REMARK                            x       y       z     vdW  Elec       q    Type
REMARK                         _______ _______ _______ _____ _____    ______ ____
ROOT
ATOM      1  O   UNL     1       3.192   6.547  19.790  0.00  0.00    +0.000 OA
ENDROOT
BRANCH   1   7
ATOM      2  C   UNL     1       0.835   2.566  18.645  0.00  0.00    +0.000 C 
ATOM      3  C   UNL     1       1.913   3.561  18.351  0.00  0.00    +0.000 A 
ATOM      4  N   UNL     1       2.752   3.304  17.334  0.00  0.00    +0.000 NA
ATOM      5  C   UNL     1       3.753   4.185  17.118  0.00  0.00    +0.000 A 
ATOM      6  C   UNL     1       3.968   5.290  17.926  0.00  0.00    +0.000 A 
ATOM      7  C   UNL     1       3.045   5.453  18.943  0.00  0.00    +0.000 A 
ATOM      8  N   UNL     1       2.002   4.626  19.156  0.00  0.00    +0.000 NA
ATOM      9  C   UNL     1       5.088   6.258  17.685  0.00  0.00    +0.000 C 
ATOM     10  C   UNL     1       6.163   5.710  16.743  0.00  0.00    +0.000 C 
ATOM     11  C   UNL     1       5.524   5.046  15.531  0.00  0.00    +0.000 C 
ATOM     12  C   UNL     1       4.674   3.857  15.972  0.00  0.00    +0.000 C 
ENDBRANCH   1   7
BRANCH   1  13
ATOM     13  C   UNL     1       2.276   7.563  19.667  0.00  0.00    +0.000 A 
ATOM     14  C   UNL     1       1.483   8.029  20.716  0.00  0.00    +0.000 A 
ATOM     15  C   UNL     1       0.598   9.077  20.493  0.00  0.00    +0.000 A 
ATOM     16  C   UNL     1       0.557   9.634  19.227  0.00  0.00    +0.000 A 
ATOM     17  N   UNL     1      -0.253  10.746  18.953  0.00  0.00    +0.000 N 
ATOM     18  N   UNL     1       1.326   9.246  18.193  0.00  0.00    +0.000 NA
ATOM     19  C   UNL     1       2.177   8.216  18.444  0.00  0.00    +0.000 A 
ATOM     20  H   UNL     1      -0.610  10.736  18.000  0.00  0.00    +0.000 HD
BRANCH  17  21
ATOM     21  S   UNL     1       0.433  12.233  19.343  0.00  0.00    +0.000 S 
ATOM     22  C   UNL     1      -0.435  13.372  18.274  0.00  0.00    +0.000 C 
ATOM     23  O   UNL     1       0.018  12.523  20.699  0.00  0.00    +0.000 OA
ATOM     24  O   UNL     1       1.834  12.229  18.978  0.00  0.00    +0.000 OA
ENDBRANCH  17  21
ENDBRANCH   1  13
TORSDOF 3
ENDMDL
MODEL 6
REMARK VINA RESULT:      -7.4      2.821      7.475
REMARK  Name = 
REMARK  5 active torsions:
REMARK  status: ('A' for Active; 'I' for Inactive)
REMARK    1  A    between atoms: C_1  and  C_2
REMARK    2  A    between atoms: C_6  and  O_7
REMARK    3  A    between atoms: O_7  and  C_8
REMARK    4  A    between atoms: N_12  and  S_13
REMARK    5  A    between atoms: S_13  and  C_14
REMARK                            x       y       z     vdW  Elec       q    Type
REMARK                         _______ _______ _______ _____ _____    ______ ____
ROOT
ATOM      1  O   UNL     1       1.606  10.090  18.635  0.00  0.00    +0.000 OA
ENDROOT
BRANCH   1   7
ATOM      2  C   UNL     1      -2.687   9.846  16.582  0.00  0.00    +0.000 C 
ATOM      3  C   UNL     1      -1.817  10.306  17.708  0.00  0.00    +0.000 A 
ATOM      4  N   UNL     1      -2.356  11.111  18.639  0.00  0.00    +0.000 NA
ATOM      5  C   UNL     1      -1.541  11.561  19.617  0.00  0.00    +0.000 A 
ATOM      6  C   UNL     1      -0.187  11.269  19.660  0.00  0.00    +0.000 A 
ATOM      7  C   UNL     1       0.258  10.435  18.652  0.00  0.00    +0.000 A 
ATOM      8  N   UNL     1      -0.535   9.922  17.690  0.00  0.00    +0.000 NA
ATOM      9  C   UNL     1       0.713  11.782  20.745  0.00  0.00    +0.000 C 
ATOM     10  C   UNL     1       0.098  12.936  21.540  0.00  0.00    +0.000 C 
ATOM     11  C   UNL     1      -1.348  12.625  21.903  0.00  0.00    +0.000 C 
ATOM     12  C   UNL     1      -2.184  12.466  20.637  0.00  0.00    +0.000 C 
ENDBRANCH   1   7
BRANCH   1  13
ATOM     13  C   UNL     1       1.921   8.779  18.896  0.00  0.00    +0.000 A 
ATOM     14  C   UNL     1       1.589   8.119  20.080  0.00  0.00    +0.000 A 
ATOM     15  C   UNL     1       1.936   6.783  20.240  0.00  0.00    +0.000 A 
ATOM     16  C   UNL     1       2.586   6.151  19.195  0.00  0.00    +0.000 A 
ATOM     17  N   UNL     1       2.893   4.784  19.256  0.00  0.00    +0.000 N 
ATOM     18  N   UNL     1       2.894   6.731  18.020  0.00  0.00    +0.000 NA
ATOM     19  C   UNL     1       2.545   8.039  17.899  0.00  0.00    +0.000 A 
ATOM     20  H   UNL     1       3.755   4.561  18.764  0.00  0.00    +0.000 HD
BRANCH  17  21
ATOM     21  S   UNL     1       1.638   3.757  18.804  0.00  0.00    +0.000 S 
ATOM     22  C   UNL     1       2.442   2.165  18.681  0.00  0.00    +0.000 C 
ATOM     23  O   UNL     1       0.742   3.694  19.939  0.00  0.00    +0.000 OA
ATOM     24  O   UNL     1       1.153   4.135  17.494  0.00  0.00    +0.000 OA
ENDBRANCH  17  21
ENDBRANCH   1  13
TORSDOF 3
ENDMDL
MODEL 7
REMARK VINA RESULT:      -7.3      1.658      2.000
REMARK  Name = 
REMARK  5 active torsions:
REMARK  status: ('A' for Active; 'I' for Inactive)
REMARK    1  A    between atoms: C_1  and  C_2
REMARK    2  A    between atoms: C_6  and  O_7
REMARK    3  A    between atoms: O_7  and  C_8
REMARK    4  A    between atoms: N_12  and  S_13
REMARK    5  A    between atoms: S_13  and  C_14
REMARK                            x       y       z     vdW  Elec       q    Type
REMARK                         _______ _______ _______ _____ _____    ______ ____
ROOT
ATOM      1  O   UNL     1       2.953   6.726  19.944  0.00  0.00    +0.000 OA
ENDROOT
BRANCH   1   7
ATOM      2  C   UNL     1       5.319   5.792  15.914  0.00  0.00    +0.000 C 
ATOM      3  C   UNL     1       4.397   5.347  17.005  0.00  0.00    +0.000 A 
ATOM      4  N   UNL     1       3.821   4.138  16.896  0.00  0.00    +0.000 NA
ATOM      5  C   UNL     1       2.950   3.776  17.862  0.00  0.00    +0.000 A 
ATOM      6  C   UNL     1       2.598   4.614  18.908  0.00  0.00    +0.000 A 
ATOM      7  C   UNL     1       3.249   5.834  18.918  0.00  0.00    +0.000 A 
ATOM      8  N   UNL     1       4.166   6.209  18.002  0.00  0.00    +0.000 NA
ATOM      9  C   UNL     1       1.621   4.209  19.971  0.00  0.00    +0.000 C 
ATOM     10  C   UNL     1       0.784   2.987  19.583  0.00  0.00    +0.000 C 
ATOM     11  C   UNL     1       1.668   1.904  18.978  0.00  0.00    +0.000 C 
ATOM     12  C   UNL     1       2.323   2.416  17.698  0.00  0.00    +0.000 C 
ENDBRANCH   1   7
BRANCH   1  13
ATOM     13  C   UNL     1       2.125   7.778  19.639  0.00  0.00    +0.000 A 
ATOM     14  C   UNL     1       1.199   8.324  20.529  0.00  0.00    +0.000 A 
ATOM     15  C   UNL     1       0.419   9.403  20.131  0.00  0.00    +0.000 A 
ATOM     16  C   UNL     1       0.613   9.910  18.858  0.00  0.00    +0.000 A 
ATOM     17  N   UNL     1      -0.081  11.046  18.419  0.00  0.00    +0.000 N 
ATOM     18  N   UNL     1       1.518   9.444  17.977  0.00  0.00    +0.000 NA
ATOM     19  C   UNL     1       2.261   8.386  18.397  0.00  0.00    +0.000 A 
ATOM     20  H   UNL     1      -0.279  11.016  17.422  0.00  0.00    +0.000 HD
BRANCH  17  21
ATOM     21  S   UNL     1       0.611  12.514  18.869  0.00  0.00    +0.000 S 
ATOM     22  C   UNL     1       2.269  12.397  18.211  0.00  0.00    +0.000 C 
ATOM     23  O   UNL     1      -0.078  13.533  18.107  0.00  0.00    +0.000 OA
ATOM     24  O   UNL     1       0.688  12.590  20.312  0.00  0.00    +0.000 OA
ENDBRANCH  17  21
ENDBRANCH   1  13
TORSDOF 3
ENDMDL
MODEL 8
REMARK VINA RESULT:      -7.3      2.379      2.795
REMARK  Name = 
REMARK  5 active torsions:
REMARK  status: ('A' for Active; 'I' for Inactive)
REMARK    1  A    between atoms: C_1  and  C_2
REMARK    2  A    between atoms: C_6  and  O_7
REMARK    3  A    between atoms: O_7  and  C_8
REMARK    4  A    between atoms: N_12  and  S_13
REMARK    5  A    between atoms: S_13  and  C_14
REMARK                            x       y       z     vdW  Elec       q    Type
REMARK                         _______ _______ _______ _____ _____    ______ ____
ROOT
ATOM      1  O   UNL     1       3.452   6.840  17.374  0.00  0.00    +0.000 OA
ENDROOT
BRANCH   1   7
ATOM      2  C   UNL     1       7.567   5.657  19.466  0.00  0.00    +0.000 C 
ATOM      3  C   UNL     1       6.159   5.314  19.096  0.00  0.00    +0.000 A 
ATOM      4  N   UNL     1       5.719   4.072  19.358  0.00  0.00    +0.000 NA
ATOM      5  C   UNL     1       4.464   3.763  18.968  0.00  0.00    +0.000 A 
ATOM      6  C   UNL     1       3.654   4.648  18.274  0.00  0.00    +0.000 A 
ATOM      7  C   UNL     1       4.210   5.895  18.058  0.00  0.00    +0.000 A 
ATOM      8  N   UNL     1       5.439   6.258  18.480  0.00  0.00    +0.000 NA
ATOM      9  C   UNL     1       2.264   4.293  17.835  0.00  0.00    +0.000 C 
ATOM     10  C   UNL     1       1.989   2.788  17.873  0.00  0.00    +0.000 C 
ATOM     11  C   UNL     1       2.499   2.184  19.175  0.00  0.00    +0.000 C 
ATOM     12  C   UNL     1       4.012   2.359  19.276  0.00  0.00    +0.000 C 
ENDBRANCH   1   7
BRANCH   1  13
ATOM     13  C   UNL     1       2.566   7.586  18.113  0.00  0.00    +0.000 A 
ATOM     14  C   UNL     1       2.377   7.435  19.487  0.00  0.00    +0.000 A 
ATOM     15  C   UNL     1       1.469   8.253  20.148  0.00  0.00    +0.000 A 
ATOM     16  C   UNL     1       0.798   9.209  19.408  0.00  0.00    +0.000 A 
ATOM     17  N   UNL     1      -0.072  10.121  20.023  0.00  0.00    +0.000 N 
ATOM     18  N   UNL     1       0.971   9.420  18.089  0.00  0.00    +0.000 NA
ATOM     19  C   UNL     1       1.863   8.600  17.473  0.00  0.00    +0.000 A 
ATOM     20  H   UNL     1      -0.850  10.379  19.420  0.00  0.00    +0.000 HD
BRANCH  17  21
ATOM     21  S   UNL     1       0.677  11.477  20.682  0.00  0.00    +0.000 S 
ATOM     22  C   UNL     1      -0.672  12.635  20.866  0.00  0.00    +0.000 C 
ATOM     23  O   UNL     1       1.096  11.097  22.014  0.00  0.00    +0.000 OA
ATOM     24  O   UNL     1       1.625  12.016  19.730  0.00  0.00    +0.000 OA
ENDBRANCH  17  21
ENDBRANCH   1  13
TORSDOF 3
ENDMDL
MODEL 9
REMARK VINA RESULT:      -7.3      2.812      7.519
REMARK  Name = 
REMARK  5 active torsions:
REMARK  status: ('A' for Active; 'I' for Inactive)
REMARK    1  A    between atoms: C_1  and  C_2
REMARK    2  A    between atoms: C_6  and  O_7
REMARK    3  A    between atoms: O_7  and  C_8
REMARK    4  A    between atoms: N_12  and  S_13
REMARK    5  A    between atoms: S_13  and  C_14
REMARK                            x       y       z     vdW  Elec       q    Type
REMARK                         _______ _______ _______ _____ _____    ______ ____
ROOT
ATOM      1  O   UNL     1       1.129  10.319  18.159  0.00  0.00    +0.000 OA
ENDROOT
BRANCH   1   7
ATOM      2  C   UNL     1      -0.040  13.204  21.767  0.00  0.00    +0.000 C 
ATOM      3  C   UNL     1      -0.435  12.435  20.546  0.00  0.00    +0.000 A 
ATOM      4  N   UNL     1      -1.738  12.386  20.221  0.00  0.00    +0.000 NA
ATOM      5  C   UNL     1      -2.082  11.643  19.148  0.00  0.00    +0.000 A 
ATOM      6  C   UNL     1      -1.162  10.903  18.421  0.00  0.00    +0.000 A 
ATOM      7  C   UNL     1       0.148  11.027  18.846  0.00  0.00    +0.000 A 
ATOM      8  N   UNL     1       0.536  11.802  19.879  0.00  0.00    +0.000 NA
ATOM      9  C   UNL     1      -1.555  10.071  17.236  0.00  0.00    +0.000 C 
ATOM     10  C   UNL     1      -3.061   9.811  17.157  0.00  0.00    +0.000 C 
ATOM     11  C   UNL     1      -3.839  11.095  17.414  0.00  0.00    +0.000 C 
ATOM     12  C   UNL     1      -3.553  11.610  18.822  0.00  0.00    +0.000 C 
ENDBRANCH   1   7
BRANCH   1  13
ATOM     13  C   UNL     1       1.584   9.158  18.735  0.00  0.00    +0.000 A 
ATOM     14  C   UNL     1       1.193   8.710  19.997  0.00  0.00    +0.000 A 
ATOM     15  C   UNL     1       1.697   7.509  20.484  0.00  0.00    +0.000 A 
ATOM     16  C   UNL     1       2.558   6.791  19.675  0.00  0.00    +0.000 A 
ATOM     17  N   UNL     1       3.041   5.534  20.069  0.00  0.00    +0.000 N 
ATOM     18  N   UNL     1       2.936   7.161  18.436  0.00  0.00    +0.000 NA
ATOM     19  C   UNL     1       2.429   8.342  17.993  0.00  0.00    +0.000 A 
ATOM     20  H   UNL     1       3.982   5.358  19.726  0.00  0.00    +0.000 HD
BRANCH  17  21
ATOM     21  S   UNL     1       2.009   4.246  19.735  0.00  0.00    +0.000 S 
ATOM     22  C   UNL     1       3.105   2.835  19.755  0.00  0.00    +0.000 C 
ATOM     23  O   UNL     1       1.137   4.123  20.883  0.00  0.00    +0.000 OA
ATOM     24  O   UNL     1       1.466   4.395  18.402  0.00  0.00    +0.000 OA
ENDBRANCH  17  21
ENDBRANCH   1  13
TORSDOF 3
ENDMDL
