MODEL 1
REMARK VINA RESULT:      -9.1      0.000      0.000
REMARK  Name = 
REMARK  11 active torsions:
REMARK  status: ('A' for Active; 'I' for Inactive)
REMARK    1  A    between atoms: C_1  and  C_2
REMARK    2  A    between atoms: C_2  and  C_3
REMARK    3  A    between atoms: C_2  and  C_4
REMARK    4  A    between atoms: C_2  and  O_5
REMARK    5  A    between atoms: O_5  and  C_6
REMARK    6  A    between atoms: N_8  and  C_9
REMARK    7  A    between atoms: C_9  and  C_10
REMARK    8  A    between atoms: C_13  and  C_14
REMARK    9  A    between atoms: N_16  and  C_17
REMARK   10  A    between atoms: C_17  and  C_18
REMARK   11  A    between atoms: C_21  and  N_22
REMARK                            x       y       z     vdW  Elec       q    Type
REMARK                         _______ _______ _______ _____ _____    ______ ____
ROOT
ATOM      1  C   UNL     1       2.623   6.381  19.874  0.00  0.00    +0.000 A 
ATOM      2  N   UNL     1       3.930   6.359  19.566  0.00  0.00    +0.000 NA
ATOM      3  N   UNL     1       4.252   5.046  19.598  0.00  0.00    +0.000 N 
ATOM      4  C   UNL     1       3.184   4.220  19.866  0.00  0.00    +0.000 A 
ATOM      5  C   UNL     1       3.067   2.825  19.951  0.00  0.00    +0.000 A 
ATOM      6  C   UNL     1       1.809   2.297  20.258  0.00  0.00    +0.000 A 
ATOM      7  C   UNL     1       0.715   3.129  20.480  0.00  0.00    +0.000 A 
ATOM      8  C   UNL     1       0.845   4.518  20.392  0.00  0.00    +0.000 A 
ATOM      9  C   UNL     1       2.101   5.075  20.072  0.00  0.00    +0.000 A 
ENDROOT
BRANCH   1  13
ATOM     10  C   UNL     1       0.949   9.524  19.623  0.00  0.00    +0.000 A 
ATOM     11  N   UNL     1       0.434   9.178  20.809  0.00  0.00    +0.000 NA
ATOM     12  O   UNL     1       1.027   7.940  21.064  0.00  0.00    +0.000 OA
ATOM     13  C   UNL     1       1.864   7.668  20.009  0.00  0.00    +0.000 A 
ATOM     14  N   UNL     1       1.876   8.649  19.123  0.00  0.00    +0.000 NA
BRANCH  10  15
ATOM     15  C   UNL     1       0.444  10.685  18.850  0.00  0.00    +0.000 C 
BRANCH  15  18
ATOM     16  C   UNL     1      -1.579  11.870  18.293  0.00  0.00    +0.000 C 
ATOM     17  O   UNL     1      -0.936  12.802  17.830  0.00  0.00    +0.000 OA
ATOM     18  N   UNL     1      -0.997  10.772  18.848  0.00  0.00    +0.000 N 
ATOM     19  H   UNL     1      -1.585  10.023  19.187  0.00  0.00    +0.000 HD
BRANCH  16  20
ATOM     20  O   UNL     1      -2.930  11.769  18.317  0.00  0.00    +0.000 OA
BRANCH  20  22
ATOM     21  C   UNL     1      -2.720  11.092  15.953  0.00  0.00    +0.000 C 
ATOM     22  C   UNL     1      -3.602  11.103  17.210  0.00  0.00    +0.000 C 
ATOM     23  C   UNL     1      -4.981  11.720  16.945  0.00  0.00    +0.000 C 
ATOM     24  C   UNL     1      -3.809   9.645  17.653  0.00  0.00    +0.000 C 
ENDBRANCH  20  22
ENDBRANCH  16  20
ENDBRANCH  15  18
ENDBRANCH  10  15
ENDBRANCH   1  13
BRANCH   3  25
ATOM     25  C   UNL     1       5.644   4.648  19.401  0.00  0.00    +0.000 C 
BRANCH  25  26
ATOM     26  C   UNL     1       5.960   4.453  17.939  0.00  0.00    +0.000 A 
ATOM     27  C   UNL     1       7.250   4.714  17.458  0.00  0.00    +0.000 A 
ATOM     28  C   UNL     1       7.529   4.657  16.092  0.00  0.00    +0.000 A 
ATOM     29  C   UNL     1       6.518   4.327  15.183  0.00  0.00    +0.000 A 
ATOM     30  C   UNL     1       5.247   3.981  15.665  0.00  0.00    +0.000 A 
ATOM     31  C   UNL     1       4.971   4.043  17.034  0.00  0.00    +0.000 A 
BRANCH  29  32
ATOM     32  N   UNL     1       6.746   4.396  13.780  0.00  0.00    +0.000 N 
ATOM     33  C   UNL     1       6.262   3.550  12.802  0.00  0.00    +0.000 A 
ATOM     34  C   UNL     1       6.825   3.940  11.611  0.00  0.00    +0.000 A 
ATOM     35  C   UNL     1       7.621   5.042  11.945  0.00  0.00    +0.000 A 
ATOM     36  N   UNL     1       7.570   5.336  13.245  0.00  0.00    +0.000 NA
ENDBRANCH  29  32
ENDBRANCH  25  26
ENDBRANCH   3  25
TORSDOF 8
ENDMDL
MODEL 2
REMARK VINA RESULT:      -8.6      0.807      1.210
REMARK  Name = 
REMARK  11 active torsions:
REMARK  status: ('A' for Active; 'I' for Inactive)
REMARK    1  A    between atoms: C_1  and  C_2
REMARK    2  A    between atoms: C_2  and  C_3
REMARK    3  A    between atoms: C_2  and  C_4
REMARK    4  A    between atoms: C_2  and  O_5
REMARK    5  A    between atoms: O_5  and  C_6
REMARK    6  A    between atoms: N_8  and  C_9
REMARK    7  A    between atoms: C_9  and  C_10
REMARK    8  A    between atoms: C_13  and  C_14
REMARK    9  A    between atoms: N_16  and  C_17
REMARK   10  A    between atoms: C_17  and  C_18
REMARK   11  A    between atoms: C_21  and  N_22
REMARK                            x       y       z     vdW  Elec       q    Type
REMARK                         _______ _______ _______ _____ _____    ______ ____
ROOT
ATOM      1  C   UNL     1       2.398   6.645  19.983  0.00  0.00    +0.000 A 
ATOM      2  N   UNL     1       3.649   6.774  19.514  0.00  0.00    +0.000 NA
ATOM      3  N   UNL     1       4.100   5.503  19.427  0.00  0.00    +0.000 N 
ATOM      4  C   UNL     1       3.162   4.558  19.775  0.00  0.00    +0.000 A 
ATOM      5  C   UNL     1       3.194   3.155  19.791  0.00  0.00    +0.000 A 
ATOM      6  C   UNL     1       2.045   2.484  20.220  0.00  0.00    +0.000 A 
ATOM      7  C   UNL     1       0.912   3.185  20.625  0.00  0.00    +0.000 A 
ATOM      8  C   UNL     1       0.893   4.583  20.606  0.00  0.00    +0.000 A 
ATOM      9  C   UNL     1       2.037   5.283  20.165  0.00  0.00    +0.000 A 
ENDROOT
BRANCH   1  13
ATOM     10  C   UNL     1       0.577   9.708  20.207  0.00  0.00    +0.000 A 
ATOM     11  N   UNL     1      -0.106   9.060  21.159  0.00  0.00    +0.000 NA
ATOM     12  O   UNL     1       0.519   7.814  21.207  0.00  0.00    +0.000 OA
ATOM     13  C   UNL     1       1.540   7.837  20.288  0.00  0.00    +0.000 A 
ATOM     14  N   UNL     1       1.634   9.010  19.686  0.00  0.00    +0.000 NA
BRANCH  10  15
ATOM     15  C   UNL     1       0.133  11.015  19.663  0.00  0.00    +0.000 C 
BRANCH  15  18
ATOM     16  C   UNL     1      -1.609  11.559  18.089  0.00  0.00    +0.000 C 
ATOM     17  O   UNL     1      -2.207  12.206  18.936  0.00  0.00    +0.000 OA
ATOM     18  N   UNL     1      -0.443  10.903  18.344  0.00  0.00    +0.000 N 
ATOM     19  H   UNL     1       0.017  10.410  17.592  0.00  0.00    +0.000 HD
BRANCH  16  20
ATOM     20  O   UNL     1      -1.981  11.402  16.796  0.00  0.00    +0.000 OA
BRANCH  20  22
ATOM     21  C   UNL     1      -3.088   9.968  15.120  0.00  0.00    +0.000 C 
ATOM     22  C   UNL     1      -3.181  10.633  16.501  0.00  0.00    +0.000 C 
ATOM     23  C   UNL     1      -4.444  11.492  16.646  0.00  0.00    +0.000 C 
ATOM     24  C   UNL     1      -3.242   9.516  17.557  0.00  0.00    +0.000 C 
ENDBRANCH  20  22
ENDBRANCH  16  20
ENDBRANCH  15  18
ENDBRANCH  10  15
ENDBRANCH   1  13
BRANCH   3  25
ATOM     25  C   UNL     1       5.487   5.263  19.035  0.00  0.00    +0.000 C 
BRANCH  25  26
ATOM     26  C   UNL     1       5.610   5.049  17.547  0.00  0.00    +0.000 A 
ATOM     27  C   UNL     1       4.503   4.614  16.806  0.00  0.00    +0.000 A 
ATOM     28  C   UNL     1       4.629   4.293  15.453  0.00  0.00    +0.000 A 
ATOM     29  C   UNL     1       5.870   4.411  14.817  0.00  0.00    +0.000 A 
ATOM     30  C   UNL     1       6.962   4.928  15.532  0.00  0.00    +0.000 A 
ATOM     31  C   UNL     1       6.831   5.245  16.887  0.00  0.00    +0.000 A 
BRANCH  29  32
ATOM     32  N   UNL     1       6.052   3.962  13.479  0.00  0.00    +0.000 N 
ATOM     33  C   UNL     1       5.136   3.320  12.670  0.00  0.00    +0.000 A 
ATOM     34  C   UNL     1       5.783   2.987  11.506  0.00  0.00    +0.000 A 
ATOM     35  C   UNL     1       7.083   3.479  11.676  0.00  0.00    +0.000 A 
ATOM     36  N   UNL     1       7.253   4.082  12.853  0.00  0.00    +0.000 NA
ENDBRANCH  29  32
ENDBRANCH  25  26
ENDBRANCH   3  25
TORSDOF 8
ENDMDL
MODEL 3
REMARK VINA RESULT:      -8.5      2.019      2.834
REMARK  Name = 
REMARK  11 active torsions:
REMARK  status: ('A' for Active; 'I' for Inactive)
REMARK    1  A    between atoms: C_1  and  C_2
REMARK    2  A    between atoms: C_2  and  C_3
REMARK    3  A    between atoms: C_2  and  C_4
REMARK    4  A    between atoms: C_2  and  O_5
REMARK    5  A    between atoms: O_5  and  C_6
REMARK    6  A    between atoms: N_8  and  C_9
REMARK    7  A    between atoms: C_9  and  C_10
REMARK    8  A    between atoms: C_13  and  C_14
REMARK    9  A    between atoms: N_16  and  C_17
REMARK   10  A    between atoms: C_17  and  C_18
REMARK   11  A    between atoms: C_21  and  N_22
REMARK                            x       y       z     vdW  Elec       q    Type
REMARK                         _______ _______ _______ _____ _____    ______ ____
ROOT
ATOM      1  C   UNL     1       2.570   6.388  19.906  0.00  0.00    +0.000 A 
ATOM      2  N   UNL     1       3.879   6.400  19.608  0.00  0.00    +0.000 NA
ATOM      3  N   UNL     1       4.225   5.093  19.597  0.00  0.00    +0.000 N 
ATOM      4  C   UNL     1       3.171   4.239  19.827  0.00  0.00    +0.000 A 
ATOM      5  C   UNL     1       3.079   2.840  19.863  0.00  0.00    +0.000 A 
ATOM      6  C   UNL     1       1.829   2.279  20.141  0.00  0.00    +0.000 A 
ATOM      7  C   UNL     1       0.717   3.082  20.382  0.00  0.00    +0.000 A 
ATOM      8  C   UNL     1       0.823   4.476  20.344  0.00  0.00    +0.000 A 
ATOM      9  C   UNL     1       2.071   5.066  20.054  0.00  0.00    +0.000 A 
ENDROOT
BRANCH   1  13
ATOM     10  C   UNL     1       0.860   9.519  19.757  0.00  0.00    +0.000 A 
ATOM     11  N   UNL     1       0.299   9.098  20.898  0.00  0.00    +0.000 NA
ATOM     12  O   UNL     1       0.899   7.856  21.109  0.00  0.00    +0.000 OA
ATOM     13  C   UNL     1       1.786   7.655  20.079  0.00  0.00    +0.000 A 
ATOM     14  N   UNL     1       1.822   8.685  19.251  0.00  0.00    +0.000 NA
BRANCH  10  15
ATOM     15  C   UNL     1       0.373  10.716  19.029  0.00  0.00    +0.000 C 
BRANCH  15  18
ATOM     16  C   UNL     1       1.649  12.751  19.216  0.00  0.00    +0.000 C 
ATOM     17  O   UNL     1       2.311  12.457  18.231  0.00  0.00    +0.000 OA
ATOM     18  N   UNL     1       0.670  11.948  19.718  0.00  0.00    +0.000 N 
ATOM     19  H   UNL     1       0.140  12.263  20.518  0.00  0.00    +0.000 HD
BRANCH  16  20
ATOM     20  O   UNL     1       1.762  13.891  19.940  0.00  0.00    +0.000 OA
BRANCH  20  22
ATOM     21  C   UNL     1      -0.057  15.041  18.732  0.00  0.00    +0.000 C 
ATOM     22  C   UNL     1       1.352  15.149  19.333  0.00  0.00    +0.000 C 
ATOM     23  C   UNL     1       2.384  15.634  18.307  0.00  0.00    +0.000 C 
ATOM     24  C   UNL     1       1.299  16.176  20.476  0.00  0.00    +0.000 C 
ENDBRANCH  20  22
ENDBRANCH  16  20
ENDBRANCH  15  18
ENDBRANCH  10  15
ENDBRANCH   1  13
BRANCH   3  25
ATOM     25  C   UNL     1       5.626   4.728  19.398  0.00  0.00    +0.000 C 
BRANCH  25  26
ATOM     26  C   UNL     1       5.938   4.513  17.938  0.00  0.00    +0.000 A 
ATOM     27  C   UNL     1       7.248   4.679  17.468  0.00  0.00    +0.000 A 
ATOM     28  C   UNL     1       7.533   4.604  16.104  0.00  0.00    +0.000 A 
ATOM     29  C   UNL     1       6.507   4.354  15.186  0.00  0.00    +0.000 A 
ATOM     30  C   UNL     1       5.210   4.101  15.658  0.00  0.00    +0.000 A 
ATOM     31  C   UNL     1       4.929   4.180  17.025  0.00  0.00    +0.000 A 
BRANCH  29  32
ATOM     32  N   UNL     1       6.750   4.408  13.785  0.00  0.00    +0.000 N 
ATOM     33  C   UNL     1       6.281   3.550  12.811  0.00  0.00    +0.000 A 
ATOM     34  C   UNL     1       6.855   3.930  11.622  0.00  0.00    +0.000 A 
ATOM     35  C   UNL     1       7.643   5.038  11.954  0.00  0.00    +0.000 A 
ATOM     36  N   UNL     1       7.577   5.346  13.250  0.00  0.00    +0.000 NA
ENDBRANCH  29  32
ENDBRANCH  25  26
ENDBRANCH   3  25
TORSDOF 8
ENDMDL
MODEL 4
REMARK VINA RESULT:      -8.4      2.076      3.176
REMARK  Name = 
REMARK  11 active torsions:
REMARK  status: ('A' for Active; 'I' for Inactive)
REMARK    1  A    between atoms: C_1  and  C_2
REMARK    2  A    between atoms: C_2  and  C_3
REMARK    3  A    between atoms: C_2  and  C_4
REMARK    4  A    between atoms: C_2  and  O_5
REMARK    5  A    between atoms: O_5  and  C_6
REMARK    6  A    between atoms: N_8  and  C_9
REMARK    7  A    between atoms: C_9  and  C_10
REMARK    8  A    between atoms: C_13  and  C_14
REMARK    9  A    between atoms: N_16  and  C_17
REMARK   10  A    between atoms: C_17  and  C_18
REMARK   11  A    between atoms: C_21  and  N_22
REMARK                            x       y       z     vdW  Elec       q    Type
REMARK                         _______ _______ _______ _____ _____    ______ ____
ROOT
ATOM      1  C   UNL     1       2.445   6.567  20.043  0.00  0.00    +0.000 A 
ATOM      2  N   UNL     1       3.747   6.710  19.748  0.00  0.00    +0.000 NA
ATOM      3  N   UNL     1       4.200   5.441  19.640  0.00  0.00    +0.000 N 
ATOM      4  C   UNL     1       3.221   4.488  19.804  0.00  0.00    +0.000 A 
ATOM      5  C   UNL     1       3.245   3.087  19.735  0.00  0.00    +0.000 A 
ATOM      6  C   UNL     1       2.048   2.405  19.969  0.00  0.00    +0.000 A 
ATOM      7  C   UNL     1       0.875   3.093  20.269  0.00  0.00    +0.000 A 
ATOM      8  C   UNL     1       0.864   4.490  20.335  0.00  0.00    +0.000 A 
ATOM      9  C   UNL     1       2.058   5.202  20.091  0.00  0.00    +0.000 A 
ENDROOT
BRANCH   1  13
ATOM     10  C   UNL     1       0.517   9.570  20.145  0.00  0.00    +0.000 A 
ATOM     11  N   UNL     1      -0.073   8.980  21.192  0.00  0.00    +0.000 NA
ATOM     12  O   UNL     1       0.606   7.766  21.298  0.00  0.00    +0.000 OA
ATOM     13  C   UNL     1       1.560   7.749  20.309  0.00  0.00    +0.000 A 
ATOM     14  N   UNL     1       1.564   8.869  19.609  0.00  0.00    +0.000 NA
BRANCH  10  15
ATOM     15  C   UNL     1      -0.018  10.809  19.528  0.00  0.00    +0.000 C 
BRANCH  15  18
ATOM     16  C   UNL     1       1.674  12.484  19.893  0.00  0.00    +0.000 C 
ATOM     17  O   UNL     1       1.396  12.543  21.082  0.00  0.00    +0.000 OA
ATOM     18  N   UNL     1       1.020  11.672  19.018  0.00  0.00    +0.000 N 
ATOM     19  H   UNL     1       1.319  11.648  18.053  0.00  0.00    +0.000 HD
BRANCH  16  20
ATOM     20  O   UNL     1       2.655  13.181  19.269  0.00  0.00    +0.000 OA
BRANCH  20  22
ATOM     21  C   UNL     1       3.142  15.345  20.351  0.00  0.00    +0.000 C 
ATOM     22  C   UNL     1       2.519  14.625  19.146  0.00  0.00    +0.000 C 
ATOM     23  C   UNL     1       1.055  15.029  18.924  0.00  0.00    +0.000 C 
ATOM     24  C   UNL     1       3.317  15.024  17.894  0.00  0.00    +0.000 C 
ENDBRANCH  20  22
ENDBRANCH  16  20
ENDBRANCH  15  18
ENDBRANCH  10  15
ENDBRANCH   1  13
BRANCH   3  25
ATOM     25  C   UNL     1       5.625   5.209  19.415  0.00  0.00    +0.000 C 
BRANCH  25  26
ATOM     26  C   UNL     1       5.948   5.144  17.943  0.00  0.00    +0.000 A 
ATOM     27  C   UNL     1       4.976   5.491  16.995  0.00  0.00    +0.000 A 
ATOM     28  C   UNL     1       5.216   5.321  15.630  0.00  0.00    +0.000 A 
ATOM     29  C   UNL     1       6.441   4.806  15.193  0.00  0.00    +0.000 A 
ATOM     30  C   UNL     1       7.449   4.538  16.132  0.00  0.00    +0.000 A 
ATOM     31  C   UNL     1       7.203   4.708  17.497  0.00  0.00    +0.000 A 
BRANCH  29  32
ATOM     32  N   UNL     1       6.656   4.498  13.820  0.00  0.00    +0.000 N 
ATOM     33  C   UNL     1       6.076   3.488  13.078  0.00  0.00    +0.000 A 
ATOM     34  C   UNL     1       6.659   3.509  11.835  0.00  0.00    +0.000 A 
ATOM     35  C   UNL     1       7.568   4.572  11.893  0.00  0.00    +0.000 A 
ATOM     36  N   UNL     1       7.565   5.186  13.078  0.00  0.00    +0.000 NA
ENDBRANCH  29  32
ENDBRANCH  25  26
ENDBRANCH   3  25
TORSDOF 8
ENDMDL
MODEL 5
REMARK VINA RESULT:      -8.4      2.294      2.685
REMARK  Name = 
REMARK  11 active torsions:
REMARK  status: ('A' for Active; 'I' for Inactive)
REMARK    1  A    between atoms: C_1  and  C_2
REMARK    2  A    between atoms: C_2  and  C_3
REMARK    3  A    between atoms: C_2  and  C_4
REMARK    4  A    between atoms: C_2  and  O_5
REMARK    5  A    between atoms: O_5  and  C_6
REMARK    6  A    between atoms: N_8  and  C_9
REMARK    7  A    between atoms: C_9  and  C_10
REMARK    8  A    between atoms: C_13  and  C_14
REMARK    9  A    between atoms: N_16  and  C_17
REMARK   10  A    between atoms: C_17  and  C_18
REMARK   11  A    between atoms: C_21  and  N_22
REMARK                            x       y       z     vdW  Elec       q    Type
REMARK                         _______ _______ _______ _____ _____    ______ ____
ROOT
ATOM      1  C   UNL     1       2.626   6.472  19.742  0.00  0.00    +0.000 A 
ATOM      2  N   UNL     1       3.935   6.414  19.449  0.00  0.00    +0.000 NA
ATOM      3  N   UNL     1       4.236   5.099  19.549  0.00  0.00    +0.000 N 
ATOM      4  C   UNL     1       3.153   4.305  19.847  0.00  0.00    +0.000 A 
ATOM      5  C   UNL     1       3.012   2.917  20.001  0.00  0.00    +0.000 A 
ATOM      6  C   UNL     1       1.744   2.425  20.321  0.00  0.00    +0.000 A 
ATOM      7  C   UNL     1       0.660   3.283  20.489  0.00  0.00    +0.000 A 
ATOM      8  C   UNL     1       0.814   4.665  20.334  0.00  0.00    +0.000 A 
ATOM      9  C   UNL     1       2.082   5.185  19.999  0.00  0.00    +0.000 A 
ENDROOT
BRANCH   1  13
ATOM     10  C   UNL     1       1.011   9.572  20.465  0.00  0.00    +0.000 A 
ATOM     11  N   UNL     1       0.951   9.683  19.132  0.00  0.00    +0.000 NA
ATOM     12  O   UNL     1       1.543   8.500  18.688  0.00  0.00    +0.000 OA
ATOM     13  C   UNL     1       1.886   7.775  19.804  0.00  0.00    +0.000 A 
ATOM     14  N   UNL     1       1.528   8.388  20.919  0.00  0.00    +0.000 NA
BRANCH  10  15
ATOM     15  C   UNL     1       0.679  10.701  21.369  0.00  0.00    +0.000 C 
BRANCH  15  18
ATOM     16  C   UNL     1      -1.409  11.578  22.190  0.00  0.00    +0.000 C 
ATOM     17  O   UNL     1      -1.060  11.397  23.348  0.00  0.00    +0.000 OA
ATOM     18  N   UNL     1      -0.633  11.248  21.121  0.00  0.00    +0.000 N 
ATOM     19  H   UNL     1      -0.969  11.451  20.190  0.00  0.00    +0.000 HD
BRANCH  16  20
ATOM     20  O   UNL     1      -2.579  12.132  21.789  0.00  0.00    +0.000 OA
BRANCH  20  22
ATOM     21  C   UNL     1      -1.735  14.401  22.270  0.00  0.00    +0.000 C 
ATOM     22  C   UNL     1      -2.940  13.449  22.294  0.00  0.00    +0.000 C 
ATOM     23  C   UNL     1      -3.576  13.355  23.687  0.00  0.00    +0.000 C 
ATOM     24  C   UNL     1      -3.998  14.002  21.325  0.00  0.00    +0.000 C 
ENDBRANCH  20  22
ENDBRANCH  16  20
ENDBRANCH  15  18
ENDBRANCH  10  15
ENDBRANCH   1  13
BRANCH   3  25
ATOM     25  C   UNL     1       5.623   4.671  19.387  0.00  0.00    +0.000 C 
BRANCH  25  26
ATOM     26  C   UNL     1       5.976   4.483  17.932  0.00  0.00    +0.000 A 
ATOM     27  C   UNL     1       7.219   4.913  17.449  0.00  0.00    +0.000 A 
ATOM     28  C   UNL     1       7.514   4.859  16.086  0.00  0.00    +0.000 A 
ATOM     29  C   UNL     1       6.567   4.363  15.183  0.00  0.00    +0.000 A 
ATOM     30  C   UNL     1       5.355   3.851  15.670  0.00  0.00    +0.000 A 
ATOM     31  C   UNL     1       5.063   3.910  17.036  0.00  0.00    +0.000 A 
BRANCH  29  32
ATOM     32  N   UNL     1       6.794   4.425  13.779  0.00  0.00    +0.000 N 
ATOM     33  C   UNL     1       6.305   3.578  12.805  0.00  0.00    +0.000 A 
ATOM     34  C   UNL     1       6.868   3.960  11.612  0.00  0.00    +0.000 A 
ATOM     35  C   UNL     1       7.670   5.060  11.941  0.00  0.00    +0.000 A 
ATOM     36  N   UNL     1       7.623   5.359  13.240  0.00  0.00    +0.000 NA
ENDBRANCH  29  32
ENDBRANCH  25  26
ENDBRANCH   3  25
TORSDOF 8
ENDMDL
MODEL 6
REMARK VINA RESULT:      -8.3      1.742      2.415
REMARK  Name = 
REMARK  11 active torsions:
REMARK  status: ('A' for Active; 'I' for Inactive)
REMARK    1  A    between atoms: C_1  and  C_2
REMARK    2  A    between atoms: C_2  and  C_3
REMARK    3  A    between atoms: C_2  and  C_4
REMARK    4  A    between atoms: C_2  and  O_5
REMARK    5  A    between atoms: O_5  and  C_6
REMARK    6  A    between atoms: N_8  and  C_9
REMARK    7  A    between atoms: C_9  and  C_10
REMARK    8  A    between atoms: C_13  and  C_14
REMARK    9  A    between atoms: N_16  and  C_17
REMARK   10  A    between atoms: C_17  and  C_18
REMARK   11  A    between atoms: C_21  and  N_22
REMARK                            x       y       z     vdW  Elec       q    Type
REMARK                         _______ _______ _______ _____ _____    ______ ____
ROOT
ATOM      1  C   UNL     1       2.573   6.330  19.952  0.00  0.00    +0.000 A 
ATOM      2  N   UNL     1       3.846   6.337  19.527  0.00  0.00    +0.000 NA
ATOM      3  N   UNL     1       4.194   5.030  19.510  0.00  0.00    +0.000 N 
ATOM      4  C   UNL     1       3.170   4.180  19.860  0.00  0.00    +0.000 A 
ATOM      5  C   UNL     1       3.086   2.782  19.935  0.00  0.00    +0.000 A 
ATOM      6  C   UNL     1       1.871   2.225  20.345  0.00  0.00    +0.000 A 
ATOM      7  C   UNL     1       0.786   3.032  20.677  0.00  0.00    +0.000 A 
ATOM      8  C   UNL     1       0.883   4.425  20.599  0.00  0.00    +0.000 A 
ATOM      9  C   UNL     1       2.094   5.011  20.176  0.00  0.00    +0.000 A 
ENDROOT
BRANCH   1  13
ATOM     10  C   UNL     1       0.792   9.423  19.894  0.00  0.00    +0.000 A 
ATOM     11  N   UNL     1       0.463   9.088  21.148  0.00  0.00    +0.000 NA
ATOM     12  O   UNL     1       1.121   7.872  21.334  0.00  0.00    +0.000 OA
ATOM     13  C   UNL     1       1.805   7.599  20.174  0.00  0.00    +0.000 A 
ATOM     14  N   UNL     1       1.662   8.562  19.280  0.00  0.00    +0.000 NA
BRANCH  10  15
ATOM     15  C   UNL     1       0.150  10.556  19.182  0.00  0.00    +0.000 C 
BRANCH  15  18
ATOM     16  C   UNL     1      -1.126  12.334  20.190  0.00  0.00    +0.000 C 
ATOM     17  O   UNL     1      -0.214  13.127  20.007  0.00  0.00    +0.000 OA
ATOM     18  N   UNL     1      -1.048  11.021  19.840  0.00  0.00    +0.000 N 
ATOM     19  H   UNL     1      -1.849  10.424  19.993  0.00  0.00    +0.000 HD
BRANCH  16  20
ATOM     20  O   UNL     1      -2.331  12.620  20.739  0.00  0.00    +0.000 OA
BRANCH  20  22
ATOM     21  C   UNL     1      -1.510  11.731  22.890  0.00  0.00    +0.000 C 
ATOM     22  C   UNL     1      -2.431  12.738  22.186  0.00  0.00    +0.000 C 
ATOM     23  C   UNL     1      -3.887  12.618  22.655  0.00  0.00    +0.000 C 
ATOM     24  C   UNL     1      -1.935  14.152  22.534  0.00  0.00    +0.000 C 
ENDBRANCH  20  22
ENDBRANCH  16  20
ENDBRANCH  15  18
ENDBRANCH  10  15
ENDBRANCH   1  13
BRANCH   3  25
ATOM     25  C   UNL     1       5.569   4.663  19.183  0.00  0.00    +0.000 C 
BRANCH  25  26
ATOM     26  C   UNL     1       5.821   4.734  17.697  0.00  0.00    +0.000 A 
ATOM     27  C   UNL     1       4.886   4.200  16.800  0.00  0.00    +0.000 A 
ATOM     28  C   UNL     1       5.158   4.147  15.432  0.00  0.00    +0.000 A 
ATOM     29  C   UNL     1       6.371   4.638  14.939  0.00  0.00    +0.000 A 
ATOM     30  C   UNL     1       7.273   5.252  15.821  0.00  0.00    +0.000 A 
ATOM     31  C   UNL     1       6.999   5.300  17.190  0.00  0.00    +0.000 A 
BRANCH  29  32
ATOM     32  N   UNL     1       6.725   4.471  13.570  0.00  0.00    +0.000 N 
ATOM     33  C   UNL     1       6.285   3.499  12.695  0.00  0.00    +0.000 A 
ATOM     34  C   UNL     1       6.970   3.670  11.517  0.00  0.00    +0.000 A 
ATOM     35  C   UNL     1       7.791   4.780  11.749  0.00  0.00    +0.000 A 
ATOM     36  N   UNL     1       7.642   5.281  12.977  0.00  0.00    +0.000 NA
ENDBRANCH  29  32
ENDBRANCH  25  26
ENDBRANCH   3  25
TORSDOF 8
ENDMDL
MODEL 7
REMARK VINA RESULT:      -8.3      4.195      9.705
REMARK  Name = 
REMARK  11 active torsions:
REMARK  status: ('A' for Active; 'I' for Inactive)
REMARK    1  A    between atoms: C_1  and  C_2
REMARK    2  A    between atoms: C_2  and  C_3
REMARK    3  A    between atoms: C_2  and  C_4
REMARK    4  A    between atoms: C_2  and  O_5
REMARK    5  A    between atoms: O_5  and  C_6
REMARK    6  A    between atoms: N_8  and  C_9
REMARK    7  A    between atoms: C_9  and  C_10
REMARK    8  A    between atoms: C_13  and  C_14
REMARK    9  A    between atoms: N_16  and  C_17
REMARK   10  A    between atoms: C_17  and  C_18
REMARK   11  A    between atoms: C_21  and  N_22
REMARK                            x       y       z     vdW  Elec       q    Type
REMARK                         _______ _______ _______ _____ _____    ______ ____
ROOT
ATOM      1  C   UNL     1       0.740  10.060  19.086  0.00  0.00    +0.000 A 
ATOM      2  N   UNL     1       1.160  11.058  19.879  0.00  0.00    +0.000 NA
ATOM      3  N   UNL     1       0.210  12.010  19.739  0.00  0.00    +0.000 N 
ATOM      4  C   UNL     1      -0.833  11.636  18.923  0.00  0.00    +0.000 A 
ATOM      5  C   UNL     1      -2.017  12.286  18.545  0.00  0.00    +0.000 A 
ATOM      6  C   UNL     1      -2.877  11.612  17.673  0.00  0.00    +0.000 A 
ATOM      7  C   UNL     1      -2.564  10.344  17.190  0.00  0.00    +0.000 A 
ATOM      8  C   UNL     1      -1.379   9.708  17.574  0.00  0.00    +0.000 A 
ATOM      9  C   UNL     1      -0.500  10.362  18.463  0.00  0.00    +0.000 A 
ENDROOT
BRANCH   1  13
ATOM     10  C   UNL     1       2.464   6.935  19.181  0.00  0.00    +0.000 A 
ATOM     11  N   UNL     1       2.630   7.155  17.871  0.00  0.00    +0.000 NA
ATOM     12  O   UNL     1       2.008   8.389  17.674  0.00  0.00    +0.000 OA
ATOM     13  C   UNL     1       1.543   8.807  18.898  0.00  0.00    +0.000 A 
ATOM     14  N   UNL     1       1.851   7.955  19.860  0.00  0.00    +0.000 NA
BRANCH  10  15
ATOM     15  C   UNL     1       2.788   5.633  19.813  0.00  0.00    +0.000 C 
BRANCH  15  18
ATOM     16  C   UNL     1       4.714   4.496  18.915  0.00  0.00    +0.000 C 
ATOM     17  O   UNL     1       4.019   3.912  18.096  0.00  0.00    +0.000 OA
ATOM     18  N   UNL     1       4.206   5.361  19.836  0.00  0.00    +0.000 N 
ATOM     19  H   UNL     1       4.838   5.833  20.466  0.00  0.00    +0.000 HD
BRANCH  16  20
ATOM     20  O   UNL     1       6.060   4.397  19.031  0.00  0.00    +0.000 OA
BRANCH  20  22
ATOM     21  C   UNL     1       7.975   5.947  19.179  0.00  0.00    +0.000 C 
ATOM     22  C   UNL     1       6.897   5.322  18.281  0.00  0.00    +0.000 C 
ATOM     23  C   UNL     1       6.051   6.385  17.567  0.00  0.00    +0.000 C 
ATOM     24  C   UNL     1       7.607   4.480  17.208  0.00  0.00    +0.000 C 
ENDBRANCH  20  22
ENDBRANCH  16  20
ENDBRANCH  15  18
ENDBRANCH  10  15
ENDBRANCH   1  13
BRANCH   3  25
ATOM     25  C   UNL     1       0.393  13.302  20.396  0.00  0.00    +0.000 C 
BRANCH  25  26
ATOM     26  C   UNL     1       1.684  13.958  19.974  0.00  0.00    +0.000 A 
ATOM     27  C   UNL     1       1.885  14.317  18.635  0.00  0.00    +0.000 A 
ATOM     28  C   UNL     1       3.117  14.811  18.203  0.00  0.00    +0.000 A 
ATOM     29  C   UNL     1       4.169  14.962  19.113  0.00  0.00    +0.000 A 
ATOM     30  C   UNL     1       3.948  14.686  20.471  0.00  0.00    +0.000 A 
ATOM     31  C   UNL     1       2.713  14.188  20.898  0.00  0.00    +0.000 A 
BRANCH  29  32
ATOM     32  N   UNL     1       5.470  15.334  18.671  0.00  0.00    +0.000 N 
ATOM     33  C   UNL     1       6.329  14.612  17.867  0.00  0.00    +0.000 A 
ATOM     34  C   UNL     1       7.506  15.317  17.792  0.00  0.00    +0.000 A 
ATOM     35  C   UNL     1       7.275  16.465  18.560  0.00  0.00    +0.000 A 
ATOM     36  N   UNL     1       6.048  16.494  19.082  0.00  0.00    +0.000 NA
ENDBRANCH  29  32
ENDBRANCH  25  26
ENDBRANCH   3  25
TORSDOF 8
ENDMDL
MODEL 8
REMARK VINA RESULT:      -8.3      1.699      2.629
REMARK  Name = 
REMARK  11 active torsions:
REMARK  status: ('A' for Active; 'I' for Inactive)
REMARK    1  A    between atoms: C_1  and  C_2
REMARK    2  A    between atoms: C_2  and  C_3
REMARK    3  A    between atoms: C_2  and  C_4
REMARK    4  A    between atoms: C_2  and  O_5
REMARK    5  A    between atoms: O_5  and  C_6
REMARK    6  A    between atoms: N_8  and  C_9
REMARK    7  A    between atoms: C_9  and  C_10
REMARK    8  A    between atoms: C_13  and  C_14
REMARK    9  A    between atoms: N_16  and  C_17
REMARK   10  A    between atoms: C_17  and  C_18
REMARK   11  A    between atoms: C_21  and  N_22
REMARK                            x       y       z     vdW  Elec       q    Type
REMARK                         _______ _______ _______ _____ _____    ______ ____
ROOT
ATOM      1  C   UNL     1       2.572   6.479  19.856  0.00  0.00    +0.000 A 
ATOM      2  N   UNL     1       3.879   6.494  19.551  0.00  0.00    +0.000 NA
ATOM      3  N   UNL     1       4.240   5.192  19.591  0.00  0.00    +0.000 N 
ATOM      4  C   UNL     1       3.197   4.336  19.861  0.00  0.00    +0.000 A 
ATOM      5  C   UNL     1       3.121   2.938  19.954  0.00  0.00    +0.000 A 
ATOM      6  C   UNL     1       1.879   2.375  20.261  0.00  0.00    +0.000 A 
ATOM      7  C   UNL     1       0.760   3.174  20.475  0.00  0.00    +0.000 A 
ATOM      8  C   UNL     1       0.849   4.567  20.380  0.00  0.00    +0.000 A 
ATOM      9  C   UNL     1       2.089   5.159  20.060  0.00  0.00    +0.000 A 
ENDROOT
BRANCH   1  13
ATOM     10  C   UNL     1       0.781   9.555  19.576  0.00  0.00    +0.000 A 
ATOM     11  N   UNL     1       0.324   9.228  20.791  0.00  0.00    +0.000 NA
ATOM     12  O   UNL     1       0.969   8.020  21.060  0.00  0.00    +0.000 OA
ATOM     13  C   UNL     1       1.774   7.743  19.981  0.00  0.00    +0.000 A 
ATOM     14  N   UNL     1       1.719   8.696  19.067  0.00  0.00    +0.000 NA
BRANCH  10  15
ATOM     15  C   UNL     1       0.208  10.674  18.788  0.00  0.00    +0.000 C 
BRANCH  15  18
ATOM     16  C   UNL     1      -0.357  13.013  18.920  0.00  0.00    +0.000 C 
ATOM     17  O   UNL     1      -0.806  12.995  17.783  0.00  0.00    +0.000 OA
ATOM     18  N   UNL     1       0.195  11.920  19.517  0.00  0.00    +0.000 N 
ATOM     19  H   UNL     1       0.521  11.994  20.470  0.00  0.00    +0.000 HD
BRANCH  16  20
ATOM     20  O   UNL     1      -0.346  14.080  19.755  0.00  0.00    +0.000 OA
BRANCH  20  22
ATOM     21  C   UNL     1      -0.319  16.269  18.616  0.00  0.00    +0.000 C 
ATOM     22  C   UNL     1       0.481  15.228  19.413  0.00  0.00    +0.000 C 
ATOM     23  C   UNL     1       1.758  14.796  18.682  0.00  0.00    +0.000 C 
ATOM     24  C   UNL     1       0.891  15.871  20.748  0.00  0.00    +0.000 C 
ENDBRANCH  20  22
ENDBRANCH  16  20
ENDBRANCH  15  18
ENDBRANCH  10  15
ENDBRANCH   1  13
BRANCH   3  25
ATOM     25  C   UNL     1       5.644   4.835  19.400  0.00  0.00    +0.000 C 
BRANCH  25  26
ATOM     26  C   UNL     1       5.947   4.545  17.951  0.00  0.00    +0.000 A 
ATOM     27  C   UNL     1       7.244   4.732  17.453  0.00  0.00    +0.000 A 
ATOM     28  C   UNL     1       7.515   4.587  16.092  0.00  0.00    +0.000 A 
ATOM     29  C   UNL     1       6.489   4.244  15.205  0.00  0.00    +0.000 A 
ATOM     30  C   UNL     1       5.208   3.971  15.709  0.00  0.00    +0.000 A 
ATOM     31  C   UNL     1       4.941   4.120  17.073  0.00  0.00    +0.000 A 
BRANCH  29  32
ATOM     32  N   UNL     1       6.713   4.224  13.800  0.00  0.00    +0.000 N 
ATOM     33  C   UNL     1       7.564   5.027  13.067  0.00  0.00    +0.000 A 
ATOM     34  C   UNL     1       7.373   4.721  11.742  0.00  0.00    +0.000 A 
ATOM     35  C   UNL     1       6.407   3.708  11.753  0.00  0.00    +0.000 A 
ATOM     36  N   UNL     1       6.012   3.389  12.987  0.00  0.00    +0.000 NA
ENDBRANCH  29  32
ENDBRANCH  25  26
ENDBRANCH   3  25
TORSDOF 8
ENDMDL
MODEL 9
REMARK VINA RESULT:      -8.3      1.524      2.178
REMARK  Name = 
REMARK  11 active torsions:
REMARK  status: ('A' for Active; 'I' for Inactive)
REMARK    1  A    between atoms: C_1  and  C_2
REMARK    2  A    between atoms: C_2  and  C_3
REMARK    3  A    between atoms: C_2  and  C_4
REMARK    4  A    between atoms: C_2  and  O_5
REMARK    5  A    between atoms: O_5  and  C_6
REMARK    6  A    between atoms: N_8  and  C_9
REMARK    7  A    between atoms: C_9  and  C_10
REMARK    8  A    between atoms: C_13  and  C_14
REMARK    9  A    between atoms: N_16  and  C_17
REMARK   10  A    between atoms: C_17  and  C_18
REMARK   11  A    between atoms: C_21  and  N_22
REMARK                            x       y       z     vdW  Elec       q    Type
REMARK                         _______ _______ _______ _____ _____    ______ ____
ROOT
ATOM      1  C   UNL     1       2.665   6.386  19.839  0.00  0.00    +0.000 A 
ATOM      2  N   UNL     1       3.967   6.359  19.515  0.00  0.00    +0.000 NA
ATOM      3  N   UNL     1       4.301   5.051  19.607  0.00  0.00    +0.000 N 
ATOM      4  C   UNL     1       3.244   4.232  19.929  0.00  0.00    +0.000 A 
ATOM      5  C   UNL     1       3.139   2.841  20.084  0.00  0.00    +0.000 A 
ATOM      6  C   UNL     1       1.890   2.319  20.433  0.00  0.00    +0.000 A 
ATOM      7  C   UNL     1       0.791   3.152  20.628  0.00  0.00    +0.000 A 
ATOM      8  C   UNL     1       0.909   4.537  20.471  0.00  0.00    +0.000 A 
ATOM      9  C   UNL     1       2.156   5.087  20.107  0.00  0.00    +0.000 A 
ENDROOT
BRANCH   1  13
ATOM     10  C   UNL     1       0.897   9.462  19.443  0.00  0.00    +0.000 A 
ATOM     11  N   UNL     1       0.535   9.247  20.714  0.00  0.00    +0.000 NA
ATOM     12  O   UNL     1       1.184   8.053  21.032  0.00  0.00    +0.000 OA
ATOM     13  C   UNL     1       1.896   7.672  19.920  0.00  0.00    +0.000 A 
ATOM     14  N   UNL     1       1.779   8.545  18.936  0.00  0.00    +0.000 NA
BRANCH  10  15
ATOM     15  C   UNL     1       0.277  10.523  18.612  0.00  0.00    +0.000 C 
BRANCH  15  18
ATOM     16  C   UNL     1      -0.507  12.796  18.778  0.00  0.00    +0.000 C 
ATOM     17  O   UNL     1      -1.273  12.627  17.841  0.00  0.00    +0.000 OA
ATOM     18  N   UNL     1       0.330  11.824  19.236  0.00  0.00    +0.000 N 
ATOM     19  H   UNL     1       0.918  12.018  20.034  0.00  0.00    +0.000 HD
BRANCH  16  20
ATOM     20  O   UNL     1      -0.376  13.931  19.506  0.00  0.00    +0.000 OA
BRANCH  20  22
ATOM     21  C   UNL     1      -0.369  13.958  21.974  0.00  0.00    +0.000 C 
ATOM     22  C   UNL     1      -1.202  14.102  20.692  0.00  0.00    +0.000 C 
ATOM     23  C   UNL     1      -2.405  13.149  20.674  0.00  0.00    +0.000 C 
ATOM     24  C   UNL     1      -1.736  15.543  20.637  0.00  0.00    +0.000 C 
ENDBRANCH  20  22
ENDBRANCH  16  20
ENDBRANCH  15  18
ENDBRANCH  10  15
ENDBRANCH   1  13
BRANCH   3  25
ATOM     25  C   UNL     1       5.694   4.656  19.412  0.00  0.00    +0.000 C 
BRANCH  25  26
ATOM     26  C   UNL     1       6.010   4.454  17.951  0.00  0.00    +0.000 A 
ATOM     27  C   UNL     1       7.251   4.856  17.439  0.00  0.00    +0.000 A 
ATOM     28  C   UNL     1       7.515   4.789  16.069  0.00  0.00    +0.000 A 
ATOM     29  C   UNL     1       6.538   4.310  15.190  0.00  0.00    +0.000 A 
ATOM     30  C   UNL     1       5.327   3.826  15.706  0.00  0.00    +0.000 A 
ATOM     31  C   UNL     1       5.066   3.897  17.077  0.00  0.00    +0.000 A 
BRANCH  29  32
ATOM     32  N   UNL     1       6.735   4.361  13.781  0.00  0.00    +0.000 N 
ATOM     33  C   UNL     1       6.233   3.501  12.825  0.00  0.00    +0.000 A 
ATOM     34  C   UNL     1       6.768   3.877  11.617  0.00  0.00    +0.000 A 
ATOM     35  C   UNL     1       7.568   4.985  11.920  0.00  0.00    +0.000 A 
ATOM     36  N   UNL     1       7.545   5.296  13.217  0.00  0.00    +0.000 NA
ENDBRANCH  29  32
ENDBRANCH  25  26
ENDBRANCH   3  25
TORSDOF 8
ENDMDL
