MODEL 1
REMARK VINA RESULT:      -6.6      0.000      0.000
REMARK  Name = 
REMARK  1 active torsions:
REMARK  status: ('A' for Active; 'I' for Inactive)
REMARK    1  A    between atoms: C_5  and  C_6
REMARK                            x       y       z     vdW  Elec       q    Type
REMARK                         _______ _______ _______ _____ _____    ______ ____
ROOT
ATOM      1  O   UNL     1       4.270   2.157  20.632  0.00  0.00    +0.000 OA
ATOM      2  C   UNL     1       4.427   2.646  19.512  0.00  0.00    +0.000 C 
ATOM      3  C   UNL     1       3.634   2.179  18.311  0.00  0.00    +0.000 C 
ATOM      4  S   UNL     1       2.275   3.278  17.893  0.00  0.00    +0.000 S 
ATOM      5  C   UNL     1       3.141   4.821  17.458  0.00  0.00    +0.000 C 
ATOM      6  C   UNL     1       4.648   4.790  17.328  0.00  0.00    +0.000 A 
ATOM      7  S   UNL     1       5.351   5.636  15.992  0.00  0.00    +0.000 S 
ATOM      8  C   UNL     1       6.922   5.495  16.633  0.00  0.00    +0.000 A 
ATOM      9  C   UNL     1       6.933   4.787  17.810  0.00  0.00    +0.000 A 
ATOM     10  C   UNL     1       5.635   4.315  18.177  0.00  0.00    +0.000 A 
ATOM     11  N   UNL     1       5.432   3.550  19.308  0.00  0.00    +0.000 N 
ATOM     12  H   UNL     1       6.123   3.592  20.050  0.00  0.00    +0.000 HD
ENDROOT
BRANCH   5  13
ATOM     13  C   UNL     1       2.686   5.948  18.373  0.00  0.00    +0.000 A 
ATOM     14  C   UNL     1       2.531   7.331  18.004  0.00  0.00    +0.000 A 
ATOM     15  C   UNL     1       2.104   8.121  19.050  0.00  0.00    +0.000 A 
ATOM     16  S   UNL     1       1.873   7.220  20.479  0.00  0.00    +0.000 S 
ATOM     17  C   UNL     1       2.350   5.771  19.706  0.00  0.00    +0.000 A 
ENDBRANCH   5  13
TORSDOF 1
ENDMDL
MODEL 2
REMARK VINA RESULT:      -6.4      0.535      1.020
REMARK  Name = 
REMARK  1 active torsions:
REMARK  status: ('A' for Active; 'I' for Inactive)
REMARK    1  A    between atoms: C_5  and  C_6
REMARK                            x       y       z     vdW  Elec       q    Type
REMARK                         _______ _______ _______ _____ _____    ______ ____
ROOT
ATOM      1  O   UNL     1       4.253   2.091  20.598  0.00  0.00    +0.000 OA
ATOM      2  C   UNL     1       4.416   2.627  19.501  0.00  0.00    +0.000 C 
ATOM      3  C   UNL     1       3.647   2.196  18.271  0.00  0.00    +0.000 C 
ATOM      4  S   UNL     1       2.275   3.289  17.879  0.00  0.00    +0.000 S 
ATOM      5  C   UNL     1       3.122   4.863  17.519  0.00  0.00    +0.000 C 
ATOM      6  C   UNL     1       4.631   4.861  17.408  0.00  0.00    +0.000 A 
ATOM      7  S   UNL     1       5.337   5.771  16.117  0.00  0.00    +0.000 S 
ATOM      8  C   UNL     1       6.902   5.629  16.773  0.00  0.00    +0.000 A 
ATOM      9  C   UNL     1       6.909   4.874  17.921  0.00  0.00    +0.000 A 
ATOM     10  C   UNL     1       5.614   4.367  18.250  0.00  0.00    +0.000 A 
ATOM     11  N   UNL     1       5.409   3.554  19.347  0.00  0.00    +0.000 N 
ATOM     12  H   UNL     1       6.089   3.576  20.099  0.00  0.00    +0.000 HD
ENDROOT
BRANCH   5  13
ATOM     13  C   UNL     1       2.637   5.944  18.472  0.00  0.00    +0.000 A 
ATOM     14  C   UNL     1       2.296   5.764  19.859  0.00  0.00    +0.000 A 
ATOM     15  C   UNL     1       1.886   6.930  20.468  0.00  0.00    +0.000 A 
ATOM     16  S   UNL     1       1.912   8.254  19.394  0.00  0.00    +0.000 S 
ATOM     17  C   UNL     1       2.466   7.272  18.110  0.00  0.00    +0.000 A 
ENDBRANCH   5  13
TORSDOF 1
ENDMDL
MODEL 3
REMARK VINA RESULT:      -6.2      2.394      3.864
REMARK  Name = 
REMARK  1 active torsions:
REMARK  status: ('A' for Active; 'I' for Inactive)
REMARK    1  A    between atoms: C_5  and  C_6
REMARK                            x       y       z     vdW  Elec       q    Type
REMARK                         _______ _______ _______ _____ _____    ______ ____
ROOT
ATOM      1  O   UNL     1       4.782   4.271  15.793  0.00  0.00    +0.000 OA
ATOM      2  C   UNL     1       4.355   4.055  16.928  0.00  0.00    +0.000 C 
ATOM      3  C   UNL     1       5.267   3.995  18.134  0.00  0.00    +0.000 C 
ATOM      4  S   UNL     1       5.243   5.503  19.111  0.00  0.00    +0.000 S 
ATOM      5  C   UNL     1       3.514   5.568  19.686  0.00  0.00    +0.000 C 
ATOM      6  C   UNL     1       2.629   4.365  19.447  0.00  0.00    +0.000 A 
ATOM      7  S   UNL     1       1.598   3.863  20.742  0.00  0.00    +0.000 S 
ATOM      8  C   UNL     1       0.722   2.806  19.734  0.00  0.00    +0.000 A 
ATOM      9  C   UNL     1       1.219   2.791  18.454  0.00  0.00    +0.000 A 
ATOM     10  C   UNL     1       2.364   3.632  18.301  0.00  0.00    +0.000 A 
ATOM     11  N   UNL     1       3.037   3.732  17.100  0.00  0.00    +0.000 N 
ATOM     12  H   UNL     1       2.548   3.478  16.249  0.00  0.00    +0.000 HD
ENDROOT
BRANCH   5  13
ATOM     13  C   UNL     1       2.854   6.849  19.202  0.00  0.00    +0.000 A 
ATOM     14  C   UNL     1       3.024   7.456  17.907  0.00  0.00    +0.000 A 
ATOM     15  C   UNL     1       2.296   8.617  17.757  0.00  0.00    +0.000 A 
ATOM     16  S   UNL     1       1.392   8.988  19.155  0.00  0.00    +0.000 S 
ATOM     17  C   UNL     1       1.977   7.603  19.968  0.00  0.00    +0.000 A 
ENDBRANCH   5  13
TORSDOF 1
ENDMDL
MODEL 4
REMARK VINA RESULT:      -6.1      2.440      3.951
REMARK  Name = 
REMARK  1 active torsions:
REMARK  status: ('A' for Active; 'I' for Inactive)
REMARK    1  A    between atoms: C_5  and  C_6
REMARK                            x       y       z     vdW  Elec       q    Type
REMARK                         _______ _______ _______ _____ _____    ______ ____
ROOT
ATOM      1  O   UNL     1       4.775   4.303  15.840  0.00  0.00    +0.000 OA
ATOM      2  C   UNL     1       4.354   4.050  16.970  0.00  0.00    +0.000 C 
ATOM      3  C   UNL     1       5.270   3.969  18.172  0.00  0.00    +0.000 C 
ATOM      4  S   UNL     1       5.231   5.450  19.189  0.00  0.00    +0.000 S 
ATOM      5  C   UNL     1       3.504   5.479  19.770  0.00  0.00    +0.000 C 
ATOM      6  C   UNL     1       2.632   4.272  19.501  0.00  0.00    +0.000 A 
ATOM      7  S   UNL     1       1.611   3.724  20.785  0.00  0.00    +0.000 S 
ATOM      8  C   UNL     1       0.745   2.683  19.752  0.00  0.00    +0.000 A 
ATOM      9  C   UNL     1       1.238   2.709  18.470  0.00  0.00    +0.000 A 
ATOM     10  C   UNL     1       2.372   3.567  18.337  0.00  0.00    +0.000 A 
ATOM     11  N   UNL     1       3.041   3.708  17.137  0.00  0.00    +0.000 N 
ATOM     12  H   UNL     1       2.552   3.471  16.281  0.00  0.00    +0.000 HD
ENDROOT
BRANCH   5  13
ATOM     13  C   UNL     1       2.826   6.764  19.322  0.00  0.00    +0.000 A 
ATOM     14  C   UNL     1       1.956   7.589  20.120  0.00  0.00    +0.000 A 
ATOM     15  C   UNL     1       1.490   8.693  19.440  0.00  0.00    +0.000 A 
ATOM     16  S   UNL     1       2.095   8.765  17.847  0.00  0.00    +0.000 S 
ATOM     17  C   UNL     1       2.976   7.316  18.059  0.00  0.00    +0.000 A 
ENDBRANCH   5  13
TORSDOF 1
ENDMDL
MODEL 5
REMARK VINA RESULT:      -5.8      2.360      3.755
REMARK  Name = 
REMARK  1 active torsions:
REMARK  status: ('A' for Active; 'I' for Inactive)
REMARK    1  A    between atoms: C_5  and  C_6
REMARK                            x       y       z     vdW  Elec       q    Type
REMARK                         _______ _______ _______ _____ _____    ______ ____
ROOT
ATOM      1  O   UNL     1       5.645   4.890  15.246  0.00  0.00    +0.000 OA
ATOM      2  C   UNL     1       5.310   4.415  16.332  0.00  0.00    +0.000 C 
ATOM      3  C   UNL     1       6.261   4.341  17.507  0.00  0.00    +0.000 C 
ATOM      4  S   UNL     1       5.985   5.639  18.720  0.00  0.00    +0.000 S 
ATOM      5  C   UNL     1       4.298   5.272  19.307  0.00  0.00    +0.000 C 
ATOM      6  C   UNL     1       3.652   3.973  18.877  0.00  0.00    +0.000 A 
ATOM      7  S   UNL     1       2.785   3.078  20.077  0.00  0.00    +0.000 S 
ATOM      8  C   UNL     1       2.091   2.046  18.914  0.00  0.00    +0.000 A 
ATOM      9  C   UNL     1       2.534   2.335  17.645  0.00  0.00    +0.000 A 
ATOM     10  C   UNL     1       3.490   3.396  17.627  0.00  0.00    +0.000 A 
ATOM     11  N   UNL     1       4.086   3.818  16.456  0.00  0.00    +0.000 N 
ATOM     12  H   UNL     1       3.623   3.614  15.577  0.00  0.00    +0.000 HD
ENDROOT
BRANCH   5  13
ATOM     13  C   UNL     1       3.387   6.460  19.044  0.00  0.00    +0.000 A 
ATOM     14  C   UNL     1       2.379   6.971  19.936  0.00  0.00    +0.000 A 
ATOM     15  C   UNL     1       1.708   8.060  19.421  0.00  0.00    +0.000 A 
ATOM     16  S   UNL     1       2.281   8.490  17.874  0.00  0.00    +0.000 S 
ATOM     17  C   UNL     1       3.422   7.218  17.883  0.00  0.00    +0.000 A 
ENDBRANCH   5  13
TORSDOF 1
ENDMDL
MODEL 6
REMARK VINA RESULT:      -5.7      2.311      3.652
REMARK  Name = 
REMARK  1 active torsions:
REMARK  status: ('A' for Active; 'I' for Inactive)
REMARK    1  A    between atoms: C_5  and  C_6
REMARK                            x       y       z     vdW  Elec       q    Type
REMARK                         _______ _______ _______ _____ _____    ______ ____
ROOT
ATOM      1  O   UNL     1       5.755   4.847  15.078  0.00  0.00    +0.000 OA
ATOM      2  C   UNL     1       5.417   4.390  16.171  0.00  0.00    +0.000 C 
ATOM      3  C   UNL     1       6.369   4.324  17.346  0.00  0.00    +0.000 C 
ATOM      4  S   UNL     1       6.107   5.641  18.540  0.00  0.00    +0.000 S 
ATOM      5  C   UNL     1       4.418   5.298  19.135  0.00  0.00    +0.000 C 
ATOM      6  C   UNL     1       3.759   3.999  18.724  0.00  0.00    +0.000 A 
ATOM      7  S   UNL     1       2.886   3.130  19.938  0.00  0.00    +0.000 S 
ATOM      8  C   UNL     1       2.181   2.088  18.790  0.00  0.00    +0.000 A 
ATOM      9  C   UNL     1       2.624   2.354  17.517  0.00  0.00    +0.000 A 
ATOM     10  C   UNL     1       3.590   3.406  17.483  0.00  0.00    +0.000 A 
ATOM     11  N   UNL     1       4.188   3.806  16.305  0.00  0.00    +0.000 N 
ATOM     12  H   UNL     1       3.722   3.594  15.429  0.00  0.00    +0.000 HD
ENDROOT
BRANCH   5  13
ATOM     13  C   UNL     1       3.517   6.490  18.856  0.00  0.00    +0.000 A 
ATOM     14  C   UNL     1       3.539   7.315  17.675  0.00  0.00    +0.000 A 
ATOM     15  C   UNL     1       2.602   8.325  17.708  0.00  0.00    +0.000 A 
ATOM     16  S   UNL     1       1.680   8.295  19.142  0.00  0.00    +0.000 S 
ATOM     17  C   UNL     1       2.534   6.935  19.727  0.00  0.00    +0.000 A 
ENDBRANCH   5  13
TORSDOF 1
ENDMDL
MODEL 7
REMARK VINA RESULT:      -5.6      1.180      1.221
REMARK  Name = 
REMARK  1 active torsions:
REMARK  status: ('A' for Active; 'I' for Inactive)
REMARK    1  A    between atoms: C_5  and  C_6
REMARK                            x       y       z     vdW  Elec       q    Type
REMARK                         _______ _______ _______ _____ _____    ______ ____
ROOT
ATOM      1  O   UNL     1       3.014   2.891  20.794  0.00  0.00    +0.000 OA
ATOM      2  C   UNL     1       3.520   3.434  19.810  0.00  0.00    +0.000 C 
ATOM      3  C   UNL     1       3.061   3.133  18.400  0.00  0.00    +0.000 C 
ATOM      4  S   UNL     1       1.971   4.395  17.730  0.00  0.00    +0.000 S 
ATOM      5  C   UNL     1       3.050   5.864  17.694  0.00  0.00    +0.000 C 
ATOM      6  C   UNL     1       4.525   5.681  17.979  0.00  0.00    +0.000 A 
ATOM      7  S   UNL     1       5.643   6.534  16.971  0.00  0.00    +0.000 S 
ATOM      8  C   UNL     1       6.953   6.185  18.002  0.00  0.00    +0.000 A 
ATOM      9  C   UNL     1       6.573   5.403  19.065  0.00  0.00    +0.000 A 
ATOM     10  C   UNL     1       5.190   5.049  19.017  0.00  0.00    +0.000 A 
ATOM     11  N   UNL     1       4.614   4.237  19.974  0.00  0.00    +0.000 N 
ATOM     12  H   UNL     1       5.069   4.156  20.877  0.00  0.00    +0.000 HD
ENDROOT
BRANCH   5  13
ATOM     13  C   UNL     1       2.452   6.969  18.549  0.00  0.00    +0.000 A 
ATOM     14  C   UNL     1       2.074   8.283  18.097  0.00  0.00    +0.000 A 
ATOM     15  C   UNL     1       1.560   9.071  19.105  0.00  0.00    +0.000 A 
ATOM     16  S   UNL     1       1.512   8.248  20.597  0.00  0.00    +0.000 S 
ATOM     17  C   UNL     1       2.186   6.839  19.904  0.00  0.00    +0.000 A 
ENDBRANCH   5  13
TORSDOF 1
ENDMDL
MODEL 8
REMARK VINA RESULT:      -5.3      2.319      4.708
REMARK  Name = 
REMARK  1 active torsions:
REMARK  status: ('A' for Active; 'I' for Inactive)
REMARK    1  A    between atoms: C_5  and  C_6
REMARK                            x       y       z     vdW  Elec       q    Type
REMARK                         _______ _______ _______ _____ _____    ______ ____
ROOT
ATOM      1  O   UNL     1       7.175   5.348  19.898  0.00  0.00    +0.000 OA
ATOM      2  C   UNL     1       6.053   5.092  19.458  0.00  0.00    +0.000 C 
ATOM      3  C   UNL     1       4.991   6.157  19.289  0.00  0.00    +0.000 C 
ATOM      4  S   UNL     1       4.823   6.720  17.590  0.00  0.00    +0.000 S 
ATOM      5  C   UNL     1       4.277   5.208  16.731  0.00  0.00    +0.000 C 
ATOM      6  C   UNL     1       3.899   4.003  17.563  0.00  0.00    +0.000 A 
ATOM      7  S   UNL     1       2.480   3.127  17.100  0.00  0.00    +0.000 S 
ATOM      8  C   UNL     1       2.850   1.830  18.140  0.00  0.00    +0.000 A 
ATOM      9  C   UNL     1       3.997   2.063  18.860  0.00  0.00    +0.000 A 
ATOM     10  C   UNL     1       4.565   3.345  18.585  0.00  0.00    +0.000 A 
ATOM     11  N   UNL     1       5.701   3.790  19.231  0.00  0.00    +0.000 N 
ATOM     12  H   UNL     1       6.319   3.104  19.650  0.00  0.00    +0.000 HD
ENDROOT
BRANCH   5  13
ATOM     13  C   UNL     1       5.273   4.841  15.642  0.00  0.00    +0.000 A 
ATOM     14  C   UNL     1       6.681   5.147  15.640  0.00  0.00    +0.000 A 
ATOM     15  C   UNL     1       7.329   4.686  14.514  0.00  0.00    +0.000 A 
ATOM     16  S   UNL     1       6.268   3.875  13.453  0.00  0.00    +0.000 S 
ATOM     17  C   UNL     1       4.937   4.143  14.492  0.00  0.00    +0.000 A 
ENDBRANCH   5  13
TORSDOF 1
ENDMDL
MODEL 9
REMARK VINA RESULT:      -5.2      2.314      4.700
REMARK  Name = 
REMARK  1 active torsions:
REMARK  status: ('A' for Active; 'I' for Inactive)
REMARK    1  A    between atoms: C_5  and  C_6
REMARK                            x       y       z     vdW  Elec       q    Type
REMARK                         _______ _______ _______ _____ _____    ______ ____
ROOT
ATOM      1  O   UNL     1       7.169   5.346  19.884  0.00  0.00    +0.000 OA
ATOM      2  C   UNL     1       6.045   5.084  19.453  0.00  0.00    +0.000 C 
ATOM      3  C   UNL     1       4.975   6.143  19.297  0.00  0.00    +0.000 C 
ATOM      4  S   UNL     1       4.788   6.711  17.602  0.00  0.00    +0.000 S 
ATOM      5  C   UNL     1       4.245   5.198  16.742  0.00  0.00    +0.000 C 
ATOM      6  C   UNL     1       3.882   3.987  17.572  0.00  0.00    +0.000 A 
ATOM      7  S   UNL     1       2.465   3.104  17.118  0.00  0.00    +0.000 S 
ATOM      8  C   UNL     1       2.853   1.806  18.150  0.00  0.00    +0.000 A 
ATOM      9  C   UNL     1       4.005   2.044  18.861  0.00  0.00    +0.000 A 
ATOM     10  C   UNL     1       4.561   3.330  18.586  0.00  0.00    +0.000 A 
ATOM     11  N   UNL     1       5.700   3.781  19.224  0.00  0.00    +0.000 N 
ATOM     12  H   UNL     1       6.326   3.098  19.635  0.00  0.00    +0.000 HD
ENDROOT
BRANCH   5  13
ATOM     13  C   UNL     1       5.234   4.842  15.643  0.00  0.00    +0.000 A 
ATOM     14  C   UNL     1       4.982   3.974  14.521  0.00  0.00    +0.000 A 
ATOM     15  C   UNL     1       6.074   3.840  13.690  0.00  0.00    +0.000 A 
ATOM     16  S   UNL     1       7.406   4.756  14.233  0.00  0.00    +0.000 S 
ATOM     17  C   UNL     1       6.531   5.330  15.584  0.00  0.00    +0.000 A 
ENDBRANCH   5  13
TORSDOF 1
ENDMDL
