MODEL 1
REMARK VINA RESULT:      -8.1      0.000      0.000
REMARK  Name = 
REMARK  3 active torsions:
REMARK  status: ('A' for Active; 'I' for Inactive)
REMARK    1  A    between atoms: C_8  and  C_9
REMARK    2  A    between atoms: N_12  and  C_13
REMARK    3  A    between atoms: C_13  and  C_14
REMARK                            x       y       z     vdW  Elec       q    Type
REMARK                         _______ _______ _______ _____ _____    ______ ____
ROOT
ATOM      1  C   UNL     1       2.038   5.545  19.155  0.00  0.00    +0.000 C 
ATOM      2  C   UNL     1       3.142   5.032  20.100  0.00  0.00    +0.000 C 
ATOM      3  C   UNL     1       4.505   5.053  19.409  0.00  0.00    +0.000 C 
ATOM      4  N   UNL     1       4.526   4.115  18.279  0.00  0.00    +0.000 NA
ATOM      5  C   UNL     1       3.456   4.399  17.309  0.00  0.00    +0.000 C 
ATOM      6  C   UNL     1       2.062   4.691  17.887  0.00  0.00    +0.000 C 
ENDROOT
BRANCH   1  14
ATOM      7 CL   UNL     1       0.009   9.457  23.289  0.00  0.00    +0.000 Cl
ATOM      8  C   UNL     1       0.584   9.367  21.668  0.00  0.00    +0.000 A 
ATOM      9  C   UNL     1       0.317  10.408  20.788  0.00  0.00    +0.000 A 
ATOM     10  C   UNL     1       0.822  10.379  19.487  0.00  0.00    +0.000 A 
ATOM     11  C   UNL     1       1.534   9.240  19.090  0.00  0.00    +0.000 A 
ATOM     12  N   UNL     1       2.165   8.972  17.904  0.00  0.00    +0.000 N 
ATOM     13  C   UNL     1       2.581   7.674  17.882  0.00  0.00    +0.000 A 
ATOM     14  C   UNL     1       2.158   7.058  19.055  0.00  0.00    +0.000 A 
ATOM     15  C   UNL     1       1.697   8.116  19.910  0.00  0.00    +0.000 A 
ATOM     16  C   UNL     1       1.283   8.229  21.252  0.00  0.00    +0.000 A 
ATOM     17  H   UNL     1       2.236   9.618  17.130  0.00  0.00    +0.000 HD
ENDBRANCH   1  14
BRANCH   4  18
ATOM     18  C   UNL     1       5.827   4.179  17.568  0.00  0.00    +0.000 C 
BRANCH  18  19
ATOM     19  C   UNL     1       6.595   5.468  17.758  0.00  0.00    +0.000 A 
ATOM     20  C   UNL     1       6.310   6.595  16.974  0.00  0.00    +0.000 A 
ATOM     21  C   UNL     1       7.016   7.787  17.161  0.00  0.00    +0.000 A 
ATOM     22  C   UNL     1       8.007   7.865  18.138  0.00  0.00    +0.000 A 
ATOM     23  C   UNL     1       8.301   6.751  18.924  0.00  0.00    +0.000 A 
ATOM     24  C   UNL     1       7.600   5.559  18.737  0.00  0.00    +0.000 A 
ENDBRANCH  18  19
ENDBRANCH   4  18
TORSDOF 3
ENDMDL
MODEL 2
REMARK VINA RESULT:      -8.1      0.051      1.009
REMARK  Name = 
REMARK  3 active torsions:
REMARK  status: ('A' for Active; 'I' for Inactive)
REMARK    1  A    between atoms: C_8  and  C_9
REMARK    2  A    between atoms: N_12  and  C_13
REMARK    3  A    between atoms: C_13  and  C_14
REMARK                            x       y       z     vdW  Elec       q    Type
REMARK                         _______ _______ _______ _____ _____    ______ ____
ROOT
ATOM      1  C   UNL     1       2.051   5.530  19.130  0.00  0.00    +0.000 C 
ATOM      2  C   UNL     1       3.131   5.016  20.101  0.00  0.00    +0.000 C 
ATOM      3  C   UNL     1       4.511   5.038  19.445  0.00  0.00    +0.000 C 
ATOM      4  N   UNL     1       4.561   4.103  18.313  0.00  0.00    +0.000 NA
ATOM      5  C   UNL     1       3.515   4.389  17.318  0.00  0.00    +0.000 C 
ATOM      6  C   UNL     1       2.108   4.679  17.861  0.00  0.00    +0.000 C 
ENDROOT
BRANCH   1  14
ATOM      7 CL   UNL     1      -0.047   9.431  23.240  0.00  0.00    +0.000 Cl
ATOM      8  C   UNL     1       0.556   9.345  21.628  0.00  0.00    +0.000 A 
ATOM      9  C   UNL     1       0.304  10.389  20.747  0.00  0.00    +0.000 A 
ATOM     10  C   UNL     1       0.831  10.364  19.455  0.00  0.00    +0.000 A 
ATOM     11  C   UNL     1       1.550   9.225  19.067  0.00  0.00    +0.000 A 
ATOM     12  N   UNL     1       2.200   8.961  17.891  0.00  0.00    +0.000 N 
ATOM     13  C   UNL     1       2.617   7.662  17.873  0.00  0.00    +0.000 A 
ATOM     14  C   UNL     1       2.174   7.043  19.036  0.00  0.00    +0.000 A 
ATOM     15  C   UNL     1       1.698   8.099  19.886  0.00  0.00    +0.000 A 
ATOM     16  C   UNL     1       1.261   8.208  21.222  0.00  0.00    +0.000 A 
ATOM     17  H   UNL     1       2.285   9.609  17.121  0.00  0.00    +0.000 HD
ENDBRANCH   1  14
BRANCH   4  18
ATOM     18  C   UNL     1       5.880   4.169  17.636  0.00  0.00    +0.000 C 
BRANCH  18  19
ATOM     19  C   UNL     1       6.618   5.478  17.804  0.00  0.00    +0.000 A 
ATOM     20  C   UNL     1       7.623   5.616  18.771  0.00  0.00    +0.000 A 
ATOM     21  C   UNL     1       8.310   6.825  18.915  0.00  0.00    +0.000 A 
ATOM     22  C   UNL     1       8.002   7.904  18.087  0.00  0.00    +0.000 A 
ATOM     23  C   UNL     1       7.004   7.781  17.122  0.00  0.00    +0.000 A 
ATOM     24  C   UNL     1       6.315   6.575  16.979  0.00  0.00    +0.000 A 
ENDBRANCH  18  19
ENDBRANCH   4  18
TORSDOF 3
ENDMDL
MODEL 3
REMARK VINA RESULT:      -7.3      3.095      7.485
REMARK  Name = 
REMARK  3 active torsions:
REMARK  status: ('A' for Active; 'I' for Inactive)
REMARK    1  A    between atoms: C_8  and  C_9
REMARK    2  A    between atoms: N_12  and  C_13
REMARK    3  A    between atoms: C_13  and  C_14
REMARK                            x       y       z     vdW  Elec       q    Type
REMARK                         _______ _______ _______ _____ _____    ______ ____
ROOT
ATOM      1  C   UNL     1       2.663   5.458  18.342  0.00  0.00    +0.000 C 
ATOM      2  C   UNL     1       2.124   6.867  18.027  0.00  0.00    +0.000 C 
ATOM      3  C   UNL     1       2.261   7.787  19.238  0.00  0.00    +0.000 C 
ATOM      4  N   UNL     1       1.420   7.314  20.346  0.00  0.00    +0.000 NA
ATOM      5  C   UNL     1       1.734   5.924  20.719  0.00  0.00    +0.000 C 
ATOM      6  C   UNL     1       1.916   4.926  19.565  0.00  0.00    +0.000 C 
ENDROOT
BRANCH   1  14
ATOM      7 CL   UNL     1       6.157   4.815  13.454  0.00  0.00    +0.000 Cl
ATOM      8  C   UNL     1       6.216   4.836  15.176  0.00  0.00    +0.000 A 
ATOM      9  C   UNL     1       7.309   4.283  15.830  0.00  0.00    +0.000 A 
ATOM     10  C   UNL     1       7.402   4.339  17.222  0.00  0.00    +0.000 A 
ATOM     11  C   UNL     1       6.327   4.904  17.923  0.00  0.00    +0.000 A 
ATOM     12  N   UNL     1       6.178   5.120  19.267  0.00  0.00    +0.000 N 
ATOM     13  C   UNL     1       4.904   5.528  19.533  0.00  0.00    +0.000 A 
ATOM     14  C   UNL     1       4.182   5.516  18.345  0.00  0.00    +0.000 A 
ATOM     15  C   UNL     1       5.152   5.340  17.299  0.00  0.00    +0.000 A 
ATOM     16  C   UNL     1       5.144   5.381  15.890  0.00  0.00    +0.000 A 
ATOM     17  H   UNL     1       6.883   4.928  19.964  0.00  0.00    +0.000 HD
ENDBRANCH   1  14
BRANCH   4  18
ATOM     18  C   UNL     1       1.598   8.169  21.544  0.00  0.00    +0.000 C 
BRANCH  18  19
ATOM     19  C   UNL     1       0.573   9.271  21.700  0.00  0.00    +0.000 A 
ATOM     20  C   UNL     1      -0.007   9.540  22.947  0.00  0.00    +0.000 A 
ATOM     21  C   UNL     1      -0.946  10.566  23.087  0.00  0.00    +0.000 A 
ATOM     22  C   UNL     1      -1.307  11.336  21.982  0.00  0.00    +0.000 A 
ATOM     23  C   UNL     1      -0.739  11.078  20.736  0.00  0.00    +0.000 A 
ATOM     24  C   UNL     1       0.196  10.052  20.593  0.00  0.00    +0.000 A 
ENDBRANCH  18  19
ENDBRANCH   4  18
TORSDOF 3
ENDMDL
MODEL 4
REMARK VINA RESULT:      -7.2      3.092      7.428
REMARK  Name = 
REMARK  3 active torsions:
REMARK  status: ('A' for Active; 'I' for Inactive)
REMARK    1  A    between atoms: C_8  and  C_9
REMARK    2  A    between atoms: N_12  and  C_13
REMARK    3  A    between atoms: C_13  and  C_14
REMARK                            x       y       z     vdW  Elec       q    Type
REMARK                         _______ _______ _______ _____ _____    ______ ____
ROOT
ATOM      1  C   UNL     1       2.683   5.460  18.326  0.00  0.00    +0.000 C 
ATOM      2  C   UNL     1       2.151   6.874  18.023  0.00  0.00    +0.000 C 
ATOM      3  C   UNL     1       2.275   7.778  19.248  0.00  0.00    +0.000 C 
ATOM      4  N   UNL     1       1.421   7.292  20.340  0.00  0.00    +0.000 NA
ATOM      5  C   UNL     1       1.729   5.898  20.698  0.00  0.00    +0.000 C 
ATOM      6  C   UNL     1       1.923   4.914  19.534  0.00  0.00    +0.000 C 
ENDROOT
BRANCH   1  14
ATOM      7 CL   UNL     1       6.230   4.881  13.468  0.00  0.00    +0.000 Cl
ATOM      8  C   UNL     1       6.270   4.877  15.191  0.00  0.00    +0.000 A 
ATOM      9  C   UNL     1       7.355   4.313  15.849  0.00  0.00    +0.000 A 
ATOM     10  C   UNL     1       7.432   4.350  17.242  0.00  0.00    +0.000 A 
ATOM     11  C   UNL     1       6.351   4.905  17.939  0.00  0.00    +0.000 A 
ATOM     12  N   UNL     1       6.187   5.103  19.285  0.00  0.00    +0.000 N 
ATOM     13  C   UNL     1       4.911   5.509  19.542  0.00  0.00    +0.000 A 
ATOM     14  C   UNL     1       4.203   5.515  18.346  0.00  0.00    +0.000 A 
ATOM     15  C   UNL     1       5.183   5.352  17.309  0.00  0.00    +0.000 A 
ATOM     16  C   UNL     1       5.191   5.414  15.901  0.00  0.00    +0.000 A 
ATOM     17  H   UNL     1       6.885   4.899  19.987  0.00  0.00    +0.000 HD
ENDBRANCH   1  14
BRANCH   4  18
ATOM     18  C   UNL     1       1.588   8.132  21.551  0.00  0.00    +0.000 C 
BRANCH  18  19
ATOM     19  C   UNL     1       0.586   9.257  21.690  0.00  0.00    +0.000 A 
ATOM     20  C   UNL     1       0.225  10.037  20.582  0.00  0.00    +0.000 A 
ATOM     21  C   UNL     1      -0.709  11.069  20.714  0.00  0.00    +0.000 A 
ATOM     22  C   UNL     1      -1.296  11.323  21.953  0.00  0.00    +0.000 A 
ATOM     23  C   UNL     1      -0.945  10.556  23.063  0.00  0.00    +0.000 A 
ATOM     24  C   UNL     1      -0.010   9.528  22.934  0.00  0.00    +0.000 A 
ENDBRANCH  18  19
ENDBRANCH   4  18
TORSDOF 3
ENDMDL
MODEL 5
REMARK VINA RESULT:      -7.2      1.060      1.669
REMARK  Name = 
REMARK  3 active torsions:
REMARK  status: ('A' for Active; 'I' for Inactive)
REMARK    1  A    between atoms: C_8  and  C_9
REMARK    2  A    between atoms: N_12  and  C_13
REMARK    3  A    between atoms: C_13  and  C_14
REMARK                            x       y       z     vdW  Elec       q    Type
REMARK                         _______ _______ _______ _____ _____    ______ ____
ROOT
ATOM      1  C   UNL     1       1.651   5.212  20.229  0.00  0.00    +0.000 C 
ATOM      2  C   UNL     1       2.935   4.601  20.820  0.00  0.00    +0.000 C 
ATOM      3  C   UNL     1       3.970   4.341  19.726  0.00  0.00    +0.000 C 
ATOM      4  N   UNL     1       3.482   3.326  18.782  0.00  0.00    +0.000 NA
ATOM      5  C   UNL     1       2.190   3.706  18.187  0.00  0.00    +0.000 C 
ATOM      6  C   UNL     1       1.129   4.269  19.145  0.00  0.00    +0.000 C 
ENDROOT
BRANCH   1  14
ATOM      7 CL   UNL     1      -0.522   9.922  23.329  0.00  0.00    +0.000 Cl
ATOM      8  C   UNL     1       0.247   9.508  21.844  0.00  0.00    +0.000 A 
ATOM      9  C   UNL     1       0.194  10.395  20.776  0.00  0.00    +0.000 A 
ATOM     10  C   UNL     1       0.858  10.103  19.583  0.00  0.00    +0.000 A 
ATOM     11  C   UNL     1       1.506   8.864  19.486  0.00  0.00    +0.000 A 
ATOM     12  N   UNL     1       2.257   8.349  18.462  0.00  0.00    +0.000 N 
ATOM     13  C   UNL     1       2.550   7.041  18.715  0.00  0.00    +0.000 A 
ATOM     14  C   UNL     1       1.923   6.672  19.899  0.00  0.00    +0.000 A 
ATOM     15  C   UNL     1       1.456   7.893  20.494  0.00  0.00    +0.000 A 
ATOM     16  C   UNL     1       0.885   8.269  21.726  0.00  0.00    +0.000 A 
ATOM     17  H   UNL     1       2.488   8.842  17.611  0.00  0.00    +0.000 HD
ENDBRANCH   1  14
BRANCH   4  18
ATOM     18  C   UNL     1       4.458   3.118  17.684  0.00  0.00    +0.000 C 
BRANCH  18  19
ATOM     19  C   UNL     1       5.333   4.312  17.373  0.00  0.00    +0.000 A 
ATOM     20  C   UNL     1       6.595   4.450  17.967  0.00  0.00    +0.000 A 
ATOM     21  C   UNL     1       7.404   5.551  17.668  0.00  0.00    +0.000 A 
ATOM     22  C   UNL     1       6.960   6.518  16.768  0.00  0.00    +0.000 A 
ATOM     23  C   UNL     1       5.706   6.394  16.173  0.00  0.00    +0.000 A 
ATOM     24  C   UNL     1       4.895   5.298  16.472  0.00  0.00    +0.000 A 
ENDBRANCH  18  19
ENDBRANCH   4  18
TORSDOF 3
ENDMDL
MODEL 6
REMARK VINA RESULT:      -7.1      3.740      5.533
REMARK  Name = 
REMARK  3 active torsions:
REMARK  status: ('A' for Active; 'I' for Inactive)
REMARK    1  A    between atoms: C_8  and  C_9
REMARK    2  A    between atoms: N_12  and  C_13
REMARK    3  A    between atoms: C_13  and  C_14
REMARK                            x       y       z     vdW  Elec       q    Type
REMARK                         _______ _______ _______ _____ _____    ______ ____
ROOT
ATOM      1  C   UNL     1       4.884   6.402  18.965  0.00  0.00    +0.000 C 
ATOM      2  C   UNL     1       4.531   6.791  17.517  0.00  0.00    +0.000 C 
ATOM      3  C   UNL     1       4.581   5.573  16.596  0.00  0.00    +0.000 C 
ATOM      4  N   UNL     1       5.948   5.044  16.510  0.00  0.00    +0.000 NA
ATOM      5  C   UNL     1       6.492   4.707  17.836  0.00  0.00    +0.000 C 
ATOM      6  C   UNL     1       6.258   5.732  18.957  0.00  0.00    +0.000 C 
ENDROOT
BRANCH   1  14
ATOM      7 CL   UNL     1       3.937   0.441  18.674  0.00  0.00    +0.000 Cl
ATOM      8  C   UNL     1       3.153   1.926  19.058  0.00  0.00    +0.000 A 
ATOM      9  C   UNL     1       1.765   1.981  19.083  0.00  0.00    +0.000 A 
ATOM     10  C   UNL     1       1.112   3.160  19.446  0.00  0.00    +0.000 A 
ATOM     11  C   UNL     1       1.903   4.287  19.709  0.00  0.00    +0.000 A 
ATOM     12  N   UNL     1       1.530   5.539  20.120  0.00  0.00    +0.000 N 
ATOM     13  C   UNL     1       2.603   6.380  20.081  0.00  0.00    +0.000 A 
ATOM     14  C   UNL     1       3.690   5.679  19.571  0.00  0.00    +0.000 A 
ATOM     15  C   UNL     1       3.294   4.298  19.554  0.00  0.00    +0.000 A 
ATOM     16  C   UNL     1       3.928   3.064  19.307  0.00  0.00    +0.000 A 
ATOM     17  H   UNL     1       0.583   5.817  20.341  0.00  0.00    +0.000 HD
ENDBRANCH   1  14
BRANCH   4  18
ATOM     18  C   UNL     1       5.988   3.824  15.667  0.00  0.00    +0.000 C 
BRANCH  18  19
ATOM     19  C   UNL     1       6.435   4.049  14.240  0.00  0.00    +0.000 A 
ATOM     20  C   UNL     1       7.380   5.038  13.932  0.00  0.00    +0.000 A 
ATOM     21  C   UNL     1       7.798   5.235  12.612  0.00  0.00    +0.000 A 
ATOM     22  C   UNL     1       7.279   4.440  11.591  0.00  0.00    +0.000 A 
ATOM     23  C   UNL     1       6.338   3.455  11.883  0.00  0.00    +0.000 A 
ATOM     24  C   UNL     1       5.917   3.258  13.199  0.00  0.00    +0.000 A 
ENDBRANCH  18  19
ENDBRANCH   4  18
TORSDOF 3
ENDMDL
MODEL 7
REMARK VINA RESULT:      -7.1      3.731      5.491
REMARK  Name = 
REMARK  3 active torsions:
REMARK  status: ('A' for Active; 'I' for Inactive)
REMARK    1  A    between atoms: C_8  and  C_9
REMARK    2  A    between atoms: N_12  and  C_13
REMARK    3  A    between atoms: C_13  and  C_14
REMARK                            x       y       z     vdW  Elec       q    Type
REMARK                         _______ _______ _______ _____ _____    ______ ____
ROOT
ATOM      1  C   UNL     1       4.831   6.432  18.951  0.00  0.00    +0.000 C 
ATOM      2  C   UNL     1       4.481   6.804  17.497  0.00  0.00    +0.000 C 
ATOM      3  C   UNL     1       4.545   5.577  16.589  0.00  0.00    +0.000 C 
ATOM      4  N   UNL     1       5.918   5.060  16.513  0.00  0.00    +0.000 NA
ATOM      5  C   UNL     1       6.459   4.741  17.845  0.00  0.00    +0.000 C 
ATOM      6  C   UNL     1       6.211   5.775  18.955  0.00  0.00    +0.000 C 
ENDROOT
BRANCH   1  14
ATOM      7 CL   UNL     1       3.937   0.461  18.711  0.00  0.00    +0.000 Cl
ATOM      8  C   UNL     1       3.139   1.943  19.079  0.00  0.00    +0.000 A 
ATOM      9  C   UNL     1       1.751   1.986  19.098  0.00  0.00    +0.000 A 
ATOM     10  C   UNL     1       1.086   3.162  19.447  0.00  0.00    +0.000 A 
ATOM     11  C   UNL     1       1.866   4.299  19.702  0.00  0.00    +0.000 A 
ATOM     12  N   UNL     1       1.480   5.551  20.101  0.00  0.00    +0.000 N 
ATOM     13  C   UNL     1       2.547   6.400  20.058  0.00  0.00    +0.000 A 
ATOM     14  C   UNL     1       3.642   5.705  19.558  0.00  0.00    +0.000 A 
ATOM     15  C   UNL     1       3.258   4.320  19.553  0.00  0.00    +0.000 A 
ATOM     16  C   UNL     1       3.903   3.089  19.320  0.00  0.00    +0.000 A 
ATOM     17  H   UNL     1       0.531   5.822  20.315  0.00  0.00    +0.000 HD
ENDBRANCH   1  14
BRANCH   4  18
ATOM     18  C   UNL     1       5.972   3.832  15.682  0.00  0.00    +0.000 C 
BRANCH  18  19
ATOM     19  C   UNL     1       6.430   4.047  14.257  0.00  0.00    +0.000 A 
ATOM     20  C   UNL     1       5.887   3.292  13.207  0.00  0.00    +0.000 A 
ATOM     21  C   UNL     1       6.307   3.501  11.890  0.00  0.00    +0.000 A 
ATOM     22  C   UNL     1       7.268   4.472  11.611  0.00  0.00    +0.000 A 
ATOM     23  C   UNL     1       7.818   5.228  12.646  0.00  0.00    +0.000 A 
ATOM     24  C   UNL     1       7.402   5.018  13.961  0.00  0.00    +0.000 A 
ENDBRANCH  18  19
ENDBRANCH   4  18
TORSDOF 3
ENDMDL
MODEL 8
REMARK VINA RESULT:      -7.0      1.507      2.049
REMARK  Name = 
REMARK  3 active torsions:
REMARK  status: ('A' for Active; 'I' for Inactive)
REMARK    1  A    between atoms: C_8  and  C_9
REMARK    2  A    between atoms: N_12  and  C_13
REMARK    3  A    between atoms: C_13  and  C_14
REMARK                            x       y       z     vdW  Elec       q    Type
REMARK                         _______ _______ _______ _____ _____    ______ ____
ROOT
ATOM      1  C   UNL     1       1.706   5.467  19.466  0.00  0.00    +0.000 C 
ATOM      2  C   UNL     1       2.697   4.934  20.518  0.00  0.00    +0.000 C 
ATOM      3  C   UNL     1       4.106   4.827  19.937  0.00  0.00    +0.000 C 
ATOM      4  N   UNL     1       4.146   3.831  18.858  0.00  0.00    +0.000 NA
ATOM      5  C   UNL     1       3.174   4.133  17.794  0.00  0.00    +0.000 C 
ATOM      6  C   UNL     1       1.765   4.547  18.246  0.00  0.00    +0.000 C 
ENDROOT
BRANCH   1  14
ATOM      7 CL   UNL     1      -0.140   9.702  23.361  0.00  0.00    +0.000 Cl
ATOM      8  C   UNL     1       0.469   9.495  21.763  0.00  0.00    +0.000 A 
ATOM      9  C   UNL     1       0.303  10.512  20.831  0.00  0.00    +0.000 A 
ATOM     10  C   UNL     1       0.838  10.387  19.548  0.00  0.00    +0.000 A 
ATOM     11  C   UNL     1       1.476   9.181  19.223  0.00  0.00    +0.000 A 
ATOM     12  N   UNL     1       2.116   8.815  18.069  0.00  0.00    +0.000 N 
ATOM     13  C   UNL     1       2.437   7.490  18.118  0.00  0.00    +0.000 A 
ATOM     14  C   UNL     1       1.939   6.961  19.302  0.00  0.00    +0.000 A 
ATOM     15  C   UNL     1       1.534   8.088  20.096  0.00  0.00    +0.000 A 
ATOM     16  C   UNL     1       1.094   8.292  21.419  0.00  0.00    +0.000 A 
ATOM     17  H   UNL     1       2.256   9.417  17.270  0.00  0.00    +0.000 HD
ENDBRANCH   1  14
BRANCH   4  18
ATOM     18  C   UNL     1       5.498   3.770  18.250  0.00  0.00    +0.000 C 
BRANCH  18  19
ATOM     19  C   UNL     1       5.597   4.348  16.855  0.00  0.00    +0.000 A 
ATOM     20  C   UNL     1       5.918   3.531  15.762  0.00  0.00    +0.000 A 
ATOM     21  C   UNL     1       5.998   4.069  14.474  0.00  0.00    +0.000 A 
ATOM     22  C   UNL     1       5.750   5.425  14.268  0.00  0.00    +0.000 A 
ATOM     23  C   UNL     1       5.430   6.248  15.346  0.00  0.00    +0.000 A 
ATOM     24  C   UNL     1       5.353   5.714  16.634  0.00  0.00    +0.000 A 
ENDBRANCH  18  19
ENDBRANCH   4  18
TORSDOF 3
ENDMDL
MODEL 9
REMARK VINA RESULT:      -7.0      1.499      1.997
REMARK  Name = 
REMARK  3 active torsions:
REMARK  status: ('A' for Active; 'I' for Inactive)
REMARK    1  A    between atoms: C_8  and  C_9
REMARK    2  A    between atoms: N_12  and  C_13
REMARK    3  A    between atoms: C_13  and  C_14
REMARK                            x       y       z     vdW  Elec       q    Type
REMARK                         _______ _______ _______ _____ _____    ______ ____
ROOT
ATOM      1  C   UNL     1       1.718   5.504  19.413  0.00  0.00    +0.000 C 
ATOM      2  C   UNL     1       2.702   4.972  20.472  0.00  0.00    +0.000 C 
ATOM      3  C   UNL     1       4.118   4.879  19.905  0.00  0.00    +0.000 C 
ATOM      4  N   UNL     1       4.177   3.890  18.821  0.00  0.00    +0.000 NA
ATOM      5  C   UNL     1       3.214   4.191  17.749  0.00  0.00    +0.000 C 
ATOM      6  C   UNL     1       1.797   4.592  18.189  0.00  0.00    +0.000 C 
ENDROOT
BRANCH   1  14
ATOM      7 CL   UNL     1      -0.137   9.696  23.350  0.00  0.00    +0.000 Cl
ATOM      8  C   UNL     1       0.467   9.506  21.748  0.00  0.00    +0.000 A 
ATOM      9  C   UNL     1       0.291  10.529  20.824  0.00  0.00    +0.000 A 
ATOM     10  C   UNL     1       0.822  10.418  19.538  0.00  0.00    +0.000 A 
ATOM     11  C   UNL     1       1.465   9.219  19.202  0.00  0.00    +0.000 A 
ATOM     12  N   UNL     1       2.103   8.866  18.042  0.00  0.00    +0.000 N 
ATOM     13  C   UNL     1       2.432   7.542  18.078  0.00  0.00    +0.000 A 
ATOM     14  C   UNL     1       1.942   7.001  19.261  0.00  0.00    +0.000 A 
ATOM     15  C   UNL     1       1.533   8.119  20.065  0.00  0.00    +0.000 A 
ATOM     16  C   UNL     1       1.097   8.310  21.392  0.00  0.00    +0.000 A 
ATOM     17  H   UNL     1       2.236   9.475  17.247  0.00  0.00    +0.000 HD
ENDBRANCH   1  14
BRANCH   4  18
ATOM     18  C   UNL     1       5.535   3.843  18.226  0.00  0.00    +0.000 C 
BRANCH  18  19
ATOM     19  C   UNL     1       5.630   4.366  16.810  0.00  0.00    +0.000 A 
ATOM     20  C   UNL     1       5.402   5.720  16.529  0.00  0.00    +0.000 A 
ATOM     21  C   UNL     1       5.500   6.200  15.220  0.00  0.00    +0.000 A 
ATOM     22  C   UNL     1       5.836   5.331  14.182  0.00  0.00    +0.000 A 
ATOM     23  C   UNL     1       6.065   3.982  14.448  0.00  0.00    +0.000 A 
ATOM     24  C   UNL     1       5.963   3.500  15.754  0.00  0.00    +0.000 A 
ENDBRANCH  18  19
ENDBRANCH   4  18
TORSDOF 3
ENDMDL
