MODEL 1
REMARK VINA RESULT:      -7.9      0.000      0.000
REMARK  Name = 
REMARK  6 active torsions:
REMARK  status: ('A' for Active; 'I' for Inactive)
REMARK    1  A    between atoms: S_2  and  N_4
REMARK    2  A    between atoms: S_2  and  C_21
REMARK    3  A    between atoms: N_4  and  C_5
REMARK    4  A    between atoms: C_8  and  S_9
REMARK    5  A    between atoms: S_9  and  N_12
REMARK    6  A    between atoms: N_12  and  C_13
REMARK                            x       y       z     vdW  Elec       q    Type
REMARK                         _______ _______ _______ _____ _____    ______ ____
ROOT
ATOM      1  C   UNL     1       2.706   7.046  18.576  0.00  0.00    +0.000 A 
ATOM      2  C   UNL     1       2.217   7.154  19.876  0.00  0.00    +0.000 A 
ATOM      3  C   UNL     1       1.528   8.307  20.265  0.00  0.00    +0.000 A 
ATOM      4  C   UNL     1       1.350   9.354  19.355  0.00  0.00    +0.000 A 
ATOM      5  C   UNL     1       1.825   9.240  18.045  0.00  0.00    +0.000 A 
ATOM      6  C   UNL     1       2.521   8.088  17.664  0.00  0.00    +0.000 A 
ENDROOT
BRANCH   4   7
ATOM      7  S   UNL     1       0.439  10.803  19.864  0.00  0.00    +0.000 S 
ATOM      8  O   UNL     1      -0.678  10.350  20.662  0.00  0.00    +0.000 OA
ATOM      9  O   UNL     1       1.389  11.763  20.387  0.00  0.00    +0.000 OA
BRANCH   7  10
ATOM     10  N   UNL     1      -0.212  11.403  18.442  0.00  0.00    +0.000 N 
ATOM     11  H   UNL     1       0.303  12.141  17.970  0.00  0.00    +0.000 HD
BRANCH  10  12
ATOM     12  C   UNL     1      -1.543  11.102  18.073  0.00  0.00    +0.000 A 
ATOM     13  C   UNL     1      -1.795  10.018  17.234  0.00  0.00    +0.000 A 
ATOM     14  C   UNL     1      -3.099   9.750  16.817  0.00  0.00    +0.000 A 
ATOM     15  C   UNL     1      -4.151  10.548  17.266  0.00  0.00    +0.000 A 
ATOM     16  C   UNL     1      -3.900  11.611  18.135  0.00  0.00    +0.000 A 
ATOM     17  C   UNL     1      -2.593  11.892  18.537  0.00  0.00    +0.000 A 
ENDBRANCH  10  12
ENDBRANCH   7  10
ENDBRANCH   4   7
BRANCH   1  18
ATOM     18  N   UNL     1       3.404   5.887  18.171  0.00  0.00    +0.000 N 
ATOM     19  H   UNL     1       4.405   5.792  18.330  0.00  0.00    +0.000 HD
BRANCH  18  21
ATOM     20  O   UNL     1       1.255   4.907  17.362  0.00  0.00    +0.000 OA
ATOM     21  S   UNL     1       2.576   4.486  17.768  0.00  0.00    +0.000 S 
ATOM     22  O   UNL     1       3.395   3.668  16.900  0.00  0.00    +0.000 OA
BRANCH  21  23
ATOM     23  C   UNL     1       2.428   3.672  19.341  0.00  0.00    +0.000 A 
ATOM     24  C   UNL     1       3.549   3.068  19.914  0.00  0.00    +0.000 A 
ATOM     25  C   UNL     1       3.421   2.410  21.137  0.00  0.00    +0.000 A 
ATOM     26  C   UNL     1       2.182   2.360  21.779  0.00  0.00    +0.000 A 
ATOM     27  C   UNL     1       1.068   2.981  21.209  0.00  0.00    +0.000 A 
ATOM     28  C   UNL     1       1.191   3.651  19.993  0.00  0.00    +0.000 A 
ENDBRANCH  21  23
ENDBRANCH  18  21
ENDBRANCH   1  18
TORSDOF 6
ENDMDL
MODEL 2
REMARK VINA RESULT:      -7.9      4.407      6.594
REMARK  Name = 
REMARK  6 active torsions:
REMARK  status: ('A' for Active; 'I' for Inactive)
REMARK    1  A    between atoms: S_2  and  N_4
REMARK    2  A    between atoms: S_2  and  C_21
REMARK    3  A    between atoms: N_4  and  C_5
REMARK    4  A    between atoms: C_8  and  S_9
REMARK    5  A    between atoms: S_9  and  N_12
REMARK    6  A    between atoms: N_12  and  C_13
REMARK                            x       y       z     vdW  Elec       q    Type
REMARK                         _______ _______ _______ _____ _____    ______ ____
ROOT
ATOM      1  C   UNL     1       4.691   3.825  17.397  0.00  0.00    +0.000 A 
ATOM      2  C   UNL     1       5.180   4.009  18.689  0.00  0.00    +0.000 A 
ATOM      3  C   UNL     1       4.289   4.233  19.743  0.00  0.00    +0.000 A 
ATOM      4  C   UNL     1       2.914   4.293  19.493  0.00  0.00    +0.000 A 
ATOM      5  C   UNL     1       2.420   4.092  18.201  0.00  0.00    +0.000 A 
ATOM      6  C   UNL     1       3.317   3.876  17.149  0.00  0.00    +0.000 A 
ENDROOT
BRANCH   4   7
ATOM      7  S   UNL     1       1.793   4.548  20.860  0.00  0.00    +0.000 S 
ATOM      8  O   UNL     1       0.453   4.569  20.320  0.00  0.00    +0.000 OA
ATOM      9  O   UNL     1       2.160   3.622  21.913  0.00  0.00    +0.000 OA
BRANCH   7  10
ATOM     10  N   UNL     1       2.117   6.110  21.374  0.00  0.00    +0.000 N 
ATOM     11  H   UNL     1       2.386   6.233  22.346  0.00  0.00    +0.000 HD
BRANCH  10  12
ATOM     12  C   UNL     1       1.757   7.220  20.578  0.00  0.00    +0.000 A 
ATOM     13  C   UNL     1       2.302   7.357  19.302  0.00  0.00    +0.000 A 
ATOM     14  C   UNL     1       1.999   8.481  18.533  0.00  0.00    +0.000 A 
ATOM     15  C   UNL     1       1.128   9.450  19.030  0.00  0.00    +0.000 A 
ATOM     16  C   UNL     1       0.556   9.293  20.293  0.00  0.00    +0.000 A 
ATOM     17  C   UNL     1       0.873   8.178  21.071  0.00  0.00    +0.000 A 
ENDBRANCH  10  12
ENDBRANCH   7  10
ENDBRANCH   4   7
BRANCH   1  18
ATOM     18  N   UNL     1       5.581   3.598  16.324  0.00  0.00    +0.000 N 
ATOM     19  H   UNL     1       5.433   2.836  15.667  0.00  0.00    +0.000 HD
BRANCH  18  21
ATOM     20  O   UNL     1       6.031   6.044  16.086  0.00  0.00    +0.000 OA
ATOM     21  S   UNL     1       6.685   4.775  15.866  0.00  0.00    +0.000 S 
ATOM     22  O   UNL     1       7.974   4.490  16.458  0.00  0.00    +0.000 OA
BRANCH  21  23
ATOM     23  C   UNL     1       6.798   4.519  14.111  0.00  0.00    +0.000 A 
ATOM     24  C   UNL     1       6.002   3.545  13.502  0.00  0.00    +0.000 A 
ATOM     25  C   UNL     1       6.113   3.331  12.129  0.00  0.00    +0.000 A 
ATOM     26  C   UNL     1       7.012   4.087  11.373  0.00  0.00    +0.000 A 
ATOM     27  C   UNL     1       7.792   5.071  11.984  0.00  0.00    +0.000 A 
ATOM     28  C   UNL     1       7.679   5.299  13.355  0.00  0.00    +0.000 A 
ENDBRANCH  21  23
ENDBRANCH  18  21
ENDBRANCH   1  18
TORSDOF 6
ENDMDL
MODEL 3
REMARK VINA RESULT:      -7.9      0.847      1.271
REMARK  Name = 
REMARK  6 active torsions:
REMARK  status: ('A' for Active; 'I' for Inactive)
REMARK    1  A    between atoms: S_2  and  N_4
REMARK    2  A    between atoms: S_2  and  C_21
REMARK    3  A    between atoms: N_4  and  C_5
REMARK    4  A    between atoms: C_8  and  S_9
REMARK    5  A    between atoms: S_9  and  N_12
REMARK    6  A    between atoms: N_12  and  C_13
REMARK                            x       y       z     vdW  Elec       q    Type
REMARK                         _______ _______ _______ _____ _____    ______ ____
ROOT
ATOM      1  C   UNL     1       2.605   7.404  18.701  0.00  0.00    +0.000 A 
ATOM      2  C   UNL     1       1.990   7.560  19.941  0.00  0.00    +0.000 A 
ATOM      3  C   UNL     1       1.197   8.685  20.187  0.00  0.00    +0.000 A 
ATOM      4  C   UNL     1       1.042   9.659  19.195  0.00  0.00    +0.000 A 
ATOM      5  C   UNL     1       1.645   9.497  17.944  0.00  0.00    +0.000 A 
ATOM      6  C   UNL     1       2.443   8.373  17.707  0.00  0.00    +0.000 A 
ENDROOT
BRANCH   4   7
ATOM      7  S   UNL     1      -0.001  11.071  19.520  0.00  0.00    +0.000 S 
ATOM      8  O   UNL     1       0.180  11.430  20.908  0.00  0.00    +0.000 OA
ATOM      9  O   UNL     1       0.219  12.038  18.464  0.00  0.00    +0.000 OA
BRANCH   7  10
ATOM     10  N   UNL     1      -1.561  10.472  19.390  0.00  0.00    +0.000 N 
ATOM     11  H   UNL     1      -1.879   9.841  20.122  0.00  0.00    +0.000 HD
BRANCH  10  12
ATOM     12  C   UNL     1      -2.288  10.606  18.186  0.00  0.00    +0.000 A 
ATOM     13  C   UNL     1      -3.370  11.484  18.132  0.00  0.00    +0.000 A 
ATOM     14  C   UNL     1      -4.130  11.579  16.965  0.00  0.00    +0.000 A 
ATOM     15  C   UNL     1      -3.787  10.818  15.848  0.00  0.00    +0.000 A 
ATOM     16  C   UNL     1      -2.682   9.967  15.894  0.00  0.00    +0.000 A 
ATOM     17  C   UNL     1      -1.933   9.857  17.066  0.00  0.00    +0.000 A 
ENDBRANCH  10  12
ENDBRANCH   7  10
ENDBRANCH   4   7
BRANCH   1  18
ATOM     18  N   UNL     1       3.409   6.272  18.441  0.00  0.00    +0.000 N 
ATOM     19  H   UNL     1       4.363   6.211  18.791  0.00  0.00    +0.000 HD
BRANCH  18  21
ATOM     20  O   UNL     1       1.406   5.195  17.410  0.00  0.00    +0.000 OA
ATOM     21  S   UNL     1       2.724   4.846  17.885  0.00  0.00    +0.000 S 
ATOM     22  O   UNL     1       3.665   4.155  17.030  0.00  0.00    +0.000 OA
BRANCH  21  23
ATOM     23  C   UNL     1       2.532   3.914  19.386  0.00  0.00    +0.000 A 
ATOM     24  C   UNL     1       3.621   3.212  19.908  0.00  0.00    +0.000 A 
ATOM     25  C   UNL     1       3.457   2.461  21.072  0.00  0.00    +0.000 A 
ATOM     26  C   UNL     1       2.215   2.419  21.708  0.00  0.00    +0.000 A 
ATOM     27  C   UNL     1       1.134   3.136  21.191  0.00  0.00    +0.000 A 
ATOM     28  C   UNL     1       1.293   3.898  20.034  0.00  0.00    +0.000 A 
ENDBRANCH  21  23
ENDBRANCH  18  21
ENDBRANCH   1  18
TORSDOF 6
ENDMDL
MODEL 4
REMARK VINA RESULT:      -7.8      0.679      1.797
REMARK  Name = 
REMARK  6 active torsions:
REMARK  status: ('A' for Active; 'I' for Inactive)
REMARK    1  A    between atoms: S_2  and  N_4
REMARK    2  A    between atoms: S_2  and  C_21
REMARK    3  A    between atoms: N_4  and  C_5
REMARK    4  A    between atoms: C_8  and  S_9
REMARK    5  A    between atoms: S_9  and  N_12
REMARK    6  A    between atoms: N_12  and  C_13
REMARK                            x       y       z     vdW  Elec       q    Type
REMARK                         _______ _______ _______ _____ _____    ______ ____
ROOT
ATOM      1  C   UNL     1       2.763   6.927  18.445  0.00  0.00    +0.000 A 
ATOM      2  C   UNL     1       2.617   7.973  17.538  0.00  0.00    +0.000 A 
ATOM      3  C   UNL     1       1.970   9.148  17.932  0.00  0.00    +0.000 A 
ATOM      4  C   UNL     1       1.455   9.260  19.228  0.00  0.00    +0.000 A 
ATOM      5  C   UNL     1       1.615   8.217  20.145  0.00  0.00    +0.000 A 
ATOM      6  C   UNL     1       2.256   7.041  19.742  0.00  0.00    +0.000 A 
ENDROOT
BRANCH   4   7
ATOM      7  S   UNL     1       0.661  10.783  19.719  0.00  0.00    +0.000 S 
ATOM      8  O   UNL     1       1.050  11.050  21.085  0.00  0.00    +0.000 OA
ATOM      9  O   UNL     1       0.890  11.759  18.672  0.00  0.00    +0.000 OA
BRANCH   7  10
ATOM     10  N   UNL     1      -0.971  10.404  19.761  0.00  0.00    +0.000 N 
ATOM     11  H   UNL     1      -1.300   9.856  20.551  0.00  0.00    +0.000 HD
BRANCH  10  12
ATOM     12  C   UNL     1      -1.784  10.588  18.620  0.00  0.00    +0.000 A 
ATOM     13  C   UNL     1      -2.817  11.524  18.657  0.00  0.00    +0.000 A 
ATOM     14  C   UNL     1      -3.662  11.670  17.557  0.00  0.00    +0.000 A 
ATOM     15  C   UNL     1      -3.453  10.901  16.412  0.00  0.00    +0.000 A 
ATOM     16  C   UNL     1      -2.397   9.991  16.365  0.00  0.00    +0.000 A 
ATOM     17  C   UNL     1      -1.562   9.830  17.472  0.00  0.00    +0.000 A 
ENDBRANCH  10  12
ENDBRANCH   7  10
ENDBRANCH   4   7
BRANCH   1  18
ATOM     18  N   UNL     1       3.414   5.734  18.058  0.00  0.00    +0.000 N 
ATOM     19  H   UNL     1       4.414   5.608  18.201  0.00  0.00    +0.000 HD
BRANCH  18  21
ATOM     20  O   UNL     1       1.217   4.809  17.313  0.00  0.00    +0.000 OA
ATOM     21  S   UNL     1       2.531   4.353  17.706  0.00  0.00    +0.000 S 
ATOM     22  O   UNL     1       3.305   3.486  16.845  0.00  0.00    +0.000 OA
BRANCH  21  23
ATOM     23  C   UNL     1       2.384   3.585  19.301  0.00  0.00    +0.000 A 
ATOM     24  C   UNL     1       1.142   3.553  19.941  0.00  0.00    +0.000 A 
ATOM     25  C   UNL     1       1.038   2.971  21.204  0.00  0.00    +0.000 A 
ATOM     26  C   UNL     1       2.167   2.425  21.818  0.00  0.00    +0.000 A 
ATOM     27  C   UNL     1       3.402   2.445  21.167  0.00  0.00    +0.000 A 
ATOM     28  C   UNL     1       3.512   3.014  19.899  0.00  0.00    +0.000 A 
ENDBRANCH  21  23
ENDBRANCH  18  21
ENDBRANCH   1  18
TORSDOF 6
ENDMDL
MODEL 5
REMARK VINA RESULT:      -7.8      2.841      3.661
REMARK  Name = 
REMARK  6 active torsions:
REMARK  status: ('A' for Active; 'I' for Inactive)
REMARK    1  A    between atoms: S_2  and  N_4
REMARK    2  A    between atoms: S_2  and  C_21
REMARK    3  A    between atoms: N_4  and  C_5
REMARK    4  A    between atoms: C_8  and  S_9
REMARK    5  A    between atoms: S_9  and  N_12
REMARK    6  A    between atoms: N_12  and  C_13
REMARK                            x       y       z     vdW  Elec       q    Type
REMARK                         _______ _______ _______ _____ _____    ______ ____
ROOT
ATOM      1  C   UNL     1       2.698   5.749  19.176  0.00  0.00    +0.000 A 
ATOM      2  C   UNL     1       2.074   5.712  20.421  0.00  0.00    +0.000 A 
ATOM      3  C   UNL     1       1.454   6.861  20.921  0.00  0.00    +0.000 A 
ATOM      4  C   UNL     1       1.481   8.047  20.179  0.00  0.00    +0.000 A 
ATOM      5  C   UNL     1       2.092   8.081  18.922  0.00  0.00    +0.000 A 
ATOM      6  C   UNL     1       2.718   6.930  18.431  0.00  0.00    +0.000 A 
ENDROOT
BRANCH   4   7
ATOM      7  S   UNL     1       0.654   9.493  20.822  0.00  0.00    +0.000 S 
ATOM      8  O   UNL     1      -0.700   9.106  21.147  0.00  0.00    +0.000 OA
ATOM      9  O   UNL     1       1.520  10.092  21.818  0.00  0.00    +0.000 OA
BRANCH   7  10
ATOM     10  N   UNL     1       0.544  10.526  19.507  0.00  0.00    +0.000 N 
ATOM     11  H   UNL     1       1.318  11.169  19.355  0.00  0.00    +0.000 HD
BRANCH  10  12
ATOM     12  C   UNL     1      -0.679  10.693  18.821  0.00  0.00    +0.000 A 
ATOM     13  C   UNL     1      -1.586  11.658  19.257  0.00  0.00    +0.000 A 
ATOM     14  C   UNL     1      -2.821  11.788  18.622  0.00  0.00    +0.000 A 
ATOM     15  C   UNL     1      -3.133  10.975  17.533  0.00  0.00    +0.000 A 
ATOM     16  C   UNL     1      -2.210  10.034  17.076  0.00  0.00    +0.000 A 
ATOM     17  C   UNL     1      -0.981   9.889  17.723  0.00  0.00    +0.000 A 
ENDBRANCH  10  12
ENDBRANCH   7  10
ENDBRANCH   4   7
BRANCH   1  18
ATOM     18  N   UNL     1       3.329   4.594  18.661  0.00  0.00    +0.000 N 
ATOM     19  H   UNL     1       2.888   4.030  17.938  0.00  0.00    +0.000 HD
BRANCH  18  21
ATOM     20  O   UNL     1       5.442   5.463  19.671  0.00  0.00    +0.000 OA
ATOM     21  S   UNL     1       4.961   4.318  18.932  0.00  0.00    +0.000 S 
ATOM     22  O   UNL     1       5.151   2.975  19.435  0.00  0.00    +0.000 OA
BRANCH  21  23
ATOM     23  C   UNL     1       5.634   4.410  17.290  0.00  0.00    +0.000 A 
ATOM     24  C   UNL     1       7.000   4.646  17.116  0.00  0.00    +0.000 A 
ATOM     25  C   UNL     1       7.518   4.742  15.824  0.00  0.00    +0.000 A 
ATOM     26  C   UNL     1       6.675   4.600  14.720  0.00  0.00    +0.000 A 
ATOM     27  C   UNL     1       5.314   4.348  14.901  0.00  0.00    +0.000 A 
ATOM     28  C   UNL     1       4.790   4.238  16.188  0.00  0.00    +0.000 A 
ENDBRANCH  21  23
ENDBRANCH  18  21
ENDBRANCH   1  18
TORSDOF 6
ENDMDL
MODEL 6
REMARK VINA RESULT:      -7.7      2.766      3.554
REMARK  Name = 
REMARK  6 active torsions:
REMARK  status: ('A' for Active; 'I' for Inactive)
REMARK    1  A    between atoms: S_2  and  N_4
REMARK    2  A    between atoms: S_2  and  C_21
REMARK    3  A    between atoms: N_4  and  C_5
REMARK    4  A    between atoms: C_8  and  S_9
REMARK    5  A    between atoms: S_9  and  N_12
REMARK    6  A    between atoms: N_12  and  C_13
REMARK                            x       y       z     vdW  Elec       q    Type
REMARK                         _______ _______ _______ _____ _____    ______ ____
ROOT
ATOM      1  C   UNL     1       2.685   6.145  18.972  0.00  0.00    +0.000 A 
ATOM      2  C   UNL     1       2.124   6.391  20.223  0.00  0.00    +0.000 A 
ATOM      3  C   UNL     1       1.590   7.652  20.509  0.00  0.00    +0.000 A 
ATOM      4  C   UNL     1       1.641   8.665  19.546  0.00  0.00    +0.000 A 
ATOM      5  C   UNL     1       2.188   8.415  18.284  0.00  0.00    +0.000 A 
ATOM      6  C   UNL     1       2.727   7.154  18.007  0.00  0.00    +0.000 A 
ENDROOT
BRANCH   4   7
ATOM      7  S   UNL     1       0.924  10.257  19.922  0.00  0.00    +0.000 S 
ATOM      8  O   UNL     1       1.257  10.566  21.293  0.00  0.00    +0.000 OA
ATOM      9  O   UNL     1       1.270  11.164  18.846  0.00  0.00    +0.000 OA
BRANCH   7  10
ATOM     10  N   UNL     1      -0.729   9.984  19.890  0.00  0.00    +0.000 N 
ATOM     11  H   UNL     1      -1.112   9.366  20.602  0.00  0.00    +0.000 HD
BRANCH  10  12
ATOM     12  C   UNL     1      -1.502  10.360  18.769  0.00  0.00    +0.000 A 
ATOM     13  C   UNL     1      -2.419  11.404  18.885  0.00  0.00    +0.000 A 
ATOM     14  C   UNL     1      -3.228  11.742  17.800  0.00  0.00    +0.000 A 
ATOM     15  C   UNL     1      -3.097  11.055  16.594  0.00  0.00    +0.000 A 
ATOM     16  C   UNL     1      -2.154  10.035  16.469  0.00  0.00    +0.000 A 
ATOM     17  C   UNL     1      -1.356   9.682  17.560  0.00  0.00    +0.000 A 
ENDBRANCH  10  12
ENDBRANCH   7  10
ENDBRANCH   4   7
BRANCH   1  18
ATOM     18  N   UNL     1       3.228   4.876  18.672  0.00  0.00    +0.000 N 
ATOM     19  H   UNL     1       2.745   4.228  18.054  0.00  0.00    +0.000 HD
BRANCH  18  21
ATOM     20  O   UNL     1       5.354   5.688  19.701  0.00  0.00    +0.000 OA
ATOM     21  S   UNL     1       4.835   4.533  19.006  0.00  0.00    +0.000 S 
ATOM     22  O   UNL     1       4.942   3.209  19.580  0.00  0.00    +0.000 OA
BRANCH  21  23
ATOM     23  C   UNL     1       5.557   4.507  17.382  0.00  0.00    +0.000 A 
ATOM     24  C   UNL     1       6.918   4.781  17.226  0.00  0.00    +0.000 A 
ATOM     25  C   UNL     1       7.473   4.784  15.946  0.00  0.00    +0.000 A 
ATOM     26  C   UNL     1       6.672   4.512  14.836  0.00  0.00    +0.000 A 
ATOM     27  C   UNL     1       5.316   4.221  14.999  0.00  0.00    +0.000 A 
ATOM     28  C   UNL     1       4.756   4.204  16.276  0.00  0.00    +0.000 A 
ENDBRANCH  21  23
ENDBRANCH  18  21
ENDBRANCH   1  18
TORSDOF 6
ENDMDL
MODEL 7
REMARK VINA RESULT:      -7.7      4.549      6.559
REMARK  Name = 
REMARK  6 active torsions:
REMARK  status: ('A' for Active; 'I' for Inactive)
REMARK    1  A    between atoms: S_2  and  N_4
REMARK    2  A    between atoms: S_2  and  C_21
REMARK    3  A    between atoms: N_4  and  C_5
REMARK    4  A    between atoms: C_8  and  S_9
REMARK    5  A    between atoms: S_9  and  N_12
REMARK    6  A    between atoms: N_12  and  C_13
REMARK                            x       y       z     vdW  Elec       q    Type
REMARK                         _______ _______ _______ _____ _____    ______ ____
ROOT
ATOM      1  C   UNL     1       5.074   4.006  17.135  0.00  0.00    +0.000 A 
ATOM      2  C   UNL     1       3.719   3.735  16.959  0.00  0.00    +0.000 A 
ATOM      3  C   UNL     1       2.816   4.010  17.989  0.00  0.00    +0.000 A 
ATOM      4  C   UNL     1       3.279   4.537  19.200  0.00  0.00    +0.000 A 
ATOM      5  C   UNL     1       4.636   4.825  19.373  0.00  0.00    +0.000 A 
ATOM      6  C   UNL     1       5.535   4.540  18.340  0.00  0.00    +0.000 A 
ENDROOT
BRANCH   4   7
ATOM      7  S   UNL     1       2.103   4.910  20.491  0.00  0.00    +0.000 S 
ATOM      8  O   UNL     1       0.785   4.871  19.898  0.00  0.00    +0.000 OA
ATOM      9  O   UNL     1       2.430   4.089  21.639  0.00  0.00    +0.000 OA
BRANCH   7  10
ATOM     10  N   UNL     1       2.399   6.515  20.869  0.00  0.00    +0.000 N 
ATOM     11  H   UNL     1       2.700   6.722  21.818  0.00  0.00    +0.000 HD
BRANCH  10  12
ATOM     12  C   UNL     1       1.980   7.550  20.003  0.00  0.00    +0.000 A 
ATOM     13  C   UNL     1       1.139   8.552  20.486  0.00  0.00    +0.000 A 
ATOM     14  C   UNL     1       0.672   9.544  19.623  0.00  0.00    +0.000 A 
ATOM     15  C   UNL     1       1.073   9.549  18.288  0.00  0.00    +0.000 A 
ATOM     16  C   UNL     1       1.943   8.566  17.815  0.00  0.00    +0.000 A 
ATOM     17  C   UNL     1       2.396   7.561  18.673  0.00  0.00    +0.000 A 
ENDBRANCH  10  12
ENDBRANCH   7  10
ENDBRANCH   4   7
BRANCH   1  18
ATOM     18  N   UNL     1       5.996   3.732  16.100  0.00  0.00    +0.000 N 
ATOM     19  H   UNL     1       6.281   2.779  15.886  0.00  0.00    +0.000 HD
BRANCH  18  21
ATOM     20  O   UNL     1       5.348   5.915  15.075  0.00  0.00    +0.000 OA
ATOM     21  S   UNL     1       6.366   4.897  14.953  0.00  0.00    +0.000 S 
ATOM     22  O   UNL     1       7.770   5.236  15.037  0.00  0.00    +0.000 OA
BRANCH  21  23
ATOM     23  C   UNL     1       6.083   4.026  13.430  0.00  0.00    +0.000 A 
ATOM     24  C   UNL     1       4.775   3.815  12.987  0.00  0.00    +0.000 A 
ATOM     25  C   UNL     1       4.558   3.109  11.804  0.00  0.00    +0.000 A 
ATOM     26  C   UNL     1       5.643   2.621  11.072  0.00  0.00    +0.000 A 
ATOM     27  C   UNL     1       6.949   2.849  11.511  0.00  0.00    +0.000 A 
ATOM     28  C   UNL     1       7.174   3.565  12.686  0.00  0.00    +0.000 A 
ENDBRANCH  21  23
ENDBRANCH  18  21
ENDBRANCH   1  18
TORSDOF 6
ENDMDL
MODEL 8
REMARK VINA RESULT:      -7.7      4.919      7.509
REMARK  Name = 
REMARK  6 active torsions:
REMARK  status: ('A' for Active; 'I' for Inactive)
REMARK    1  A    between atoms: S_2  and  N_4
REMARK    2  A    between atoms: S_2  and  C_21
REMARK    3  A    between atoms: N_4  and  C_5
REMARK    4  A    between atoms: C_8  and  S_9
REMARK    5  A    between atoms: S_9  and  N_12
REMARK    6  A    between atoms: N_12  and  C_13
REMARK                            x       y       z     vdW  Elec       q    Type
REMARK                         _______ _______ _______ _____ _____    ______ ____
ROOT
ATOM      1  C   UNL     1       3.428   5.650  19.806  0.00  0.00    +0.000 A 
ATOM      2  C   UNL     1       4.725   5.146  19.737  0.00  0.00    +0.000 A 
ATOM      3  C   UNL     1       5.533   5.454  18.639  0.00  0.00    +0.000 A 
ATOM      4  C   UNL     1       5.030   6.251  17.605  0.00  0.00    +0.000 A 
ATOM      5  C   UNL     1       3.735   6.772  17.680  0.00  0.00    +0.000 A 
ATOM      6  C   UNL     1       2.929   6.453  18.777  0.00  0.00    +0.000 A 
ENDROOT
BRANCH   4   7
ATOM      7  S   UNL     1       6.091   6.658  16.228  0.00  0.00    +0.000 S 
ATOM      8  O   UNL     1       5.239   7.055  15.130  0.00  0.00    +0.000 OA
ATOM      9  O   UNL     1       7.135   7.535  16.717  0.00  0.00    +0.000 OA
BRANCH   7  10
ATOM     10  N   UNL     1       6.775   5.194  15.785  0.00  0.00    +0.000 N 
ATOM     11  H   UNL     1       7.357   4.725  16.475  0.00  0.00    +0.000 HD
BRANCH  10  12
ATOM     12  C   UNL     1       6.777   4.776  14.435  0.00  0.00    +0.000 A 
ATOM     13  C   UNL     1       5.860   3.815  14.012  0.00  0.00    +0.000 A 
ATOM     14  C   UNL     1       5.894   3.354  12.696  0.00  0.00    +0.000 A 
ATOM     15  C   UNL     1       6.825   3.877  11.799  0.00  0.00    +0.000 A 
ATOM     16  C   UNL     1       7.718   4.865  12.216  0.00  0.00    +0.000 A 
ATOM     17  C   UNL     1       7.698   5.313  13.538  0.00  0.00    +0.000 A 
ENDBRANCH  10  12
ENDBRANCH   7  10
ENDBRANCH   4   7
BRANCH   1  18
ATOM     18  N   UNL     1       2.602   5.345  20.911  0.00  0.00    +0.000 N 
ATOM     19  H   UNL     1       2.349   6.056  21.593  0.00  0.00    +0.000 HD
BRANCH  18  21
ATOM     20  O   UNL     1       1.978   3.314  22.223  0.00  0.00    +0.000 OA
ATOM     21  S   UNL     1       1.708   3.926  20.943  0.00  0.00    +0.000 S 
ATOM     22  O   UNL     1       0.352   4.196  20.518  0.00  0.00    +0.000 OA
BRANCH  21  23
ATOM     23  C   UNL     1       2.510   2.950  19.694  0.00  0.00    +0.000 A 
ATOM     24  C   UNL     1       2.027   2.973  18.383  0.00  0.00    +0.000 A 
ATOM     25  C   UNL     1       2.645   2.185  17.412  0.00  0.00    +0.000 A 
ATOM     26  C   UNL     1       3.738   1.385  17.752  0.00  0.00    +0.000 A 
ATOM     27  C   UNL     1       4.227   1.380  19.060  0.00  0.00    +0.000 A 
ATOM     28  C   UNL     1       3.622   2.173  20.034  0.00  0.00    +0.000 A 
ENDBRANCH  21  23
ENDBRANCH  18  21
ENDBRANCH   1  18
TORSDOF 6
ENDMDL
MODEL 9
REMARK VINA RESULT:      -7.6      1.159      1.580
REMARK  Name = 
REMARK  6 active torsions:
REMARK  status: ('A' for Active; 'I' for Inactive)
REMARK    1  A    between atoms: S_2  and  N_4
REMARK    2  A    between atoms: S_2  and  C_21
REMARK    3  A    between atoms: N_4  and  C_5
REMARK    4  A    between atoms: C_8  and  S_9
REMARK    5  A    between atoms: S_9  and  N_12
REMARK    6  A    between atoms: N_12  and  C_13
REMARK                            x       y       z     vdW  Elec       q    Type
REMARK                         _______ _______ _______ _____ _____    ______ ____
ROOT
ATOM      1  C   UNL     1       2.866   7.145  18.299  0.00  0.00    +0.000 A 
ATOM      2  C   UNL     1       2.434   6.972  19.612  0.00  0.00    +0.000 A 
ATOM      3  C   UNL     1       1.685   7.975  20.234  0.00  0.00    +0.000 A 
ATOM      4  C   UNL     1       1.391   9.156  19.544  0.00  0.00    +0.000 A 
ATOM      5  C   UNL     1       1.809   9.324  18.220  0.00  0.00    +0.000 A 
ATOM      6  C   UNL     1       2.565   8.320  17.606  0.00  0.00    +0.000 A 
ENDROOT
BRANCH   4   7
ATOM      7  S   UNL     1       0.405  10.410  20.347  0.00  0.00    +0.000 S 
ATOM      8  O   UNL     1      -0.729   9.746  20.950  0.00  0.00    +0.000 OA
ATOM      9  O   UNL     1       1.296  11.233  21.140  0.00  0.00    +0.000 OA
BRANCH   7  10
ATOM     10  N   UNL     1      -0.204  11.328  19.086  0.00  0.00    +0.000 N 
ATOM     11  H   UNL     1       0.305  12.173  18.837  0.00  0.00    +0.000 HD
BRANCH  10  12
ATOM     12  C   UNL     1      -1.506  11.097  18.587  0.00  0.00    +0.000 A 
ATOM     13  C   UNL     1      -1.710  10.095  17.639  0.00  0.00    +0.000 A 
ATOM     14  C   UNL     1      -2.981   9.900  17.097  0.00  0.00    +0.000 A 
ATOM     15  C   UNL     1      -4.049  10.686  17.528  0.00  0.00    +0.000 A 
ATOM     16  C   UNL     1      -3.849  11.663  18.503  0.00  0.00    +0.000 A 
ATOM     17  C   UNL     1      -2.574  11.873  19.032  0.00  0.00    +0.000 A 
ENDBRANCH  10  12
ENDBRANCH   7  10
ENDBRANCH   4   7
BRANCH   1  18
ATOM     18  N   UNL     1       3.624   6.138  17.660  0.00  0.00    +0.000 N 
ATOM     19  H   UNL     1       3.921   6.236  16.692  0.00  0.00    +0.000 HD
BRANCH  18  21
ATOM     20  O   UNL     1       5.133   4.149  17.609  0.00  0.00    +0.000 OA
ATOM     21  S   UNL     1       4.379   4.938  18.555  0.00  0.00    +0.000 S 
ATOM     22  O   UNL     1       5.019   5.524  19.713  0.00  0.00    +0.000 OA
BRANCH  21  23
ATOM     23  C   UNL     1       3.002   3.958  19.104  0.00  0.00    +0.000 A 
ATOM     24  C   UNL     1       2.074   3.487  18.171  0.00  0.00    +0.000 A 
ATOM     25  C   UNL     1       0.982   2.739  18.611  0.00  0.00    +0.000 A 
ATOM     26  C   UNL     1       0.823   2.466  19.971  0.00  0.00    +0.000 A 
ATOM     27  C   UNL     1       1.762   2.925  20.896  0.00  0.00    +0.000 A 
ATOM     28  C   UNL     1       2.864   3.662  20.464  0.00  0.00    +0.000 A 
ENDBRANCH  21  23
ENDBRANCH  18  21
ENDBRANCH   1  18
TORSDOF 6
ENDMDL
