MODEL 1
REMARK VINA RESULT:      -7.3      0.000      0.000
REMARK  Name = 
REMARK  13 active torsions:
REMARK  status: ('A' for Active; 'I' for Inactive)
REMARK    1  A    between atoms: C_1  and  C_2
REMARK    2  A    between atoms: C_5  and  S_6
REMARK    3  A    between atoms: S_6  and  C_7
REMARK    4  A    between atoms: C_7  and  C_8
REMARK    5  A    between atoms: N_10  and  C_11
REMARK    6  A    between atoms: N_10  and  C_15
REMARK    7  A    between atoms: C_11  and  C_12
REMARK    8  A    between atoms: C_12  and  C_13
REMARK    9  A    between atoms: C_12  and  C_14
REMARK   10  A    between atoms: C_16  and  N_17
REMARK   11  A    between atoms: N_18  and  C_19
REMARK   12  A    between atoms: C_19  and  C_20
REMARK   13  A    between atoms: N_31  and  N_32
REMARK                            x       y       z     vdW  Elec       q    Type
REMARK                         _______ _______ _______ _____ _____    ______ ____
ROOT
ATOM      1  C   UNL     1       2.621   6.033  19.236  0.00  0.00    +0.000 A 
ATOM      2  C   UNL     1       2.484   7.240  18.639  0.00  0.00    +0.000 A 
ATOM      3  N   UNL     1       1.938   8.306  19.337  0.00  0.00    +0.000 N 
ATOM      4  C   UNL     1       1.387   8.160  20.601  0.00  0.00    +0.000 A 
ATOM      5  O   UNL     1       0.922   9.079  21.271  0.00  0.00    +0.000 OA
ATOM      6  N   UNL     1       1.400   6.902  21.124  0.00  0.00    +0.000 N 
ATOM      7  C   UNL     1       2.149   5.877  20.640  0.00  0.00    +0.000 A 
ATOM      8  O   UNL     1       2.455   4.910  21.331  0.00  0.00    +0.000 OA
ATOM      9  H   UNL     1       1.105   6.829  22.085  0.00  0.00    +0.000 HD
ENDROOT
BRANCH   1  12
ATOM     10  C   UNL     1       4.605   4.758  18.520  0.00  0.00    +0.000 C 
ATOM     11  O   UNL     1       5.083   3.837  17.848  0.00  0.00    +0.000 OA
ATOM     12  N   UNL     1       3.217   4.942  18.608  0.00  0.00    +0.000 N 
BRANCH  10  13
ATOM     13  C   UNL     1       5.517   5.671  19.358  0.00  0.00    +0.000 C 
BRANCH  13  14
ATOM     14  S   UNL     1       6.812   6.476  18.361  0.00  0.00    +0.000 S 
BRANCH  14  19
ATOM     15  C   UNL     1       6.514   4.218  13.676  0.00  0.00    +0.000 C 
ATOM     16  C   UNL     1       6.217   5.153  14.784  0.00  0.00    +0.000 A 
ATOM     17  N   UNL     1       5.383   6.176  14.772  0.00  0.00    +0.000 NA
ATOM     18  N   UNL     1       5.454   6.800  16.007  0.00  0.00    +0.000 NA
ATOM     19  C   UNL     1       6.299   6.118  16.749  0.00  0.00    +0.000 A 
ATOM     20  N   UNL     1       6.820   5.081  16.015  0.00  0.00    +0.000 N 
BRANCH  20  21
ATOM     21  N   UNL     1       7.780   4.106  16.427  0.00  0.00    +0.000 N 
ATOM     22  H   UNL     1       8.521   4.026  15.728  0.00  0.00    +0.000 HD
ATOM     23  H   UNL     1       7.374   3.179  16.513  0.00  0.00    +0.000 HD
ENDBRANCH  20  21
ENDBRANCH  14  19
ENDBRANCH  13  14
ENDBRANCH  10  13
BRANCH  12  24
ATOM     24  C   UNL     1       2.302   4.014  17.898  0.00  0.00    +0.000 C 
BRANCH  24  25
ATOM     25  C   UNL     1       2.010   2.739  18.726  0.00  0.00    +0.000 C 
ATOM     26  C   UNL     1       0.514   2.425  18.807  0.00  0.00    +0.000 C 
ATOM     27  C   UNL     1       2.747   1.516  18.179  0.00  0.00    +0.000 C 
ENDBRANCH  24  25
ENDBRANCH  12  24
ENDBRANCH   1  12
BRANCH   2  28
ATOM     28  N   UNL     1       2.924   7.394  17.341  0.00  0.00    +0.000 N 
ATOM     29  H   UNL     1       3.330   8.294  17.121  0.00  0.00    +0.000 HD
ATOM     30  H   UNL     1       3.448   6.632  16.929  0.00  0.00    +0.000 HD
ENDBRANCH   2  28
BRANCH   3  31
ATOM     31  C   UNL     1       2.007   9.666  18.782  0.00  0.00    +0.000 C 
BRANCH  31  32
ATOM     32  C   UNL     1       0.664  10.276  18.432  0.00  0.00    +0.000 A 
ATOM     33  C   UNL     1      -0.290   9.540  17.714  0.00  0.00    +0.000 A 
ATOM     34  C   UNL     1      -1.572  10.048  17.500  0.00  0.00    +0.000 A 
ATOM     35  C   UNL     1      -1.917  11.302  17.996  0.00  0.00    +0.000 A 
ATOM     36  C   UNL     1      -0.975  12.057  18.691  0.00  0.00    +0.000 A 
ATOM     37  C   UNL     1       0.309  11.550  18.909  0.00  0.00    +0.000 A 
ENDBRANCH  31  32
ENDBRANCH   3  31
TORSDOF 10
ENDMDL
MODEL 2
REMARK VINA RESULT:      -7.1      0.389      1.116
REMARK  Name = 
REMARK  13 active torsions:
REMARK  status: ('A' for Active; 'I' for Inactive)
REMARK    1  A    between atoms: C_1  and  C_2
REMARK    2  A    between atoms: C_5  and  S_6
REMARK    3  A    between atoms: S_6  and  C_7
REMARK    4  A    between atoms: C_7  and  C_8
REMARK    5  A    between atoms: N_10  and  C_11
REMARK    6  A    between atoms: N_10  and  C_15
REMARK    7  A    between atoms: C_11  and  C_12
REMARK    8  A    between atoms: C_12  and  C_13
REMARK    9  A    between atoms: C_12  and  C_14
REMARK   10  A    between atoms: C_16  and  N_17
REMARK   11  A    between atoms: N_18  and  C_19
REMARK   12  A    between atoms: C_19  and  C_20
REMARK   13  A    between atoms: N_31  and  N_32
REMARK                            x       y       z     vdW  Elec       q    Type
REMARK                         _______ _______ _______ _____ _____    ______ ____
ROOT
ATOM      1  C   UNL     1       2.607   5.786  19.129  0.00  0.00    +0.000 A 
ATOM      2  C   UNL     1       2.443   7.024  18.607  0.00  0.00    +0.000 A 
ATOM      3  N   UNL     1       1.992   8.065  19.406  0.00  0.00    +0.000 N 
ATOM      4  C   UNL     1       1.563   7.866  20.709  0.00  0.00    +0.000 A 
ATOM      5  O   UNL     1       1.188   8.759  21.466  0.00  0.00    +0.000 OA
ATOM      6  N   UNL     1       1.596   6.583  21.168  0.00  0.00    +0.000 N 
ATOM      7  C   UNL     1       2.270   5.569  20.564  0.00  0.00    +0.000 A 
ATOM      8  O   UNL     1       2.618   4.563  21.174  0.00  0.00    +0.000 OA
ATOM      9  H   UNL     1       1.394   6.468  22.148  0.00  0.00    +0.000 HD
ENDROOT
BRANCH   1  12
ATOM     10  C   UNL     1       4.479   4.410  18.308  0.00  0.00    +0.000 C 
ATOM     11  O   UNL     1       4.885   3.524  17.546  0.00  0.00    +0.000 OA
ATOM     12  N   UNL     1       3.113   4.718  18.394  0.00  0.00    +0.000 N 
BRANCH  10  13
ATOM     13  C   UNL     1       5.452   5.133  19.256  0.00  0.00    +0.000 C 
BRANCH  13  14
ATOM     14  S   UNL     1       6.383   6.461  18.427  0.00  0.00    +0.000 S 
BRANCH  14  19
ATOM     15  C   UNL     1       6.902   4.314  13.710  0.00  0.00    +0.000 C 
ATOM     16  C   UNL     1       6.377   5.185  14.784  0.00  0.00    +0.000 A 
ATOM     17  N   UNL     1       5.455   6.124  14.680  0.00  0.00    +0.000 NA
ATOM     18  N   UNL     1       5.307   6.717  15.923  0.00  0.00    +0.000 NA
ATOM     19  C   UNL     1       6.115   6.100  16.758  0.00  0.00    +0.000 A 
ATOM     20  N   UNL     1       6.824   5.138  16.081  0.00  0.00    +0.000 N 
BRANCH  20  21
ATOM     21  N   UNL     1       7.816   4.249  16.598  0.00  0.00    +0.000 N 
ATOM     22  H   UNL     1       7.539   3.279  16.434  0.00  0.00    +0.000 HD
ATOM     23  H   UNL     1       7.929   4.342  17.603  0.00  0.00    +0.000 HD
ENDBRANCH  20  21
ENDBRANCH  14  19
ENDBRANCH  13  14
ENDBRANCH  10  13
BRANCH  12  24
ATOM     24  C   UNL     1       2.133   3.966  17.572  0.00  0.00    +0.000 C 
BRANCH  24  25
ATOM     25  C   UNL     1       1.685   2.651  18.258  0.00  0.00    +0.000 C 
ATOM     26  C   UNL     1       2.802   2.018  19.092  0.00  0.00    +0.000 C 
ATOM     27  C   UNL     1       0.455   2.854  19.143  0.00  0.00    +0.000 C 
ENDBRANCH  24  25
ENDBRANCH  12  24
ENDBRANCH   1  12
BRANCH   2  28
ATOM     28  N   UNL     1       2.759   7.235  17.282  0.00  0.00    +0.000 N 
ATOM     29  H   UNL     1       2.560   8.162  16.927  0.00  0.00    +0.000 HD
ATOM     30  H   UNL     1       3.649   6.886  16.950  0.00  0.00    +0.000 HD
ENDBRANCH   2  28
BRANCH   3  31
ATOM     31  C   UNL     1       2.041   9.449  18.914  0.00  0.00    +0.000 C 
BRANCH  31  32
ATOM     32  C   UNL     1       0.685  10.088  18.688  0.00  0.00    +0.000 A 
ATOM     33  C   UNL     1       0.356  11.304  19.306  0.00  0.00    +0.000 A 
ATOM     34  C   UNL     1      -0.838  11.960  19.002  0.00  0.00    +0.000 A 
ATOM     35  C   UNL     1      -1.722  11.408  18.080  0.00  0.00    +0.000 A 
ATOM     36  C   UNL     1      -1.423  10.190  17.475  0.00  0.00    +0.000 A 
ATOM     37  C   UNL     1      -0.227   9.531  17.775  0.00  0.00    +0.000 A 
ENDBRANCH  31  32
ENDBRANCH   3  31
TORSDOF 10
ENDMDL
MODEL 3
REMARK VINA RESULT:      -7.0      0.446      1.400
REMARK  Name = 
REMARK  13 active torsions:
REMARK  status: ('A' for Active; 'I' for Inactive)
REMARK    1  A    between atoms: C_1  and  C_2
REMARK    2  A    between atoms: C_5  and  S_6
REMARK    3  A    between atoms: S_6  and  C_7
REMARK    4  A    between atoms: C_7  and  C_8
REMARK    5  A    between atoms: N_10  and  C_11
REMARK    6  A    between atoms: N_10  and  C_15
REMARK    7  A    between atoms: C_11  and  C_12
REMARK    8  A    between atoms: C_12  and  C_13
REMARK    9  A    between atoms: C_12  and  C_14
REMARK   10  A    between atoms: C_16  and  N_17
REMARK   11  A    between atoms: N_18  and  C_19
REMARK   12  A    between atoms: C_19  and  C_20
REMARK   13  A    between atoms: N_31  and  N_32
REMARK                            x       y       z     vdW  Elec       q    Type
REMARK                         _______ _______ _______ _____ _____    ______ ____
ROOT
ATOM      1  C   UNL     1       2.415   6.174  19.236  0.00  0.00    +0.000 A 
ATOM      2  C   UNL     1       2.252   7.383  18.649  0.00  0.00    +0.000 A 
ATOM      3  N   UNL     1       1.778   8.459  19.384  0.00  0.00    +0.000 N 
ATOM      4  C   UNL     1       1.324   8.323  20.688  0.00  0.00    +0.000 A 
ATOM      5  O   UNL     1       0.927   9.250  21.390  0.00  0.00    +0.000 OA
ATOM      6  N   UNL     1       1.358   7.065  21.211  0.00  0.00    +0.000 N 
ATOM      7  C   UNL     1       2.051   6.027  20.673  0.00  0.00    +0.000 A 
ATOM      8  O   UNL     1       2.394   5.057  21.341  0.00  0.00    +0.000 OA
ATOM      9  H   UNL     1       1.137   6.998  22.192  0.00  0.00    +0.000 HD
ENDROOT
BRANCH   1  12
ATOM     10  C   UNL     1       4.319   4.852  18.398  0.00  0.00    +0.000 C 
ATOM     11  O   UNL     1       4.732   3.925  17.693  0.00  0.00    +0.000 OA
ATOM     12  N   UNL     1       2.944   5.074  18.566  0.00  0.00    +0.000 N 
BRANCH  10  13
ATOM     13  C   UNL     1       5.303   5.731  19.190  0.00  0.00    +0.000 C 
BRANCH  13  14
ATOM     14  S   UNL     1       6.241   6.872  18.124  0.00  0.00    +0.000 S 
BRANCH  14  19
ATOM     15  C   UNL     1       6.591   4.429  13.536  0.00  0.00    +0.000 C 
ATOM     16  C   UNL     1       6.901   4.800  14.934  0.00  0.00    +0.000 A 
ATOM     17  N   UNL     1       7.801   4.253  15.731  0.00  0.00    +0.000 NA
ATOM     18  N   UNL     1       7.718   4.881  16.963  0.00  0.00    +0.000 NA
ATOM     19  C   UNL     1       6.799   5.816  16.873  0.00  0.00    +0.000 A 
ATOM     20  N   UNL     1       6.242   5.792  15.617  0.00  0.00    +0.000 N 
BRANCH  20  21
ATOM     21  N   UNL     1       5.202   6.623  15.099  0.00  0.00    +0.000 N 
ATOM     22  H   UNL     1       5.563   7.203  14.339  0.00  0.00    +0.000 HD
ATOM     23  H   UNL     1       4.842   7.267  15.796  0.00  0.00    +0.000 HD
ENDBRANCH  20  21
ENDBRANCH  14  19
ENDBRANCH  13  14
ENDBRANCH  10  13
BRANCH  12  24
ATOM     24  C   UNL     1       1.964   4.179  17.902  0.00  0.00    +0.000 C 
BRANCH  24  25
ATOM     25  C   UNL     1       1.822   2.824  18.639  0.00  0.00    +0.000 C 
ATOM     26  C   UNL     1       0.361   2.464  18.922  0.00  0.00    +0.000 C 
ATOM     27  C   UNL     1       2.478   1.678  17.867  0.00  0.00    +0.000 C 
ENDBRANCH  24  25
ENDBRANCH  12  24
ENDBRANCH   1  12
BRANCH   2  28
ATOM     28  N   UNL     1       2.593   7.528  17.320  0.00  0.00    +0.000 N 
ATOM     29  H   UNL     1       1.881   7.258  16.654  0.00  0.00    +0.000 HD
ATOM     30  H   UNL     1       3.062   8.383  17.047  0.00  0.00    +0.000 HD
ENDBRANCH   2  28
BRANCH   3  31
ATOM     31  C   UNL     1       1.826   9.816  18.824  0.00  0.00    +0.000 C 
BRANCH  31  32
ATOM     32  C   UNL     1       0.470  10.428  18.529  0.00  0.00    +0.000 A 
ATOM     33  C   UNL     1       0.198  11.761  18.872  0.00  0.00    +0.000 A 
ATOM     34  C   UNL     1      -1.000  12.367  18.490  0.00  0.00    +0.000 A 
ATOM     35  C   UNL     1      -1.945  11.647  17.765  0.00  0.00    +0.000 A 
ATOM     36  C   UNL     1      -1.702  10.315  17.437  0.00  0.00    +0.000 A 
ATOM     37  C   UNL     1      -0.502   9.707  17.816  0.00  0.00    +0.000 A 
ENDBRANCH  31  32
ENDBRANCH   3  31
TORSDOF 10
ENDMDL
MODEL 4
REMARK VINA RESULT:      -7.0      1.457      2.146
REMARK  Name = 
REMARK  13 active torsions:
REMARK  status: ('A' for Active; 'I' for Inactive)
REMARK    1  A    between atoms: C_1  and  C_2
REMARK    2  A    between atoms: C_5  and  S_6
REMARK    3  A    between atoms: S_6  and  C_7
REMARK    4  A    between atoms: C_7  and  C_8
REMARK    5  A    between atoms: N_10  and  C_11
REMARK    6  A    between atoms: N_10  and  C_15
REMARK    7  A    between atoms: C_11  and  C_12
REMARK    8  A    between atoms: C_12  and  C_13
REMARK    9  A    between atoms: C_12  and  C_14
REMARK   10  A    between atoms: C_16  and  N_17
REMARK   11  A    between atoms: N_18  and  C_19
REMARK   12  A    between atoms: C_19  and  C_20
REMARK   13  A    between atoms: N_31  and  N_32
REMARK                            x       y       z     vdW  Elec       q    Type
REMARK                         _______ _______ _______ _____ _____    ______ ____
ROOT
ATOM      1  C   UNL     1       3.028   6.455  18.947  0.00  0.00    +0.000 A 
ATOM      2  C   UNL     1       2.290   7.293  19.711  0.00  0.00    +0.000 A 
ATOM      3  N   UNL     1       1.920   8.538  19.225  0.00  0.00    +0.000 N 
ATOM      4  C   UNL     1       2.391   9.034  18.020  0.00  0.00    +0.000 A 
ATOM      5  O   UNL     1       2.067  10.114  17.532  0.00  0.00    +0.000 OA
ATOM      6  N   UNL     1       3.255   8.233  17.333  0.00  0.00    +0.000 N 
ATOM      7  C   UNL     1       3.449   6.913  17.593  0.00  0.00    +0.000 A 
ATOM      8  O   UNL     1       3.895   6.142  16.749  0.00  0.00    +0.000 OA
ATOM      9  H   UNL     1       3.499   8.550  16.408  0.00  0.00    +0.000 HD
ENDROOT
BRANCH   1  12
ATOM     10  C   UNL     1       4.694   4.682  19.339  0.00  0.00    +0.000 C 
ATOM     11  O   UNL     1       4.934   3.497  19.597  0.00  0.00    +0.000 OA
ATOM     12  N   UNL     1       3.379   5.171  19.355  0.00  0.00    +0.000 N 
BRANCH  10  13
ATOM     13  C   UNL     1       5.840   5.676  19.086  0.00  0.00    +0.000 C 
BRANCH  13  14
ATOM     14  S   UNL     1       7.334   4.872  18.423  0.00  0.00    +0.000 S 
BRANCH  14  19
ATOM     15  C   UNL     1       5.783   3.793  13.568  0.00  0.00    +0.000 C 
ATOM     16  C   UNL     1       6.432   4.512  14.686  0.00  0.00    +0.000 A 
ATOM     17  N   UNL     1       7.185   5.594  14.618  0.00  0.00    +0.000 NA
ATOM     18  N   UNL     1       7.619   5.894  15.899  0.00  0.00    +0.000 NA
ATOM     19  C   UNL     1       7.089   5.010  16.716  0.00  0.00    +0.000 A 
ATOM     20  N   UNL     1       6.348   4.106  15.995  0.00  0.00    +0.000 N 
BRANCH  20  21
ATOM     21  N   UNL     1       5.618   2.979  16.482  0.00  0.00    +0.000 N 
ATOM     22  H   UNL     1       6.216   2.405  17.081  0.00  0.00    +0.000 HD
ATOM     23  H   UNL     1       5.306   2.370  15.732  0.00  0.00    +0.000 HD
ENDBRANCH  20  21
ENDBRANCH  14  19
ENDBRANCH  13  14
ENDBRANCH  10  13
BRANCH  12  24
ATOM     24  C   UNL     1       2.257   4.264  19.700  0.00  0.00    +0.000 C 
BRANCH  24  25
ATOM     25  C   UNL     1       1.471   3.807  18.447  0.00  0.00    +0.000 C 
ATOM     26  C   UNL     1       2.389   3.274  17.344  0.00  0.00    +0.000 C 
ATOM     27  C   UNL     1       0.423   2.744  18.780  0.00  0.00    +0.000 C 
ENDBRANCH  24  25
ENDBRANCH  12  24
ENDBRANCH   1  12
BRANCH   2  28
ATOM     28  N   UNL     1       1.892   6.874  20.963  0.00  0.00    +0.000 N 
ATOM     29  H   UNL     1       1.414   7.568  21.524  0.00  0.00    +0.000 HD
ATOM     30  H   UNL     1       1.458   5.963  21.038  0.00  0.00    +0.000 HD
ENDBRANCH   2  28
BRANCH   3  31
ATOM     31  C   UNL     1       0.927   9.347  19.946  0.00  0.00    +0.000 C 
BRANCH  31  32
ATOM     32  C   UNL     1      -0.050  10.091  19.057  0.00  0.00    +0.000 A 
ATOM     33  C   UNL     1      -0.835   9.399  18.122  0.00  0.00    +0.000 A 
ATOM     34  C   UNL     1      -1.824  10.059  17.391  0.00  0.00    +0.000 A 
ATOM     35  C   UNL     1      -2.040  11.421  17.581  0.00  0.00    +0.000 A 
ATOM     36  C   UNL     1      -1.253  12.129  18.486  0.00  0.00    +0.000 A 
ATOM     37  C   UNL     1      -0.263  11.471  19.221  0.00  0.00    +0.000 A 
ENDBRANCH  31  32
ENDBRANCH   3  31
TORSDOF 10
ENDMDL
MODEL 5
REMARK VINA RESULT:      -7.0      1.463      2.304
REMARK  Name = 
REMARK  13 active torsions:
REMARK  status: ('A' for Active; 'I' for Inactive)
REMARK    1  A    between atoms: C_1  and  C_2
REMARK    2  A    between atoms: C_5  and  S_6
REMARK    3  A    between atoms: S_6  and  C_7
REMARK    4  A    between atoms: C_7  and  C_8
REMARK    5  A    between atoms: N_10  and  C_11
REMARK    6  A    between atoms: N_10  and  C_15
REMARK    7  A    between atoms: C_11  and  C_12
REMARK    8  A    between atoms: C_12  and  C_13
REMARK    9  A    between atoms: C_12  and  C_14
REMARK   10  A    between atoms: C_16  and  N_17
REMARK   11  A    between atoms: N_18  and  C_19
REMARK   12  A    between atoms: C_19  and  C_20
REMARK   13  A    between atoms: N_31  and  N_32
REMARK                            x       y       z     vdW  Elec       q    Type
REMARK                         _______ _______ _______ _____ _____    ______ ____
ROOT
ATOM      1  C   UNL     1       2.848   6.631  18.999  0.00  0.00    +0.000 A 
ATOM      2  C   UNL     1       2.136   7.504  19.749  0.00  0.00    +0.000 A 
ATOM      3  N   UNL     1       1.842   8.768  19.258  0.00  0.00    +0.000 N 
ATOM      4  C   UNL     1       2.366   9.240  18.065  0.00  0.00    +0.000 A 
ATOM      5  O   UNL     1       2.109  10.337  17.574  0.00  0.00    +0.000 OA
ATOM      6  N   UNL     1       3.203   8.398  17.397  0.00  0.00    +0.000 N 
ATOM      7  C   UNL     1       3.323   7.069  17.656  0.00  0.00    +0.000 A 
ATOM      8  O   UNL     1       3.749   6.277  16.821  0.00  0.00    +0.000 OA
ATOM      9  H   UNL     1       3.485   8.703  16.478  0.00  0.00    +0.000 HD
ENDROOT
BRANCH   1  12
ATOM     10  C   UNL     1       4.416   4.790  19.473  0.00  0.00    +0.000 C 
ATOM     11  O   UNL     1       4.595   3.594  19.730  0.00  0.00    +0.000 OA
ATOM     12  N   UNL     1       3.123   5.330  19.411  0.00  0.00    +0.000 N 
BRANCH  10  13
ATOM     13  C   UNL     1       5.614   5.742  19.307  0.00  0.00    +0.000 C 
BRANCH  13  14
ATOM     14  S   UNL     1       7.114   4.889  18.725  0.00  0.00    +0.000 S 
BRANCH  14  19
ATOM     15  C   UNL     1       5.703   3.958  13.797  0.00  0.00    +0.000 C 
ATOM     16  C   UNL     1       6.369   4.609  14.948  0.00  0.00    +0.000 A 
ATOM     17  N   UNL     1       7.235   5.604  14.918  0.00  0.00    +0.000 NA
ATOM     18  N   UNL     1       7.634   5.862  16.219  0.00  0.00    +0.000 NA
ATOM     19  C   UNL     1       6.972   5.044  17.009  0.00  0.00    +0.000 A 
ATOM     20  N   UNL     1       6.175   4.221  16.251  0.00  0.00    +0.000 N 
BRANCH  20  21
ATOM     21  N   UNL     1       5.305   3.181  16.700  0.00  0.00    +0.000 N 
ATOM     22  H   UNL     1       4.458   3.160  16.127  0.00  0.00    +0.000 HD
ATOM     23  H   UNL     1       4.993   3.327  17.655  0.00  0.00    +0.000 HD
ENDBRANCH  20  21
ENDBRANCH  14  19
ENDBRANCH  13  14
ENDBRANCH  10  13
BRANCH  12  24
ATOM     24  C   UNL     1       1.947   4.463  19.672  0.00  0.00    +0.000 C 
BRANCH  24  25
ATOM     25  C   UNL     1       1.703   3.453  18.523  0.00  0.00    +0.000 C 
ATOM     26  C   UNL     1       0.773   2.310  18.938  0.00  0.00    +0.000 C 
ATOM     27  C   UNL     1       1.136   4.129  17.274  0.00  0.00    +0.000 C 
ENDBRANCH  24  25
ENDBRANCH  12  24
ENDBRANCH   1  12
BRANCH   2  28
ATOM     28  N   UNL     1       1.688   7.104  20.990  0.00  0.00    +0.000 N 
ATOM     29  H   UNL     1       1.875   6.139  21.232  0.00  0.00    +0.000 HD
ATOM     30  H   UNL     1       1.849   7.728  21.771  0.00  0.00    +0.000 HD
ENDBRANCH   2  28
BRANCH   3  31
ATOM     31  C   UNL     1       0.876   9.626  19.959  0.00  0.00    +0.000 C 
BRANCH  31  32
ATOM     32  C   UNL     1      -0.226  10.186  19.080  0.00  0.00    +0.000 A 
ATOM     33  C   UNL     1      -0.554  11.550  19.128  0.00  0.00    +0.000 A 
ATOM     34  C   UNL     1      -1.476  12.095  18.234  0.00  0.00    +0.000 A 
ATOM     35  C   UNL     1      -2.088  11.284  17.282  0.00  0.00    +0.000 A 
ATOM     36  C   UNL     1      -1.792   9.924  17.235  0.00  0.00    +0.000 A 
ATOM     37  C   UNL     1      -0.867   9.375  18.128  0.00  0.00    +0.000 A 
ENDBRANCH  31  32
ENDBRANCH   3  31
TORSDOF 10
ENDMDL
MODEL 6
REMARK VINA RESULT:      -6.9      2.213      4.205
REMARK  Name = 
REMARK  13 active torsions:
REMARK  status: ('A' for Active; 'I' for Inactive)
REMARK    1  A    between atoms: C_1  and  C_2
REMARK    2  A    between atoms: C_5  and  S_6
REMARK    3  A    between atoms: S_6  and  C_7
REMARK    4  A    between atoms: C_7  and  C_8
REMARK    5  A    between atoms: N_10  and  C_11
REMARK    6  A    between atoms: N_10  and  C_15
REMARK    7  A    between atoms: C_11  and  C_12
REMARK    8  A    between atoms: C_12  and  C_13
REMARK    9  A    between atoms: C_12  and  C_14
REMARK   10  A    between atoms: C_16  and  N_17
REMARK   11  A    between atoms: N_18  and  C_19
REMARK   12  A    between atoms: C_19  and  C_20
REMARK   13  A    between atoms: N_31  and  N_32
REMARK                            x       y       z     vdW  Elec       q    Type
REMARK                         _______ _______ _______ _____ _____    ______ ____
ROOT
ATOM      1  C   UNL     1       2.620   6.825  18.891  0.00  0.00    +0.000 A 
ATOM      2  C   UNL     1       2.131   8.031  18.523  0.00  0.00    +0.000 A 
ATOM      3  N   UNL     1       1.515   8.850  19.458  0.00  0.00    +0.000 N 
ATOM      4  C   UNL     1       1.249   8.428  20.751  0.00  0.00    +0.000 A 
ATOM      5  O   UNL     1       0.737   9.127  21.624  0.00  0.00    +0.000 OA
ATOM      6  N   UNL     1       1.616   7.152  21.059  0.00  0.00    +0.000 N 
ATOM      7  C   UNL     1       2.457   6.393  20.307  0.00  0.00    +0.000 A 
ATOM      8  O   UNL     1       3.078   5.446  20.780  0.00  0.00    +0.000 OA
ATOM      9  H   UNL     1       1.525   6.896  22.029  0.00  0.00    +0.000 HD
ENDROOT
BRANCH   1  12
ATOM     10  C   UNL     1       2.808   4.744  17.584  0.00  0.00    +0.000 C 
ATOM     11  O   UNL     1       3.505   3.985  16.899  0.00  0.00    +0.000 OA
ATOM     12  N   UNL     1       3.300   5.986  18.012  0.00  0.00    +0.000 N 
BRANCH  10  13
ATOM     13  C   UNL     1       1.345   4.388  17.903  0.00  0.00    +0.000 C 
BRANCH  13  14
ATOM     14  S   UNL     1       1.124   2.627  18.312  0.00  0.00    +0.000 S 
BRANCH  14  19
ATOM     15  C   UNL     1       5.256   1.421  21.246  0.00  0.00    +0.000 C 
ATOM     16  C   UNL     1       3.905   1.909  20.891  0.00  0.00    +0.000 A 
ATOM     17  N   UNL     1       2.962   2.332  21.711  0.00  0.00    +0.000 NA
ATOM     18  N   UNL     1       1.847   2.649  20.953  0.00  0.00    +0.000 NA
ATOM     19  C   UNL     1       2.153   2.446  19.690  0.00  0.00    +0.000 A 
ATOM     20  N   UNL     1       3.436   1.961  19.602  0.00  0.00    +0.000 N 
BRANCH  20  21
ATOM     21  N   UNL     1       4.159   1.595  18.426  0.00  0.00    +0.000 N 
ATOM     22  H   UNL     1       5.083   1.239  18.679  0.00  0.00    +0.000 HD
ATOM     23  H   UNL     1       4.323   2.387  17.813  0.00  0.00    +0.000 HD
ENDBRANCH  20  21
ENDBRANCH  14  19
ENDBRANCH  13  14
ENDBRANCH  10  13
BRANCH  12  24
ATOM     24  C   UNL     1       4.671   6.408  17.632  0.00  0.00    +0.000 C 
BRANCH  24  25
ATOM     25  C   UNL     1       5.718   5.300  17.902  0.00  0.00    +0.000 C 
ATOM     26  C   UNL     1       6.845   5.296  16.865  0.00  0.00    +0.000 C 
ATOM     27  C   UNL     1       6.326   5.411  19.300  0.00  0.00    +0.000 C 
ENDBRANCH  24  25
ENDBRANCH  12  24
ENDBRANCH   1  12
BRANCH   2  28
ATOM     28  N   UNL     1       2.282   8.440  17.214  0.00  0.00    +0.000 N 
ATOM     29  H   UNL     1       2.088   7.738  16.512  0.00  0.00    +0.000 HD
ATOM     30  H   UNL     1       1.908   9.345  16.959  0.00  0.00    +0.000 HD
ENDBRANCH   2  28
BRANCH   3  31
ATOM     31  C   UNL     1       1.200  10.247  19.124  0.00  0.00    +0.000 C 
BRANCH  31  32
ATOM     32  C   UNL     1      -0.261  10.510  18.816  0.00  0.00    +0.000 A 
ATOM     33  C   UNL     1      -0.983  11.469  19.542  0.00  0.00    +0.000 A 
ATOM     34  C   UNL     1      -2.288  11.806  19.180  0.00  0.00    +0.000 A 
ATOM     35  C   UNL     1      -2.892  11.186  18.090  0.00  0.00    +0.000 A 
ATOM     36  C   UNL     1      -2.198  10.214  17.372  0.00  0.00    +0.000 A 
ATOM     37  C   UNL     1      -0.890   9.876  17.730  0.00  0.00    +0.000 A 
ENDBRANCH  31  32
ENDBRANCH   3  31
TORSDOF 10
ENDMDL
MODEL 7
REMARK VINA RESULT:      -6.7      7.079      8.982
REMARK  Name = 
REMARK  13 active torsions:
REMARK  status: ('A' for Active; 'I' for Inactive)
REMARK    1  A    between atoms: C_1  and  C_2
REMARK    2  A    between atoms: C_5  and  S_6
REMARK    3  A    between atoms: S_6  and  C_7
REMARK    4  A    between atoms: C_7  and  C_8
REMARK    5  A    between atoms: N_10  and  C_11
REMARK    6  A    between atoms: N_10  and  C_15
REMARK    7  A    between atoms: C_11  and  C_12
REMARK    8  A    between atoms: C_12  and  C_13
REMARK    9  A    between atoms: C_12  and  C_14
REMARK   10  A    between atoms: C_16  and  N_17
REMARK   11  A    between atoms: N_18  and  C_19
REMARK   12  A    between atoms: C_19  and  C_20
REMARK   13  A    between atoms: N_31  and  N_32
REMARK                            x       y       z     vdW  Elec       q    Type
REMARK                         _______ _______ _______ _____ _____    ______ ____
ROOT
ATOM      1  C   UNL     1      -1.709  11.290  18.843  0.00  0.00    +0.000 A 
ATOM      2  C   UNL     1      -2.897  11.932  18.943  0.00  0.00    +0.000 A 
ATOM      3  N   UNL     1      -3.870  11.755  17.970  0.00  0.00    +0.000 N 
ATOM      4  C   UNL     1      -3.633  11.043  16.805  0.00  0.00    +0.000 A 
ATOM      5  O   UNL     1      -4.471  10.832  15.931  0.00  0.00    +0.000 OA
ATOM      6  N   UNL     1      -2.379  10.530  16.655  0.00  0.00    +0.000 N 
ATOM      7  C   UNL     1      -1.470  10.418  17.659  0.00  0.00    +0.000 A 
ATOM      8  O   UNL     1      -0.542   9.616  17.611  0.00  0.00    +0.000 OA
ATOM      9  H   UNL     1      -2.252   9.919  15.863  0.00  0.00    +0.000 HD
ENDROOT
BRANCH   1  12
ATOM     10  C   UNL     1       0.301  12.344  19.802  0.00  0.00    +0.000 C 
ATOM     11  O   UNL     1       1.225  12.305  20.623  0.00  0.00    +0.000 OA
ATOM     12  N   UNL     1      -0.718  11.380  19.816  0.00  0.00    +0.000 N 
BRANCH  10  13
ATOM     13  C   UNL     1       0.191  13.508  18.803  0.00  0.00    +0.000 C 
BRANCH  13  14
ATOM     14  S   UNL     1       0.178  15.137  19.619  0.00  0.00    +0.000 S 
BRANCH  14  19
ATOM     15  C   UNL     1       5.147  16.388  18.681  0.00  0.00    +0.000 C 
ATOM     16  C   UNL     1       3.672  16.406  18.576  0.00  0.00    +0.000 A 
ATOM     17  N   UNL     1       2.927  17.213  17.844  0.00  0.00    +0.000 NA
ATOM     18  N   UNL     1       1.598  16.905  18.085  0.00  0.00    +0.000 NA
ATOM     19  C   UNL     1       1.570  15.896  18.928  0.00  0.00    +0.000 A 
ATOM     20  N   UNL     1       2.854  15.558  19.281  0.00  0.00    +0.000 N 
BRANCH  20  21
ATOM     21  N   UNL     1       3.278  14.532  20.180  0.00  0.00    +0.000 N 
ATOM     22  H   UNL     1       4.271  14.333  20.042  0.00  0.00    +0.000 HD
ATOM     23  H   UNL     1       2.792  13.655  20.019  0.00  0.00    +0.000 HD
ENDBRANCH  20  21
ENDBRANCH  14  19
ENDBRANCH  13  14
ENDBRANCH  10  13
BRANCH  12  24
ATOM     24  C   UNL     1      -0.702  10.302  20.836  0.00  0.00    +0.000 C 
BRANCH  24  25
ATOM     25  C   UNL     1      -0.470  10.855  22.264  0.00  0.00    +0.000 C 
ATOM     26  C   UNL     1      -1.691  11.605  22.804  0.00  0.00    +0.000 C 
ATOM     27  C   UNL     1      -0.083   9.755  23.252  0.00  0.00    +0.000 C 
ENDBRANCH  24  25
ENDBRANCH  12  24
ENDBRANCH   1  12
BRANCH   2  28
ATOM     28  N   UNL     1      -3.128  12.736  20.039  0.00  0.00    +0.000 N 
ATOM     29  H   UNL     1      -2.309  12.985  20.578  0.00  0.00    +0.000 HD
ATOM     30  H   UNL     1      -3.757  13.520  19.921  0.00  0.00    +0.000 HD
ENDBRANCH   2  28
BRANCH   3  31
ATOM     31  C   UNL     1      -5.235  12.252  18.193  0.00  0.00    +0.000 C 
BRANCH  31  32
ATOM     32  C   UNL     1      -6.071  11.406  19.133  0.00  0.00    +0.000 A 
ATOM     33  C   UNL     1      -6.705  11.985  20.243  0.00  0.00    +0.000 A 
ATOM     34  C   UNL     1      -7.577  11.239  21.037  0.00  0.00    +0.000 A 
ATOM     35  C   UNL     1      -7.824   9.902  20.737  0.00  0.00    +0.000 A 
ATOM     36  C   UNL     1      -7.184   9.305  19.654  0.00  0.00    +0.000 A 
ATOM     37  C   UNL     1      -6.313  10.049  18.855  0.00  0.00    +0.000 A 
ENDBRANCH  31  32
ENDBRANCH   3  31
TORSDOF 10
ENDMDL
MODEL 8
REMARK VINA RESULT:      -6.7      6.817      9.093
REMARK  Name = 
REMARK  13 active torsions:
REMARK  status: ('A' for Active; 'I' for Inactive)
REMARK    1  A    between atoms: C_1  and  C_2
REMARK    2  A    between atoms: C_5  and  S_6
REMARK    3  A    between atoms: S_6  and  C_7
REMARK    4  A    between atoms: C_7  and  C_8
REMARK    5  A    between atoms: N_10  and  C_11
REMARK    6  A    between atoms: N_10  and  C_15
REMARK    7  A    between atoms: C_11  and  C_12
REMARK    8  A    between atoms: C_12  and  C_13
REMARK    9  A    between atoms: C_12  and  C_14
REMARK   10  A    between atoms: C_16  and  N_17
REMARK   11  A    between atoms: N_18  and  C_19
REMARK   12  A    between atoms: C_19  and  C_20
REMARK   13  A    between atoms: N_31  and  N_32
REMARK                            x       y       z     vdW  Elec       q    Type
REMARK                         _______ _______ _______ _____ _____    ______ ____
ROOT
ATOM      1  C   UNL     1      -1.391  11.765  19.865  0.00  0.00    +0.000 A 
ATOM      2  C   UNL     1      -2.532  12.283  19.352  0.00  0.00    +0.000 A 
ATOM      3  N   UNL     1      -3.250  11.581  18.397  0.00  0.00    +0.000 N 
ATOM      4  C   UNL     1      -2.778  10.408  17.828  0.00  0.00    +0.000 A 
ATOM      5  O   UNL     1      -3.392   9.733  17.004  0.00  0.00    +0.000 OA
ATOM      6  N   UNL     1      -1.555   9.981  18.251  0.00  0.00    +0.000 N 
ATOM      7  C   UNL     1      -0.921  10.445  19.361  0.00  0.00    +0.000 A 
ATOM      8  O   UNL     1      -0.054   9.794  19.935  0.00  0.00    +0.000 OA
ATOM      9  H   UNL     1      -1.274   9.071  17.920  0.00  0.00    +0.000 HD
ENDROOT
BRANCH   1  12
ATOM     10  C   UNL     1       0.441  13.229  20.622  0.00  0.00    +0.000 C 
ATOM     11  O   UNL     1       1.128  13.665  21.553  0.00  0.00    +0.000 OA
ATOM     12  N   UNL     1      -0.660  12.394  20.869  0.00  0.00    +0.000 N 
BRANCH  10  13
ATOM     13  C   UNL     1       0.716  13.666  19.174  0.00  0.00    +0.000 C 
BRANCH  13  14
ATOM     14  S   UNL     1       2.404  13.257  18.624  0.00  0.00    +0.000 S 
BRANCH  14  19
ATOM     15  C   UNL     1       4.882  17.521  20.304  0.00  0.00    +0.000 C 
ATOM     16  C   UNL     1       4.197  16.592  19.378  0.00  0.00    +0.000 A 
ATOM     17  N   UNL     1       3.883  16.803  18.113  0.00  0.00    +0.000 NA
ATOM     18  N   UNL     1       3.212  15.684  17.648  0.00  0.00    +0.000 NA
ATOM     19  C   UNL     1       3.169  14.808  18.628  0.00  0.00    +0.000 A 
ATOM     20  N   UNL     1       3.761  15.343  19.746  0.00  0.00    +0.000 N 
BRANCH  20  21
ATOM     21  N   UNL     1       3.918  14.742  21.033  0.00  0.00    +0.000 N 
ATOM     22  H   UNL     1       3.923  13.724  20.946  0.00  0.00    +0.000 HD
ATOM     23  H   UNL     1       3.150  14.966  21.657  0.00  0.00    +0.000 HD
ENDBRANCH  20  21
ENDBRANCH  14  19
ENDBRANCH  13  14
ENDBRANCH  10  13
BRANCH  12  24
ATOM     24  C   UNL     1      -1.020  12.038  22.263  0.00  0.00    +0.000 C 
BRANCH  24  25
ATOM     25  C   UNL     1      -2.066  13.010  22.861  0.00  0.00    +0.000 C 
ATOM     26  C   UNL     1      -3.198  12.277  23.585  0.00  0.00    +0.000 C 
ATOM     27  C   UNL     1      -1.433  14.019  23.820  0.00  0.00    +0.000 C 
ENDBRANCH  24  25
ENDBRANCH  12  24
ENDBRANCH   1  12
BRANCH   2  28
ATOM     28  N   UNL     1      -2.977  13.503  19.818  0.00  0.00    +0.000 N 
ATOM     29  H   UNL     1      -3.979  13.590  19.927  0.00  0.00    +0.000 HD
ATOM     30  H   UNL     1      -2.475  13.922  20.590  0.00  0.00    +0.000 HD
ENDBRANCH   2  28
BRANCH   3  31
ATOM     31  C   UNL     1      -4.600  12.020  18.016  0.00  0.00    +0.000 C 
BRANCH  31  32
ATOM     32  C   UNL     1      -5.710  11.504  18.911  0.00  0.00    +0.000 A 
ATOM     33  C   UNL     1      -6.263  10.231  18.703  0.00  0.00    +0.000 A 
ATOM     34  C   UNL     1      -7.192   9.700  19.599  0.00  0.00    +0.000 A 
ATOM     35  C   UNL     1      -7.586  10.436  20.713  0.00  0.00    +0.000 A 
ATOM     36  C   UNL     1      -7.066  11.711  20.922  0.00  0.00    +0.000 A 
ATOM     37  C   UNL     1      -6.133  12.245  20.028  0.00  0.00    +0.000 A 
ENDBRANCH  31  32
ENDBRANCH   3  31
TORSDOF 10
ENDMDL
MODEL 9
REMARK VINA RESULT:      -6.6      6.517     10.188
REMARK  Name = 
REMARK  13 active torsions:
REMARK  status: ('A' for Active; 'I' for Inactive)
REMARK    1  A    between atoms: C_1  and  C_2
REMARK    2  A    between atoms: C_5  and  S_6
REMARK    3  A    between atoms: S_6  and  C_7
REMARK    4  A    between atoms: C_7  and  C_8
REMARK    5  A    between atoms: N_10  and  C_11
REMARK    6  A    between atoms: N_10  and  C_15
REMARK    7  A    between atoms: C_11  and  C_12
REMARK    8  A    between atoms: C_12  and  C_13
REMARK    9  A    between atoms: C_12  and  C_14
REMARK   10  A    between atoms: C_16  and  N_17
REMARK   11  A    between atoms: N_18  and  C_19
REMARK   12  A    between atoms: C_19  and  C_20
REMARK   13  A    between atoms: N_31  and  N_32
REMARK                            x       y       z     vdW  Elec       q    Type
REMARK                         _______ _______ _______ _____ _____    ______ ____
ROOT
ATOM      1  C   UNL     1      -4.516  13.173  21.735  0.00  0.00    +0.000 A 
ATOM      2  C   UNL     1      -4.474  13.039  20.389  0.00  0.00    +0.000 A 
ATOM      3  N   UNL     1      -5.512  12.409  19.717  0.00  0.00    +0.000 N 
ATOM      4  C   UNL     1      -6.550  11.776  20.383  0.00  0.00    +0.000 A 
ATOM      5  O   UNL     1      -7.507  11.235  19.833  0.00  0.00    +0.000 OA
ATOM      6  N   UNL     1      -6.494  11.794  21.745  0.00  0.00    +0.000 N 
ATOM      7  C   UNL     1      -5.683  12.609  22.470  0.00  0.00    +0.000 A 
ATOM      8  O   UNL     1      -5.925  12.897  23.638  0.00  0.00    +0.000 OA
ATOM      9  H   UNL     1      -7.309  11.435  22.217  0.00  0.00    +0.000 HD
ENDROOT
BRANCH   1  12
ATOM     10  C   UNL     1      -2.591  13.206  23.274  0.00  0.00    +0.000 C 
ATOM     11  O   UNL     1      -1.821  13.858  23.987  0.00  0.00    +0.000 OA
ATOM     12  N   UNL     1      -3.536  13.847  22.458  0.00  0.00    +0.000 N 
BRANCH  10  13
ATOM     13  C   UNL     1      -2.471  11.675  23.187  0.00  0.00    +0.000 C 
BRANCH  13  14
ATOM     14  S   UNL     1      -0.756  11.117  22.933  0.00  0.00    +0.000 S 
BRANCH  14  19
ATOM     15  C   UNL     1       0.526   9.701  18.086  0.00  0.00    +0.000 C 
ATOM     16  C   UNL     1      -0.055  10.501  19.187  0.00  0.00    +0.000 A 
ATOM     17  N   UNL     1      -0.665  11.669  19.098  0.00  0.00    +0.000 NA
ATOM     18  N   UNL     1      -1.006  12.071  20.379  0.00  0.00    +0.000 NA
ATOM     19  C   UNL     1      -0.629  11.122  21.208  0.00  0.00    +0.000 A 
ATOM     20  N   UNL     1      -0.008  10.119  20.505  0.00  0.00    +0.000 N 
BRANCH  20  21
ATOM     21  N   UNL     1       0.564   8.912  21.012  0.00  0.00    +0.000 N 
ATOM     22  H   UNL     1       0.354   8.815  22.007  0.00  0.00    +0.000 HD
ATOM     23  H   UNL     1       1.576   8.906  20.937  0.00  0.00    +0.000 HD
ENDBRANCH  20  21
ENDBRANCH  14  19
ENDBRANCH  13  14
ENDBRANCH  10  13
BRANCH  12  24
ATOM     24  C   UNL     1      -3.608  15.329  22.435  0.00  0.00    +0.000 C 
BRANCH  24  25
ATOM     25  C   UNL     1      -4.949  15.855  23.003  0.00  0.00    +0.000 C 
ATOM     26  C   UNL     1      -4.795  16.451  24.405  0.00  0.00    +0.000 C 
ATOM     27  C   UNL     1      -5.593  16.896  22.087  0.00  0.00    +0.000 C 
ENDBRANCH  24  25
ENDBRANCH  12  24
ENDBRANCH   1  12
BRANCH   2  28
ATOM     28  N   UNL     1      -3.400  13.564  19.701  0.00  0.00    +0.000 N 
ATOM     29  H   UNL     1      -2.559  13.704  20.246  0.00  0.00    +0.000 HD
ATOM     30  H   UNL     1      -3.199  13.185  18.785  0.00  0.00    +0.000 HD
ENDBRANCH   2  28
BRANCH   3  31
ATOM     31  C   UNL     1      -5.588  12.473  18.251  0.00  0.00    +0.000 C 
BRANCH  31  32
ATOM     32  C   UNL     1      -4.707  11.473  17.527  0.00  0.00    +0.000 A 
ATOM     33  C   UNL     1      -4.386  11.653  16.173  0.00  0.00    +0.000 A 
ATOM     34  C   UNL     1      -3.475  10.808  15.537  0.00  0.00    +0.000 A 
ATOM     35  C   UNL     1      -2.876   9.769  16.243  0.00  0.00    +0.000 A 
ATOM     36  C   UNL     1      -3.202   9.561  17.581  0.00  0.00    +0.000 A 
ATOM     37  C   UNL     1      -4.112  10.406  18.222  0.00  0.00    +0.000 A 
ENDBRANCH  31  32
ENDBRANCH   3  31
TORSDOF 10
ENDMDL
