MODEL 1
REMARK VINA RESULT:      -8.3      0.000      0.000
REMARK  Name = 
REMARK  3 active torsions:
REMARK  status: ('A' for Active; 'I' for Inactive)
REMARK    1  A    between atoms: C_1  and  C_2
REMARK    2  A    between atoms: C_7  and  C_8
REMARK    3  A    between atoms: C_14  and  N_15
REMARK                            x       y       z     vdW  Elec       q    Type
REMARK                         _______ _______ _______ _____ _____    ______ ____
ROOT
ATOM      1  C   UNL     1       2.170   5.535  20.221  0.00  0.00    +0.000 C 
ATOM      2  O   UNL     1       2.416   5.422  21.426  0.00  0.00    +0.000 OA
ATOM      3  N   UNL     1       2.018   4.401  19.394  0.00  0.00    +0.000 N 
ATOM      4  C   UNL     1       2.032   3.085  20.032  0.00  0.00    +0.000 C 
ATOM      5  C   UNL     1       3.363   2.362  19.884  0.00  0.00    +0.000 C 
ATOM      6  C   UNL     1       3.680   1.897  18.458  0.00  0.00    +0.000 C 
ATOM      7  C   UNL     1       3.795   3.026  17.413  0.00  0.00    +0.000 C 
ATOM      8  C   UNL     1       2.383   3.517  17.032  0.00  0.00    +0.000 C 
ATOM      9  C   UNL     1       1.621   4.434  17.989  0.00  0.00    +0.000 C 
ENDROOT
BRANCH   1  16
ATOM     10  C   UNL     1       0.533  13.147  18.656  0.00  0.00    +0.000 C 
ATOM     11  C   UNL     1       0.779  11.754  19.156  0.00  0.00    +0.000 A 
ATOM     12  C   UNL     1       0.318  11.342  20.406  0.00  0.00    +0.000 A 
ATOM     13  C   UNL     1       0.514  10.021  20.825  0.00  0.00    +0.000 A 
ATOM     14  C   UNL     1       1.159   9.088  20.028  0.00  0.00    +0.000 A 
ATOM     15  N   UNL     1       1.295   7.824  20.463  0.00  0.00    +0.000 NA
ATOM     16  C   UNL     1       1.979   6.937  19.706  0.00  0.00    +0.000 A 
ATOM     17  C   UNL     1       2.491   7.264  18.456  0.00  0.00    +0.000 A 
ATOM     18  C   UNL     1       2.329   8.567  17.992  0.00  0.00    +0.000 A 
ATOM     19  C   UNL     1       1.658   9.509  18.781  0.00  0.00    +0.000 A 
ATOM     20  C   UNL     1       1.467  10.836  18.355  0.00  0.00    +0.000 A 
ENDBRANCH   1  16
BRANCH   7  21
ATOM     21  N   UNL     1       4.783   4.041  17.800  0.00  0.00    +0.000 N 
ATOM     22  C   UNL     1       5.502   3.962  19.055  0.00  0.00    +0.000 C 
ATOM     23  C   UNL     1       6.199   5.297  19.132  0.00  0.00    +0.000 C 
ATOM     24  C   UNL     1       6.610   5.528  17.684  0.00  0.00    +0.000 C 
ATOM     25  C   UNL     1       5.575   4.755  16.893  0.00  0.00    +0.000 C 
ATOM     26  O   UNL     1       5.522   4.712  15.672  0.00  0.00    +0.000 OA
ENDBRANCH   7  21
TORSDOF 2
ENDMDL
MODEL 2
REMARK VINA RESULT:      -8.2      0.854      1.559
REMARK  Name = 
REMARK  3 active torsions:
REMARK  status: ('A' for Active; 'I' for Inactive)
REMARK    1  A    between atoms: C_1  and  C_2
REMARK    2  A    between atoms: C_7  and  C_8
REMARK    3  A    between atoms: C_14  and  N_15
REMARK                            x       y       z     vdW  Elec       q    Type
REMARK                         _______ _______ _______ _____ _____    ______ ____
ROOT
ATOM      1  C   UNL     1       2.101   4.991  20.563  0.00  0.00    +0.000 C 
ATOM      2  O   UNL     1       2.438   4.623  21.693  0.00  0.00    +0.000 OA
ATOM      3  N   UNL     1       1.991   4.073  19.495  0.00  0.00    +0.000 N 
ATOM      4  C   UNL     1       2.161   2.652  19.797  0.00  0.00    +0.000 C 
ATOM      5  C   UNL     1       3.536   2.121  19.419  0.00  0.00    +0.000 C 
ATOM      6  C   UNL     1       3.793   2.037  17.909  0.00  0.00    +0.000 C 
ATOM      7  C   UNL     1       3.740   3.386  17.162  0.00  0.00    +0.000 C 
ATOM      8  C   UNL     1       2.268   3.809  16.975  0.00  0.00    +0.000 C 
ATOM      9  C   UNL     1       1.497   4.395  18.159  0.00  0.00    +0.000 C 
ENDROOT
BRANCH   1  16
ATOM     10  C   UNL     1       0.970  12.607  18.616  0.00  0.00    +0.000 C 
ATOM     11  C   UNL     1       1.259  11.144  18.780  0.00  0.00    +0.000 A 
ATOM     12  C   UNL     1       2.010  10.444  17.836  0.00  0.00    +0.000 A 
ATOM     13  C   UNL     1       2.310   9.092  18.040  0.00  0.00    +0.000 A 
ATOM     14  C   UNL     1       1.885   8.410  19.170  0.00  0.00    +0.000 A 
ATOM     15  N   UNL     1       2.226   7.122  19.335  0.00  0.00    +0.000 NA
ATOM     16  C   UNL     1       1.756   6.448  20.409  0.00  0.00    +0.000 A 
ATOM     17  C   UNL     1       0.986   7.059  21.391  0.00  0.00    +0.000 A 
ATOM     18  C   UNL     1       0.652   8.402  21.236  0.00  0.00    +0.000 A 
ATOM     19  C   UNL     1       1.098   9.104  20.109  0.00  0.00    +0.000 A 
ATOM     20  C   UNL     1       0.789  10.461  19.908  0.00  0.00    +0.000 A 
ENDBRANCH   1  16
BRANCH   7  21
ATOM     21  N   UNL     1       4.661   4.375  17.736  0.00  0.00    +0.000 N 
ATOM     22  C   UNL     1       5.569   4.033  18.812  0.00  0.00    +0.000 C 
ATOM     23  C   UNL     1       6.123   5.372  19.227  0.00  0.00    +0.000 C 
ATOM     24  C   UNL     1       6.279   6.084  17.890  0.00  0.00    +0.000 C 
ATOM     25  C   UNL     1       5.223   5.437  17.018  0.00  0.00    +0.000 C 
ATOM     26  O   UNL     1       4.988   5.752  15.860  0.00  0.00    +0.000 OA
ENDBRANCH   7  21
TORSDOF 2
ENDMDL
MODEL 3
REMARK VINA RESULT:      -8.0      3.066      8.134
REMARK  Name = 
REMARK  3 active torsions:
REMARK  status: ('A' for Active; 'I' for Inactive)
REMARK    1  A    between atoms: C_1  and  C_2
REMARK    2  A    between atoms: C_7  and  C_8
REMARK    3  A    between atoms: C_14  and  N_15
REMARK                            x       y       z     vdW  Elec       q    Type
REMARK                         _______ _______ _______ _____ _____    ______ ____
ROOT
ATOM      1  C   UNL     1       0.009   9.342  21.253  0.00  0.00    +0.000 C 
ATOM      2  O   UNL     1      -0.779   8.510  21.715  0.00  0.00    +0.000 OA
ATOM      3  N   UNL     1       0.067  10.658  21.762  0.00  0.00    +0.000 N 
ATOM      4  C   UNL     1      -0.742  10.971  22.939  0.00  0.00    +0.000 C 
ATOM      5  C   UNL     1      -2.024  11.719  22.603  0.00  0.00    +0.000 C 
ATOM      6  C   UNL     1      -1.812  13.158  22.117  0.00  0.00    +0.000 C 
ATOM      7  C   UNL     1      -0.995  13.295  20.816  0.00  0.00    +0.000 C 
ATOM      8  C   UNL     1       0.502  13.088  21.128  0.00  0.00    +0.000 C 
ATOM      9  C   UNL     1       1.035  11.673  21.355  0.00  0.00    +0.000 C 
ENDROOT
BRANCH   1  16
ATOM     10  C   UNL     1       5.158   5.763  16.380  0.00  0.00    +0.000 C 
ATOM     11  C   UNL     1       4.191   6.254  17.417  0.00  0.00    +0.000 A 
ATOM     12  C   UNL     1       3.996   5.561  18.611  0.00  0.00    +0.000 A 
ATOM     13  C   UNL     1       3.128   6.069  19.584  0.00  0.00    +0.000 A 
ATOM     14  C   UNL     1       2.445   7.262  19.404  0.00  0.00    +0.000 A 
ATOM     15  N   UNL     1       1.647   7.724  20.381  0.00  0.00    +0.000 NA
ATOM     16  C   UNL     1       0.938   8.856  20.173  0.00  0.00    +0.000 A 
ATOM     17  C   UNL     1       1.055   9.603  19.007  0.00  0.00    +0.000 A 
ATOM     18  C   UNL     1       1.900   9.140  18.003  0.00  0.00    +0.000 A 
ATOM     19  C   UNL     1       2.612   7.948  18.186  0.00  0.00    +0.000 A 
ATOM     20  C   UNL     1       3.480   7.440  17.202  0.00  0.00    +0.000 A 
ENDBRANCH   1  16
BRANCH   7  21
ATOM     21  N   UNL     1      -1.570  12.514  19.714  0.00  0.00    +0.000 N 
ATOM     22  C   UNL     1      -2.994  12.260  19.626  0.00  0.00    +0.000 C 
ATOM     23  C   UNL     1      -3.090  11.250  18.510  0.00  0.00    +0.000 C 
ATOM     24  C   UNL     1      -2.037  11.751  17.531  0.00  0.00    +0.000 C 
ATOM     25  C   UNL     1      -1.044  12.474  18.418  0.00  0.00    +0.000 C 
ATOM     26  O   UNL     1      -0.012  13.000  18.022  0.00  0.00    +0.000 OA
ENDBRANCH   7  21
TORSDOF 2
ENDMDL
MODEL 4
REMARK VINA RESULT:      -7.4      1.737      3.790
REMARK  Name = 
REMARK  3 active torsions:
REMARK  status: ('A' for Active; 'I' for Inactive)
REMARK    1  A    between atoms: C_1  and  C_2
REMARK    2  A    between atoms: C_7  and  C_8
REMARK    3  A    between atoms: C_14  and  N_15
REMARK                            x       y       z     vdW  Elec       q    Type
REMARK                         _______ _______ _______ _____ _____    ______ ____
ROOT
ATOM      1  C   UNL     1       3.118   7.440  17.804  0.00  0.00    +0.000 C 
ATOM      2  O   UNL     1       2.741   7.791  16.681  0.00  0.00    +0.000 OA
ATOM      3  N   UNL     1       4.297   6.683  17.979  0.00  0.00    +0.000 N 
ATOM      4  C   UNL     1       5.129   6.435  16.802  0.00  0.00    +0.000 C 
ATOM      5  C   UNL     1       4.946   5.040  16.222  0.00  0.00    +0.000 C 
ATOM      6  C   UNL     1       5.497   3.909  17.099  0.00  0.00    +0.000 C 
ATOM      7  C   UNL     1       4.841   3.782  18.489  0.00  0.00    +0.000 C 
ATOM      8  C   UNL     1       5.389   4.885  19.417  0.00  0.00    +0.000 C 
ATOM      9  C   UNL     1       4.876   6.318  19.269  0.00  0.00    +0.000 C 
ENDROOT
BRANCH   1  16
ATOM     10  C   UNL     1      -1.394  11.085  23.229  0.00  0.00    +0.000 C 
ATOM     11  C   UNL     1      -0.600  10.558  22.070  0.00  0.00    +0.000 A 
ATOM     12  C   UNL     1      -0.382  11.333  20.931  0.00  0.00    +0.000 A 
ATOM     13  C   UNL     1       0.407  10.838  19.887  0.00  0.00    +0.000 A 
ATOM     14  C   UNL     1       0.996   9.584  19.944  0.00  0.00    +0.000 A 
ATOM     15  N   UNL     1       1.771   9.167  18.929  0.00  0.00    +0.000 NA
ATOM     16  C   UNL     1       2.290   7.920  18.967  0.00  0.00    +0.000 A 
ATOM     17  C   UNL     1       2.110   7.071  20.052  0.00  0.00    +0.000 A 
ATOM     18  C   UNL     1       1.328   7.510  21.117  0.00  0.00    +0.000 A 
ATOM     19  C   UNL     1       0.750   8.785  21.077  0.00  0.00    +0.000 A 
ATOM     20  C   UNL     1      -0.046   9.275  22.128  0.00  0.00    +0.000 A 
ENDBRANCH   1  16
BRANCH   7  21
ATOM     21  N   UNL     1       3.383   3.634  18.403  0.00  0.00    +0.000 N 
ATOM     22  C   UNL     1       2.709   3.474  17.130  0.00  0.00    +0.000 C 
ATOM     23  C   UNL     1       1.253   3.601  17.498  0.00  0.00    +0.000 C 
ATOM     24  C   UNL     1       1.193   2.869  18.832  0.00  0.00    +0.000 C 
ATOM     25  C   UNL     1       2.593   3.029  19.388  0.00  0.00    +0.000 C 
ATOM     26  O   UNL     1       2.961   2.611  20.477  0.00  0.00    +0.000 OA
ENDBRANCH   7  21
TORSDOF 2
ENDMDL
MODEL 5
REMARK VINA RESULT:      -7.2      9.374     11.341
REMARK  Name = 
REMARK  3 active torsions:
REMARK  status: ('A' for Active; 'I' for Inactive)
REMARK    1  A    between atoms: C_1  and  C_2
REMARK    2  A    between atoms: C_7  and  C_8
REMARK    3  A    between atoms: C_14  and  N_15
REMARK                            x       y       z     vdW  Elec       q    Type
REMARK                         _______ _______ _______ _____ _____    ______ ____
ROOT
ATOM      1  C   UNL     1       8.652  15.631  19.908  0.00  0.00    +0.000 C 
ATOM      2  O   UNL     1       7.700  15.933  19.180  0.00  0.00    +0.000 OA
ATOM      3  N   UNL     1       9.986  15.786  19.473  0.00  0.00    +0.000 N 
ATOM      4  C   UNL     1      10.212  16.437  18.182  0.00  0.00    +0.000 C 
ATOM      5  C   UNL     1      10.514  15.454  17.061  0.00  0.00    +0.000 C 
ATOM      6  C   UNL     1      11.876  14.758  17.175  0.00  0.00    +0.000 C 
ATOM      7  C   UNL     1      12.063  13.892  18.438  0.00  0.00    +0.000 C 
ATOM      8  C   UNL     1      12.332  14.807  19.650  0.00  0.00    +0.000 C 
ATOM      9  C   UNL     1      11.170  15.561  20.298  0.00  0.00    +0.000 C 
ENDROOT
BRANCH   1  16
ATOM     10  C   UNL     1       7.027  11.902  26.729  0.00  0.00    +0.000 C 
ATOM     11  C   UNL     1       7.406  12.413  25.370  0.00  0.00    +0.000 A 
ATOM     12  C   UNL     1       7.732  11.539  24.333  0.00  0.00    +0.000 A 
ATOM     13  C   UNL     1       8.030  12.040  23.061  0.00  0.00    +0.000 A 
ATOM     14  C   UNL     1       8.009  13.399  22.785  0.00  0.00    +0.000 A 
ATOM     15  N   UNL     1       8.272  13.827  21.540  0.00  0.00    +0.000 NA
ATOM     16  C   UNL     1       8.309  15.156  21.295  0.00  0.00    +0.000 A 
ATOM     17  C   UNL     1       8.016  16.101  22.270  0.00  0.00    +0.000 A 
ATOM     18  C   UNL     1       7.718  15.658  23.556  0.00  0.00    +0.000 A 
ATOM     19  C   UNL     1       7.715  14.286  23.837  0.00  0.00    +0.000 A 
ATOM     20  C   UNL     1       7.418  13.790  25.120  0.00  0.00    +0.000 A 
ENDBRANCH   1  16
BRANCH   7  21
ATOM     21  N   UNL     1      11.011  12.878  18.577  0.00  0.00    +0.000 N 
ATOM     22  C   UNL     1      10.246  12.416  17.435  0.00  0.00    +0.000 C 
ATOM     23  C   UNL     1       9.157  11.589  18.070  0.00  0.00    +0.000 C 
ATOM     24  C   UNL     1       9.899  10.894  19.204  0.00  0.00    +0.000 C 
ATOM     25  C   UNL     1      11.026  11.852  19.529  0.00  0.00    +0.000 C 
ATOM     26  O   UNL     1      11.846  11.684  20.421  0.00  0.00    +0.000 OA
ENDBRANCH   7  21
TORSDOF 2
ENDMDL
MODEL 6
REMARK VINA RESULT:      -7.2      7.106     10.987
REMARK  Name = 
REMARK  3 active torsions:
REMARK  status: ('A' for Active; 'I' for Inactive)
REMARK    1  A    between atoms: C_1  and  C_2
REMARK    2  A    between atoms: C_7  and  C_8
REMARK    3  A    between atoms: C_14  and  N_15
REMARK                            x       y       z     vdW  Elec       q    Type
REMARK                         _______ _______ _______ _____ _____    ______ ____
ROOT
ATOM      1  C   UNL     1      -1.358  12.603  22.263  0.00  0.00    +0.000 C 
ATOM      2  O   UNL     1      -1.111  11.839  23.201  0.00  0.00    +0.000 OA
ATOM      3  N   UNL     1      -1.466  13.998  22.461  0.00  0.00    +0.000 N 
ATOM      4  C   UNL     1      -1.149  14.524  23.788  0.00  0.00    +0.000 C 
ATOM      5  C   UNL     1      -2.385  14.840  24.618  0.00  0.00    +0.000 C 
ATOM      6  C   UNL     1      -3.199  16.039  24.116  0.00  0.00    +0.000 C 
ATOM      7  C   UNL     1      -3.781  15.884  22.696  0.00  0.00    +0.000 C 
ATOM      8  C   UNL     1      -2.660  16.101  21.658  0.00  0.00    +0.000 C 
ATOM      9  C   UNL     1      -1.647  14.985  21.400  0.00  0.00    +0.000 C 
ENDROOT
BRANCH   1  16
ATOM     10  C   UNL     1      -3.158   9.840  15.039  0.00  0.00    +0.000 C 
ATOM     11  C   UNL     1      -2.995  10.487  16.382  0.00  0.00    +0.000 A 
ATOM     12  C   UNL     1      -4.012  11.261  16.941  0.00  0.00    +0.000 A 
ATOM     13  C   UNL     1      -3.856  11.809  18.218  0.00  0.00    +0.000 A 
ATOM     14  C   UNL     1      -2.706  11.605  18.967  0.00  0.00    +0.000 A 
ATOM     15  N   UNL     1      -2.617  12.127  20.201  0.00  0.00    +0.000 NA
ATOM     16  C   UNL     1      -1.469  11.975  20.899  0.00  0.00    +0.000 A 
ATOM     17  C   UNL     1      -0.397  11.236  20.415  0.00  0.00    +0.000 A 
ATOM     18  C   UNL     1      -0.496  10.673  19.146  0.00  0.00    +0.000 A 
ATOM     19  C   UNL     1      -1.663  10.854  18.393  0.00  0.00    +0.000 A 
ATOM     20  C   UNL     1      -1.813  10.304  17.107  0.00  0.00    +0.000 A 
ENDBRANCH   1  16
BRANCH   7  21
ATOM     21  N   UNL     1      -4.603  14.676  22.561  0.00  0.00    +0.000 N 
ATOM     22  C   UNL     1      -5.422  14.189  23.654  0.00  0.00    +0.000 C 
ATOM     23  C   UNL     1      -5.880  12.840  23.159  0.00  0.00    +0.000 C 
ATOM     24  C   UNL     1      -6.130  13.108  21.680  0.00  0.00    +0.000 C 
ATOM     25  C   UNL     1      -5.187  14.250  21.362  0.00  0.00    +0.000 C 
ATOM     26  O   UNL     1      -5.047  14.749  20.254  0.00  0.00    +0.000 OA
ENDBRANCH   7  21
TORSDOF 2
ENDMDL
MODEL 7
REMARK VINA RESULT:      -7.2      9.010     10.748
REMARK  Name = 
REMARK  3 active torsions:
REMARK  status: ('A' for Active; 'I' for Inactive)
REMARK    1  A    between atoms: C_1  and  C_2
REMARK    2  A    between atoms: C_7  and  C_8
REMARK    3  A    between atoms: C_14  and  N_15
REMARK                            x       y       z     vdW  Elec       q    Type
REMARK                         _______ _______ _______ _____ _____    ______ ____
ROOT
ATOM      1  C   UNL     1       7.653  14.676  20.759  0.00  0.00    +0.000 C 
ATOM      2  O   UNL     1       6.631  14.886  20.098  0.00  0.00    +0.000 OA
ATOM      3  N   UNL     1       8.885  15.275  20.416  0.00  0.00    +0.000 N 
ATOM      4  C   UNL     1       8.888  16.255  19.330  0.00  0.00    +0.000 C 
ATOM      5  C   UNL     1       9.397  15.688  18.013  0.00  0.00    +0.000 C 
ATOM      6  C   UNL     1      10.896  15.366  17.996  0.00  0.00    +0.000 C 
ATOM      7  C   UNL     1      11.346  14.299  19.014  0.00  0.00    +0.000 C 
ATOM      8  C   UNL     1      11.410  14.929  20.421  0.00  0.00    +0.000 C 
ATOM      9  C   UNL     1      10.115  15.172  21.197  0.00  0.00    +0.000 C 
ENDROOT
BRANCH   1  16
ATOM     10  C   UNL     1       6.031  11.056  27.639  0.00  0.00    +0.000 C 
ATOM     11  C   UNL     1       6.177  11.878  26.393  0.00  0.00    +0.000 A 
ATOM     12  C   UNL     1       5.539  13.111  26.260  0.00  0.00    +0.000 A 
ATOM     13  C   UNL     1       5.734  13.882  25.108  0.00  0.00    +0.000 A 
ATOM     14  C   UNL     1       6.559  13.460  24.076  0.00  0.00    +0.000 A 
ATOM     15  N   UNL     1       6.738  14.251  23.005  0.00  0.00    +0.000 NA
ATOM     16  C   UNL     1       7.494  13.805  21.977  0.00  0.00    +0.000 A 
ATOM     17  C   UNL     1       8.153  12.582  22.013  0.00  0.00    +0.000 A 
ATOM     18  C   UNL     1       7.989  11.772  23.133  0.00  0.00    +0.000 A 
ATOM     19  C   UNL     1       7.177  12.201  24.190  0.00  0.00    +0.000 A 
ATOM     20  C   UNL     1       6.981  11.419  25.343  0.00  0.00    +0.000 A 
ENDBRANCH   1  16
BRANCH   7  21
ATOM     21  N   UNL     1      10.600  13.043  18.870  0.00  0.00    +0.000 N 
ATOM     22  C   UNL     1       9.968  12.675  17.619  0.00  0.00    +0.000 C 
ATOM     23  C   UNL     1       9.143  11.470  17.997  0.00  0.00    +0.000 C 
ATOM     24  C   UNL     1      10.058  10.749  18.978  0.00  0.00    +0.000 C 
ATOM     25  C   UNL     1      10.898  11.865  19.565  0.00  0.00    +0.000 C 
ATOM     26  O   UNL     1      11.745  11.714  20.435  0.00  0.00    +0.000 OA
ENDBRANCH   7  21
TORSDOF 2
ENDMDL
MODEL 8
REMARK VINA RESULT:      -7.1      9.264     11.310
REMARK  Name = 
REMARK  3 active torsions:
REMARK  status: ('A' for Active; 'I' for Inactive)
REMARK    1  A    between atoms: C_1  and  C_2
REMARK    2  A    between atoms: C_7  and  C_8
REMARK    3  A    between atoms: C_14  and  N_15
REMARK                            x       y       z     vdW  Elec       q    Type
REMARK                         _______ _______ _______ _____ _____    ______ ____
ROOT
ATOM      1  C   UNL     1       8.237  15.532  18.992  0.00  0.00    +0.000 C 
ATOM      2  O   UNL     1       7.499  15.622  18.006  0.00  0.00    +0.000 OA
ATOM      3  N   UNL     1       9.542  16.073  18.983  0.00  0.00    +0.000 N 
ATOM      4  C   UNL     1       9.948  16.856  17.816  0.00  0.00    +0.000 C 
ATOM      5  C   UNL     1      10.829  16.078  16.850  0.00  0.00    +0.000 C 
ATOM      6  C   UNL     1      12.234  15.767  17.380  0.00  0.00    +0.000 C 
ATOM      7  C   UNL     1      12.274  14.890  18.649  0.00  0.00    +0.000 C 
ATOM      8  C   UNL     1      11.907  15.749  19.876  0.00  0.00    +0.000 C 
ATOM      9  C   UNL     1      10.443  16.111  20.131  0.00  0.00    +0.000 C 
ENDROOT
BRANCH   1  16
ATOM     10  C   UNL     1       6.176  11.273  25.369  0.00  0.00    +0.000 C 
ATOM     11  C   UNL     1       6.757  11.975  24.178  0.00  0.00    +0.000 A 
ATOM     12  C   UNL     1       7.953  11.549  23.600  0.00  0.00    +0.000 A 
ATOM     13  C   UNL     1       8.446  12.189  22.457  0.00  0.00    +0.000 A 
ATOM     14  C   UNL     1       7.776  13.248  21.863  0.00  0.00    +0.000 A 
ATOM     15  N   UNL     1       8.274  13.808  20.749  0.00  0.00    +0.000 NA
ATOM     16  C   UNL     1       7.647  14.878  20.213  0.00  0.00    +0.000 A 
ATOM     17  C   UNL     1       6.461  15.383  20.733  0.00  0.00    +0.000 A 
ATOM     18  C   UNL     1       5.928  14.788  21.873  0.00  0.00    +0.000 A 
ATOM     19  C   UNL     1       6.587  13.703  22.465  0.00  0.00    +0.000 A 
ATOM     20  C   UNL     1       6.088  13.067  23.616  0.00  0.00    +0.000 A 
ENDBRANCH   1  16
BRANCH   7  21
ATOM     21  N   UNL     1      11.554  13.623  18.471  0.00  0.00    +0.000 N 
ATOM     22  C   UNL     1      11.603  12.891  17.220  0.00  0.00    +0.000 C 
ATOM     23  C   UNL     1      10.558  11.821  17.413  0.00  0.00    +0.000 C 
ATOM     24  C   UNL     1      10.751  11.442  18.875  0.00  0.00    +0.000 C 
ATOM     25  C   UNL     1      11.309  12.704  19.498  0.00  0.00    +0.000 C 
ATOM     26  O   UNL     1      11.572  12.837  20.686  0.00  0.00    +0.000 OA
ENDBRANCH   7  21
TORSDOF 2
ENDMDL
MODEL 9
REMARK VINA RESULT:      -7.1      7.786     11.651
REMARK  Name = 
REMARK  3 active torsions:
REMARK  status: ('A' for Active; 'I' for Inactive)
REMARK    1  A    between atoms: C_1  and  C_2
REMARK    2  A    between atoms: C_7  and  C_8
REMARK    3  A    between atoms: C_14  and  N_15
REMARK                            x       y       z     vdW  Elec       q    Type
REMARK                         _______ _______ _______ _____ _____    ______ ____
ROOT
ATOM      1  C   UNL     1      -2.803  12.882  21.978  0.00  0.00    +0.000 C 
ATOM      2  O   UNL     1      -2.601  12.141  22.945  0.00  0.00    +0.000 OA
ATOM      3  N   UNL     1      -3.154  14.239  22.155  0.00  0.00    +0.000 N 
ATOM      4  C   UNL     1      -3.144  14.774  23.517  0.00  0.00    +0.000 C 
ATOM      5  C   UNL     1      -4.533  14.880  24.129  0.00  0.00    +0.000 C 
ATOM      6  C   UNL     1      -5.426  15.954  23.498  0.00  0.00    +0.000 C 
ATOM      7  C   UNL     1      -5.736  15.750  22.001  0.00  0.00    +0.000 C 
ATOM      8  C   UNL     1      -4.506  16.158  21.163  0.00  0.00    +0.000 C 
ATOM      9  C   UNL     1      -3.306  15.214  21.079  0.00  0.00    +0.000 C 
ENDROOT
BRANCH   1  16
ATOM     10  C   UNL     1      -2.969   9.996  14.582  0.00  0.00    +0.000 C 
ATOM     11  C   UNL     1      -3.132  10.629  15.932  0.00  0.00    +0.000 A 
ATOM     12  C   UNL     1      -4.353  11.170  16.335  0.00  0.00    +0.000 A 
ATOM     13  C   UNL     1      -4.492  11.706  17.620  0.00  0.00    +0.000 A 
ATOM     14  C   UNL     1      -3.443  11.717  18.527  0.00  0.00    +0.000 A 
ATOM     15  N   UNL     1      -3.636  12.215  19.759  0.00  0.00    +0.000 NA
ATOM     16  C   UNL     1      -2.592  12.278  20.615  0.00  0.00    +0.000 A 
ATOM     17  C   UNL     1      -1.335  11.781  20.294  0.00  0.00    +0.000 A 
ATOM     18  C   UNL     1      -1.139  11.241  19.025  0.00  0.00    +0.000 A 
ATOM     19  C   UNL     1      -2.199  11.205  18.112  0.00  0.00    +0.000 A 
ATOM     20  C   UNL     1      -2.051  10.667  16.820  0.00  0.00    +0.000 A 
ENDBRANCH   1  16
BRANCH   7  21
ATOM     21  N   UNL     1      -6.332  14.435  21.731  0.00  0.00    +0.000 N 
ATOM     22  C   UNL     1      -7.236  13.804  22.672  0.00  0.00    +0.000 C 
ATOM     23  C   UNL     1      -7.395  12.415  22.109  0.00  0.00    +0.000 C 
ATOM     24  C   UNL     1      -7.434  12.678  20.609  0.00  0.00    +0.000 C 
ATOM     25  C   UNL     1      -6.636  13.955  20.452  0.00  0.00    +0.000 C 
ATOM     26  O   UNL     1      -6.392  14.496  19.382  0.00  0.00    +0.000 OA
ENDBRANCH   7  21
TORSDOF 2
ENDMDL
