MODEL 1
REMARK VINA RESULT:      -7.4      0.000      0.000
REMARK  Name = 
REMARK  9 active torsions:
REMARK  status: ('A' for Active; 'I' for Inactive)
REMARK    1  A    between atoms: C_1  and  C_2
REMARK    2  A    between atoms: C_2  and  C_4
REMARK    3  A    between atoms: C_5  and  C_6
REMARK    4  A    between atoms: C_7  and  O_8
REMARK    5  A    between atoms: O_8  and  C_9
REMARK    6  A    between atoms: C_10  and  C_11
REMARK    7  A    between atoms: C_13  and  C_14
REMARK    8  A    between atoms: C_14  and  C_15
REMARK    9  A    between atoms: C_18  and  C_19
REMARK                            x       y       z     vdW  Elec       q    Type
REMARK                         _______ _______ _______ _____ _____    ______ ____
ROOT
ATOM      1  C   UNL     1       3.410   4.850  19.287  0.00  0.00    +0.000 A 
ATOM      2  C   UNL     1       2.543   5.721  19.875  0.00  0.00    +0.000 A 
ATOM      3  N   UNL     1       1.359   5.335  20.475  0.00  0.00    +0.000 NA
ATOM      4  C   UNL     1       1.144   4.082  20.645  0.00  0.00    +0.000 A 
ATOM      5  N   UNL     1       1.945   3.108  20.156  0.00  0.00    +0.000 N 
ATOM      6  C   UNL     1       3.001   3.406  19.355  0.00  0.00    +0.000 A 
ATOM      7  O   UNL     1       3.596   2.517  18.753  0.00  0.00    +0.000 OA
ATOM      8  H   UNL     1       1.691   2.134  20.226  0.00  0.00    +0.000 HD
ENDROOT
BRANCH   1  10
ATOM      9  C   UNL     1       5.881   5.263  19.270  0.00  0.00    +0.000 C 
ATOM     10  C   UNL     1       4.693   5.133  18.660  0.00  0.00    +0.000 C 
BRANCH   9  12
ATOM     11  C   UNL     1       7.481   6.800  18.029  0.00  0.00    +0.000 C 
ATOM     12  C   UNL     1       7.136   5.405  18.475  0.00  0.00    +0.000 C 
ATOM     13  O   UNL     1       7.852   4.443  18.213  0.00  0.00    +0.000 OA
ENDBRANCH   9  12
ENDBRANCH   1  10
BRANCH   2  14
ATOM     14  O   UNL     1       2.909   7.076  19.973  0.00  0.00    +0.000 OA
BRANCH  14  15
ATOM     15  C   UNL     1       2.000   8.058  19.604  0.00  0.00    +0.000 A 
ATOM     16  C   UNL     1       1.165   8.732  20.519  0.00  0.00    +0.000 A 
ATOM     17  C   UNL     1       1.190   8.519  22.011  0.00  0.00    +0.000 C 
ATOM     18  C   UNL     1       0.203   9.643  20.035  0.00  0.00    +0.000 A 
ATOM     19  C   UNL     1       0.092   9.927  18.673  0.00  0.00    +0.000 A 
ATOM     20  C   UNL     1       1.017   9.350  17.793  0.00  0.00    +0.000 A 
ATOM     21  C   UNL     1       1.981   8.428  18.244  0.00  0.00    +0.000 A 
ATOM     22  C   UNL     1       2.963   7.863  17.255  0.00  0.00    +0.000 C 
BRANCH  19  23
ATOM     23  C   UNL     1      -0.970  10.813  18.097  0.00  0.00    +0.000 C 
ATOM     24  C   UNL     1      -1.160  12.227  18.587  0.00  0.00    +0.000 C 
ATOM     25  O   UNL     1      -1.709  10.370  17.217  0.00  0.00    +0.000 OA
ENDBRANCH  19  23
ENDBRANCH  14  15
ENDBRANCH   2  14
TORSDOF 5
ENDMDL
MODEL 2
REMARK VINA RESULT:      -7.3      3.067      4.631
REMARK  Name = 
REMARK  9 active torsions:
REMARK  status: ('A' for Active; 'I' for Inactive)
REMARK    1  A    between atoms: C_1  and  C_2
REMARK    2  A    between atoms: C_2  and  C_4
REMARK    3  A    between atoms: C_5  and  C_6
REMARK    4  A    between atoms: C_7  and  O_8
REMARK    5  A    between atoms: O_8  and  C_9
REMARK    6  A    between atoms: C_10  and  C_11
REMARK    7  A    between atoms: C_13  and  C_14
REMARK    8  A    between atoms: C_14  and  C_15
REMARK    9  A    between atoms: C_18  and  C_19
REMARK                            x       y       z     vdW  Elec       q    Type
REMARK                         _______ _______ _______ _____ _____    ______ ____
ROOT
ATOM      1  C   UNL     1       5.945   4.536  17.225  0.00  0.00    +0.000 A 
ATOM      2  C   UNL     1       5.138   4.894  18.263  0.00  0.00    +0.000 A 
ATOM      3  N   UNL     1       5.611   5.255  19.511  0.00  0.00    +0.000 NA
ATOM      4  C   UNL     1       6.873   5.431  19.656  0.00  0.00    +0.000 A 
ATOM      5  N   UNL     1       7.786   5.161  18.695  0.00  0.00    +0.000 N 
ATOM      6  C   UNL     1       7.417   4.582  17.522  0.00  0.00    +0.000 A 
ATOM      7  O   UNL     1       8.266   4.155  16.745  0.00  0.00    +0.000 OA
ATOM      8  H   UNL     1       8.776   5.220  18.878  0.00  0.00    +0.000 HD
ENDROOT
BRANCH   1  10
ATOM      9  C   UNL     1       6.140   4.592  14.729  0.00  0.00    +0.000 C 
ATOM     10  C   UNL     1       5.567   4.174  15.867  0.00  0.00    +0.000 C 
BRANCH   9  12
ATOM     11  C   UNL     1       6.835   3.856  12.397  0.00  0.00    +0.000 C 
ATOM     12  C   UNL     1       5.737   4.016  13.413  0.00  0.00    +0.000 C 
ATOM     13  O   UNL     1       4.580   3.679  13.178  0.00  0.00    +0.000 OA
ENDBRANCH   9  12
ENDBRANCH   1  10
BRANCH   2  14
ATOM     14  O   UNL     1       3.754   5.005  18.036  0.00  0.00    +0.000 OA
BRANCH  14  15
ATOM     15  C   UNL     1       3.007   5.899  18.792  0.00  0.00    +0.000 A 
ATOM     16  C   UNL     1       2.820   7.252  18.441  0.00  0.00    +0.000 A 
ATOM     17  C   UNL     1       3.352   7.887  17.182  0.00  0.00    +0.000 C 
ATOM     18  C   UNL     1       2.127   8.105  19.325  0.00  0.00    +0.000 A 
ATOM     19  C   UNL     1       1.583   7.627  20.519  0.00  0.00    +0.000 A 
ATOM     20  C   UNL     1       1.663   6.255  20.787  0.00  0.00    +0.000 A 
ATOM     21  C   UNL     1       2.357   5.380  19.930  0.00  0.00    +0.000 A 
ATOM     22  C   UNL     1       2.385   3.912  20.258  0.00  0.00    +0.000 C 
BRANCH  19  23
ATOM     23  C   UNL     1       0.920   8.507  21.535  0.00  0.00    +0.000 C 
ATOM     24  C   UNL     1      -0.578   8.513  21.708  0.00  0.00    +0.000 C 
ATOM     25  O   UNL     1       1.616   9.249  22.231  0.00  0.00    +0.000 OA
ENDBRANCH  19  23
ENDBRANCH  14  15
ENDBRANCH   2  14
TORSDOF 5
ENDMDL
MODEL 3
REMARK VINA RESULT:      -7.3      2.629      6.527
REMARK  Name = 
REMARK  9 active torsions:
REMARK  status: ('A' for Active; 'I' for Inactive)
REMARK    1  A    between atoms: C_1  and  C_2
REMARK    2  A    between atoms: C_2  and  C_4
REMARK    3  A    between atoms: C_5  and  C_6
REMARK    4  A    between atoms: C_7  and  O_8
REMARK    5  A    between atoms: O_8  and  C_9
REMARK    6  A    between atoms: C_10  and  C_11
REMARK    7  A    between atoms: C_13  and  C_14
REMARK    8  A    between atoms: C_14  and  C_15
REMARK    9  A    between atoms: C_18  and  C_19
REMARK                            x       y       z     vdW  Elec       q    Type
REMARK                         _______ _______ _______ _____ _____    ______ ____
ROOT
ATOM      1  C   UNL     1       3.123   4.733  20.118  0.00  0.00    +0.000 A 
ATOM      2  C   UNL     1       4.356   4.371  19.664  0.00  0.00    +0.000 A 
ATOM      3  N   UNL     1       4.801   3.063  19.617  0.00  0.00    +0.000 NA
ATOM      4  C   UNL     1       3.957   2.125  19.847  0.00  0.00    +0.000 A 
ATOM      5  N   UNL     1       2.687   2.339  20.259  0.00  0.00    +0.000 N 
ATOM      6  C   UNL     1       2.248   3.591  20.552  0.00  0.00    +0.000 A 
ATOM      7  O   UNL     1       1.170   3.756  21.116  0.00  0.00    +0.000 OA
ATOM      8  H   UNL     1       2.084   1.575  20.522  0.00  0.00    +0.000 HD
ENDROOT
BRANCH   1  10
ATOM      9  C   UNL     1       2.493   6.976  19.199  0.00  0.00    +0.000 C 
ATOM     10  C   UNL     1       2.535   6.062  20.181  0.00  0.00    +0.000 C 
BRANCH   9  12
ATOM     11  C   UNL     1       1.584   9.100  18.138  0.00  0.00    +0.000 C 
ATOM     12  C   UNL     1       1.722   8.242  19.367  0.00  0.00    +0.000 C 
ATOM     13  O   UNL     1       1.218   8.560  20.441  0.00  0.00    +0.000 OA
ENDBRANCH   9  12
ENDBRANCH   1  10
BRANCH   2  14
ATOM     14  O   UNL     1       5.191   5.362  19.116  0.00  0.00    +0.000 OA
BRANCH  14  15
ATOM     15  C   UNL     1       5.564   5.279  17.781  0.00  0.00    +0.000 A 
ATOM     16  C   UNL     1       4.716   4.796  16.763  0.00  0.00    +0.000 A 
ATOM     17  C   UNL     1       3.288   4.364  16.976  0.00  0.00    +0.000 C 
ATOM     18  C   UNL     1       5.221   4.657  15.453  0.00  0.00    +0.000 A 
ATOM     19  C   UNL     1       6.527   5.031  15.134  0.00  0.00    +0.000 A 
ATOM     20  C   UNL     1       7.311   5.633  16.126  0.00  0.00    +0.000 A 
ATOM     21  C   UNL     1       6.840   5.775  17.446  0.00  0.00    +0.000 A 
ATOM     22  C   UNL     1       7.719   6.453  18.461  0.00  0.00    +0.000 C 
BRANCH  19  23
ATOM     23  C   UNL     1       7.141   4.818  13.783  0.00  0.00    +0.000 C 
ATOM     24  C   UNL     1       6.585   3.798  12.822  0.00  0.00    +0.000 C 
ATOM     25  O   UNL     1       8.127   5.483  13.461  0.00  0.00    +0.000 OA
ENDBRANCH  19  23
ENDBRANCH  14  15
ENDBRANCH   2  14
TORSDOF 5
ENDMDL
MODEL 4
REMARK VINA RESULT:      -7.2      2.613      6.619
REMARK  Name = 
REMARK  9 active torsions:
REMARK  status: ('A' for Active; 'I' for Inactive)
REMARK    1  A    between atoms: C_1  and  C_2
REMARK    2  A    between atoms: C_2  and  C_4
REMARK    3  A    between atoms: C_5  and  C_6
REMARK    4  A    between atoms: C_7  and  O_8
REMARK    5  A    between atoms: O_8  and  C_9
REMARK    6  A    between atoms: C_10  and  C_11
REMARK    7  A    between atoms: C_13  and  C_14
REMARK    8  A    between atoms: C_14  and  C_15
REMARK    9  A    between atoms: C_18  and  C_19
REMARK                            x       y       z     vdW  Elec       q    Type
REMARK                         _______ _______ _______ _____ _____    ______ ____
ROOT
ATOM      1  C   UNL     1       2.850   4.737  20.192  0.00  0.00    +0.000 A 
ATOM      2  C   UNL     1       4.112   4.588  19.703  0.00  0.00    +0.000 A 
ATOM      3  N   UNL     1       4.828   3.408  19.778  0.00  0.00    +0.000 NA
ATOM      4  C   UNL     1       4.218   2.350  20.170  0.00  0.00    +0.000 A 
ATOM      5  N   UNL     1       2.949   2.343  20.638  0.00  0.00    +0.000 N 
ATOM      6  C   UNL     1       2.261   3.502  20.814  0.00  0.00    +0.000 A 
ATOM      7  O   UNL     1       1.197   3.507  21.425  0.00  0.00    +0.000 OA
ATOM      8  H   UNL     1       2.536   1.509  21.028  0.00  0.00    +0.000 HD
ENDROOT
BRANCH   1  10
ATOM      9  C   UNL     1       2.070   7.007  20.909  0.00  0.00    +0.000 C 
ATOM     10  C   UNL     1       1.990   5.910  20.141  0.00  0.00    +0.000 C 
BRANCH   9  12
ATOM     11  C   UNL     1       0.235   8.567  21.723  0.00  0.00    +0.000 C 
ATOM     12  C   UNL     1       1.209   8.195  20.638  0.00  0.00    +0.000 C 
ATOM     13  O   UNL     1       1.298   8.839  19.596  0.00  0.00    +0.000 OA
ENDBRANCH   9  12
ENDBRANCH   1  10
BRANCH   2  14
ATOM     14  O   UNL     1       4.690   5.655  18.989  0.00  0.00    +0.000 OA
BRANCH  14  15
ATOM     15  C   UNL     1       5.364   5.397  17.803  0.00  0.00    +0.000 A 
ATOM     16  C   UNL     1       6.746   5.619  17.627  0.00  0.00    +0.000 A 
ATOM     17  C   UNL     1       7.675   6.107  18.709  0.00  0.00    +0.000 C 
ATOM     18  C   UNL     1       7.321   5.420  16.354  0.00  0.00    +0.000 A 
ATOM     19  C   UNL     1       6.559   4.963  15.277  0.00  0.00    +0.000 A 
ATOM     20  C   UNL     1       5.221   4.620  15.503  0.00  0.00    +0.000 A 
ATOM     21  C   UNL     1       4.615   4.818  16.759  0.00  0.00    +0.000 A 
ATOM     22  C   UNL     1       3.181   4.406  16.946  0.00  0.00    +0.000 C 
BRANCH  19  23
ATOM     23  C   UNL     1       7.098   4.823  13.885  0.00  0.00    +0.000 C 
ATOM     24  C   UNL     1       6.528   3.812  12.923  0.00  0.00    +0.000 C 
ATOM     25  O   UNL     1       8.033   5.542  13.529  0.00  0.00    +0.000 OA
ENDBRANCH  19  23
ENDBRANCH  14  15
ENDBRANCH   2  14
TORSDOF 5
ENDMDL
MODEL 5
REMARK VINA RESULT:      -7.2      1.928      2.448
REMARK  Name = 
REMARK  9 active torsions:
REMARK  status: ('A' for Active; 'I' for Inactive)
REMARK    1  A    between atoms: C_1  and  C_2
REMARK    2  A    between atoms: C_2  and  C_4
REMARK    3  A    between atoms: C_5  and  C_6
REMARK    4  A    between atoms: C_7  and  O_8
REMARK    5  A    between atoms: O_8  and  C_9
REMARK    6  A    between atoms: C_10  and  C_11
REMARK    7  A    between atoms: C_13  and  C_14
REMARK    8  A    between atoms: C_14  and  C_15
REMARK    9  A    between atoms: C_18  and  C_19
REMARK                            x       y       z     vdW  Elec       q    Type
REMARK                         _______ _______ _______ _____ _____    ______ ____
ROOT
ATOM      1  C   UNL     1       3.637   3.656  18.255  0.00  0.00    +0.000 A 
ATOM      2  C   UNL     1       2.666   4.608  18.175  0.00  0.00    +0.000 A 
ATOM      3  N   UNL     1       1.316   4.321  18.100  0.00  0.00    +0.000 NA
ATOM      4  C   UNL     1       0.941   3.109  18.289  0.00  0.00    +0.000 A 
ATOM      5  N   UNL     1       1.795   2.070  18.430  0.00  0.00    +0.000 N 
ATOM      6  C   UNL     1       3.135   2.240  18.280  0.00  0.00    +0.000 A 
ATOM      7  O   UNL     1       3.881   1.268  18.206  0.00  0.00    +0.000 OA
ATOM      8  H   UNL     1       1.463   1.119  18.479  0.00  0.00    +0.000 HD
ENDROOT
BRANCH   1  10
ATOM      9  C   UNL     1       5.872   4.549  17.561  0.00  0.00    +0.000 C 
ATOM     10  C   UNL     1       5.076   3.836  18.373  0.00  0.00    +0.000 C 
BRANCH   9  12
ATOM     11  C   UNL     1       7.592   5.770  18.979  0.00  0.00    +0.000 C 
ATOM     12  C   UNL     1       7.310   4.764  17.896  0.00  0.00    +0.000 C 
ATOM     13  O   UNL     1       8.209   4.147  17.332  0.00  0.00    +0.000 OA
ENDBRANCH   9  12
ENDBRANCH   1  10
BRANCH   2  14
ATOM     14  O   UNL     1       3.038   5.962  18.277  0.00  0.00    +0.000 OA
BRANCH  14  15
ATOM     15  C   UNL     1       2.373   6.787  19.174  0.00  0.00    +0.000 A 
ATOM     16  C   UNL     1       2.023   6.395  20.483  0.00  0.00    +0.000 A 
ATOM     17  C   UNL     1       2.371   5.062  21.095  0.00  0.00    +0.000 C 
ATOM     18  C   UNL     1       1.260   7.269  21.285  0.00  0.00    +0.000 A 
ATOM     19  C   UNL     1       0.885   8.534  20.827  0.00  0.00    +0.000 A 
ATOM     20  C   UNL     1       1.355   8.958  19.578  0.00  0.00    +0.000 A 
ATOM     21  C   UNL     1       2.108   8.104  18.749  0.00  0.00    +0.000 A 
ATOM     22  C   UNL     1       2.606   8.627  17.429  0.00  0.00    +0.000 C 
BRANCH  19  23
ATOM     23  C   UNL     1      -0.001   9.463  21.600  0.00  0.00    +0.000 C 
ATOM     24  C   UNL     1      -0.055   9.421  23.107  0.00  0.00    +0.000 C 
ATOM     25  O   UNL     1      -0.707  10.266  20.989  0.00  0.00    +0.000 OA
ENDBRANCH  19  23
ENDBRANCH  14  15
ENDBRANCH   2  14
TORSDOF 5
ENDMDL
MODEL 6
REMARK VINA RESULT:      -7.2      1.460      2.369
REMARK  Name = 
REMARK  9 active torsions:
REMARK  status: ('A' for Active; 'I' for Inactive)
REMARK    1  A    between atoms: C_1  and  C_2
REMARK    2  A    between atoms: C_2  and  C_4
REMARK    3  A    between atoms: C_5  and  C_6
REMARK    4  A    between atoms: C_7  and  O_8
REMARK    5  A    between atoms: O_8  and  C_9
REMARK    6  A    between atoms: C_10  and  C_11
REMARK    7  A    between atoms: C_13  and  C_14
REMARK    8  A    between atoms: C_14  and  C_15
REMARK    9  A    between atoms: C_18  and  C_19
REMARK                            x       y       z     vdW  Elec       q    Type
REMARK                         _______ _______ _______ _____ _____    ______ ____
ROOT
ATOM      1  C   UNL     1       3.771   3.818  18.646  0.00  0.00    +0.000 A 
ATOM      2  C   UNL     1       2.811   4.694  19.052  0.00  0.00    +0.000 A 
ATOM      3  N   UNL     1       1.456   4.428  18.991  0.00  0.00    +0.000 NA
ATOM      4  C   UNL     1       1.083   3.236  18.702  0.00  0.00    +0.000 A 
ATOM      5  N   UNL     1       1.931   2.252  18.325  0.00  0.00    +0.000 N 
ATOM      6  C   UNL     1       3.253   2.503  18.136  0.00  0.00    +0.000 A 
ATOM      7  O   UNL     1       3.974   1.665  17.602  0.00  0.00    +0.000 OA
ATOM      8  H   UNL     1       1.591   1.356  18.012  0.00  0.00    +0.000 HD
ENDROOT
BRANCH   1  10
ATOM      9  C   UNL     1       5.990   4.642  17.827  0.00  0.00    +0.000 C 
ATOM     10  C   UNL     1       5.218   3.971  18.694  0.00  0.00    +0.000 C 
BRANCH   9  12
ATOM     11  C   UNL     1       7.807   5.993  18.983  0.00  0.00    +0.000 C 
ATOM     12  C   UNL     1       7.446   4.836  18.092  0.00  0.00    +0.000 C 
ATOM     13  O   UNL     1       8.298   4.088  17.621  0.00  0.00    +0.000 OA
ENDBRANCH   9  12
ENDBRANCH   1  10
BRANCH   2  14
ATOM     14  O   UNL     1       3.210   5.897  19.664  0.00  0.00    +0.000 OA
BRANCH  14  15
ATOM     15  C   UNL     1       2.602   7.088  19.291  0.00  0.00    +0.000 A 
ATOM     16  C   UNL     1       2.841   7.734  18.060  0.00  0.00    +0.000 A 
ATOM     17  C   UNL     1       3.734   7.192  16.973  0.00  0.00    +0.000 C 
ATOM     18  C   UNL     1       2.251   8.991  17.814  0.00  0.00    +0.000 A 
ATOM     19  C   UNL     1       1.399   9.588  18.745  0.00  0.00    +0.000 A 
ATOM     20  C   UNL     1       1.068   8.873  19.903  0.00  0.00    +0.000 A 
ATOM     21  C   UNL     1       1.649   7.621  20.182  0.00  0.00    +0.000 A 
ATOM     22  C   UNL     1       1.234   6.890  21.429  0.00  0.00    +0.000 C 
BRANCH  19  23
ATOM     23  C   UNL     1       0.821  10.961  18.574  0.00  0.00    +0.000 C 
ATOM     24  C   UNL     1      -0.668  11.177  18.474  0.00  0.00    +0.000 C 
ATOM     25  O   UNL     1       1.582  11.927  18.501  0.00  0.00    +0.000 OA
ENDBRANCH  19  23
ENDBRANCH  14  15
ENDBRANCH   2  14
TORSDOF 5
ENDMDL
MODEL 7
REMARK VINA RESULT:      -7.1      4.183      6.789
REMARK  Name = 
REMARK  9 active torsions:
REMARK  status: ('A' for Active; 'I' for Inactive)
REMARK    1  A    between atoms: C_1  and  C_2
REMARK    2  A    between atoms: C_2  and  C_4
REMARK    3  A    between atoms: C_5  and  C_6
REMARK    4  A    between atoms: C_7  and  O_8
REMARK    5  A    between atoms: O_8  and  C_9
REMARK    6  A    between atoms: C_10  and  C_11
REMARK    7  A    between atoms: C_13  and  C_14
REMARK    8  A    between atoms: C_14  and  C_15
REMARK    9  A    between atoms: C_18  and  C_19
REMARK                            x       y       z     vdW  Elec       q    Type
REMARK                         _______ _______ _______ _____ _____    ______ ____
ROOT
ATOM      1  C   UNL     1       5.834   4.626  15.084  0.00  0.00    +0.000 A 
ATOM      2  C   UNL     1       5.247   4.607  16.313  0.00  0.00    +0.000 A 
ATOM      3  N   UNL     1       5.788   5.218  17.429  0.00  0.00    +0.000 NA
ATOM      4  C   UNL     1       6.802   5.986  17.271  0.00  0.00    +0.000 A 
ATOM      5  N   UNL     1       7.457   6.136  16.097  0.00  0.00    +0.000 N 
ATOM      6  C   UNL     1       7.126   5.389  15.011  0.00  0.00    +0.000 A 
ATOM      7  O   UNL     1       7.849   5.382  14.018  0.00  0.00    +0.000 OA
ATOM      8  H   UNL     1       8.308   6.674  16.034  0.00  0.00    +0.000 HD
ENDROOT
BRANCH   1  10
ATOM      9  C   UNL     1       6.055   3.366  12.930  0.00  0.00    +0.000 C 
ATOM     10  C   UNL     1       5.346   4.054  13.838  0.00  0.00    +0.000 C 
BRANCH   9  12
ATOM     11  C   UNL     1       4.122   3.373  11.279  0.00  0.00    +0.000 C 
ATOM     12  C   UNL     1       5.382   2.713  11.770  0.00  0.00    +0.000 C 
ATOM     13  O   UNL     1       5.836   1.703  11.239  0.00  0.00    +0.000 OA
ENDBRANCH   9  12
ENDBRANCH   1  10
BRANCH   2  14
ATOM     14  O   UNL     1       3.971   4.028  16.444  0.00  0.00    +0.000 OA
BRANCH  14  15
ATOM     15  C   UNL     1       3.405   3.899  17.704  0.00  0.00    +0.000 A 
ATOM     16  C   UNL     1       2.733   4.946  18.369  0.00  0.00    +0.000 A 
ATOM     17  C   UNL     1       2.493   6.313  17.780  0.00  0.00    +0.000 C 
ATOM     18  C   UNL     1       2.279   4.747  19.689  0.00  0.00    +0.000 A 
ATOM     19  C   UNL     1       2.439   3.520  20.335  0.00  0.00    +0.000 A 
ATOM     20  C   UNL     1       2.988   2.452  19.614  0.00  0.00    +0.000 A 
ATOM     21  C   UNL     1       3.461   2.622  18.299  0.00  0.00    +0.000 A 
ATOM     22  C   UNL     1       4.016   1.431  17.567  0.00  0.00    +0.000 C 
BRANCH  19  23
ATOM     23  C   UNL     1       2.059   3.284  21.766  0.00  0.00    +0.000 C 
ATOM     24  C   UNL     1       1.048   2.231  22.144  0.00  0.00    +0.000 C 
ATOM     25  O   UNL     1       2.575   3.976  22.645  0.00  0.00    +0.000 OA
ENDBRANCH  19  23
ENDBRANCH  14  15
ENDBRANCH   2  14
TORSDOF 5
ENDMDL
MODEL 8
REMARK VINA RESULT:      -7.1      0.992      1.145
REMARK  Name = 
REMARK  9 active torsions:
REMARK  status: ('A' for Active; 'I' for Inactive)
REMARK    1  A    between atoms: C_1  and  C_2
REMARK    2  A    between atoms: C_2  and  C_4
REMARK    3  A    between atoms: C_5  and  C_6
REMARK    4  A    between atoms: C_7  and  O_8
REMARK    5  A    between atoms: O_8  and  C_9
REMARK    6  A    between atoms: C_10  and  C_11
REMARK    7  A    between atoms: C_13  and  C_14
REMARK    8  A    between atoms: C_14  and  C_15
REMARK    9  A    between atoms: C_18  and  C_19
REMARK                            x       y       z     vdW  Elec       q    Type
REMARK                         _______ _______ _______ _____ _____    ______ ____
ROOT
ATOM      1  C   UNL     1       3.370   4.703  19.253  0.00  0.00    +0.000 A 
ATOM      2  C   UNL     1       2.490   5.590  19.795  0.00  0.00    +0.000 A 
ATOM      3  N   UNL     1       1.253   5.231  20.297  0.00  0.00    +0.000 NA
ATOM      4  C   UNL     1       0.985   3.983  20.421  0.00  0.00    +0.000 A 
ATOM      5  N   UNL     1       1.788   2.993  19.970  0.00  0.00    +0.000 N 
ATOM      6  C   UNL     1       2.910   3.272  19.256  0.00  0.00    +0.000 A 
ATOM      7  O   UNL     1       3.519   2.376  18.679  0.00  0.00    +0.000 OA
ATOM      8  H   UNL     1       1.499   2.027  19.998  0.00  0.00    +0.000 HD
ENDROOT
BRANCH   1  10
ATOM      9  C   UNL     1       5.071   5.008  17.439  0.00  0.00    +0.000 C 
ATOM     10  C   UNL     1       4.704   4.955  18.729  0.00  0.00    +0.000 C 
BRANCH   9  12
ATOM     11  C   UNL     1       7.576   4.708  17.749  0.00  0.00    +0.000 C 
ATOM     12  C   UNL     1       6.450   5.425  17.054  0.00  0.00    +0.000 C 
ATOM     13  O   UNL     1       6.656   6.293  16.209  0.00  0.00    +0.000 OA
ENDBRANCH   9  12
ENDBRANCH   1  10
BRANCH   2  14
ATOM     14  O   UNL     1       2.892   6.930  19.952  0.00  0.00    +0.000 OA
BRANCH  14  15
ATOM     15  C   UNL     1       2.015   7.950  19.609  0.00  0.00    +0.000 A 
ATOM     16  C   UNL     1       1.171   8.598  20.536  0.00  0.00    +0.000 A 
ATOM     17  C   UNL     1       1.152   8.311  22.015  0.00  0.00    +0.000 C 
ATOM     18  C   UNL     1       0.244   9.555  20.074  0.00  0.00    +0.000 A 
ATOM     19  C   UNL     1       0.176   9.908  18.725  0.00  0.00    +0.000 A 
ATOM     20  C   UNL     1       1.110   9.353  17.841  0.00  0.00    +0.000 A 
ATOM     21  C   UNL     1       2.041   8.387  18.270  0.00  0.00    +0.000 A 
ATOM     22  C   UNL     1       3.036   7.848  17.279  0.00  0.00    +0.000 C 
BRANCH  19  23
ATOM     23  C   UNL     1      -0.851  10.847  18.168  0.00  0.00    +0.000 C 
ATOM     24  C   UNL     1      -1.976  10.350  17.295  0.00  0.00    +0.000 C 
ATOM     25  O   UNL     1      -0.762  12.050  18.419  0.00  0.00    +0.000 OA
ENDBRANCH  19  23
ENDBRANCH  14  15
ENDBRANCH   2  14
TORSDOF 5
ENDMDL
MODEL 9
REMARK VINA RESULT:      -7.0      3.028      6.917
REMARK  Name = 
REMARK  9 active torsions:
REMARK  status: ('A' for Active; 'I' for Inactive)
REMARK    1  A    between atoms: C_1  and  C_2
REMARK    2  A    between atoms: C_2  and  C_4
REMARK    3  A    between atoms: C_5  and  C_6
REMARK    4  A    between atoms: C_7  and  O_8
REMARK    5  A    between atoms: O_8  and  C_9
REMARK    6  A    between atoms: C_10  and  C_11
REMARK    7  A    between atoms: C_13  and  C_14
REMARK    8  A    between atoms: C_14  and  C_15
REMARK    9  A    between atoms: C_18  and  C_19
REMARK                            x       y       z     vdW  Elec       q    Type
REMARK                         _______ _______ _______ _____ _____    ______ ____
ROOT
ATOM      1  C   UNL     1       2.802   6.083  19.604  0.00  0.00    +0.000 A 
ATOM      2  C   UNL     1       3.716   6.217  18.603  0.00  0.00    +0.000 A 
ATOM      3  N   UNL     1       3.755   7.298  17.742  0.00  0.00    +0.000 NA
ATOM      4  C   UNL     1       3.008   8.308  18.000  0.00  0.00    +0.000 A 
ATOM      5  N   UNL     1       2.088   8.331  18.991  0.00  0.00    +0.000 N 
ATOM      6  C   UNL     1       1.829   7.220  19.730  0.00  0.00    +0.000 A 
ATOM      7  O   UNL     1       0.860   7.187  20.483  0.00  0.00    +0.000 OA
ATOM      8  H   UNL     1       1.452   9.106  19.101  0.00  0.00    +0.000 HD
ENDROOT
BRANCH   1  10
ATOM      9  C   UNL     1       2.442   3.718  20.349  0.00  0.00    +0.000 C 
ATOM     10  C   UNL     1       2.685   5.016  20.587  0.00  0.00    +0.000 C 
BRANCH   9  12
ATOM     11  C   UNL     1       1.205   2.454  22.175  0.00  0.00    +0.000 C 
ATOM     12  C   UNL     1       2.499   2.715  21.452  0.00  0.00    +0.000 C 
ATOM     13  O   UNL     1       3.536   2.127  21.744  0.00  0.00    +0.000 OA
ENDBRANCH   9  12
ENDBRANCH   1  10
BRANCH   2  14
ATOM     14  O   UNL     1       4.745   5.263  18.495  0.00  0.00    +0.000 OA
BRANCH  14  15
ATOM     15  C   UNL     1       5.396   5.095  17.281  0.00  0.00    +0.000 A 
ATOM     16  C   UNL     1       6.618   5.722  16.957  0.00  0.00    +0.000 A 
ATOM     17  C   UNL     1       7.399   6.603  17.898  0.00  0.00    +0.000 C 
ATOM     18  C   UNL     1       7.150   5.568  15.660  0.00  0.00    +0.000 A 
ATOM     19  C   UNL     1       6.518   4.770  14.705  0.00  0.00    +0.000 A 
ATOM     20  C   UNL     1       5.379   4.049  15.085  0.00  0.00    +0.000 A 
ATOM     21  C   UNL     1       4.817   4.191  16.368  0.00  0.00    +0.000 A 
ATOM     22  C   UNL     1       3.608   3.370  16.726  0.00  0.00    +0.000 C 
BRANCH  19  23
ATOM     23  C   UNL     1       6.990   4.647  13.288  0.00  0.00    +0.000 C 
ATOM     24  C   UNL     1       6.436   3.588  12.367  0.00  0.00    +0.000 C 
ATOM     25  O   UNL     1       7.858   5.418  12.875  0.00  0.00    +0.000 OA
ENDBRANCH  19  23
ENDBRANCH  14  15
ENDBRANCH   2  14
TORSDOF 5
ENDMDL
