MODEL 1
REMARK VINA RESULT:      -8.0      0.000      0.000
REMARK  Name = 
REMARK  10 active torsions:
REMARK  status: ('A' for Active; 'I' for Inactive)
REMARK    1  A    between atoms: C_1  and  N_2
REMARK    2  A    between atoms: N_2  and  C_3
REMARK    3  A    between atoms: N_2  and  C_4
REMARK    4  A    between atoms: C_4  and  C_5
REMARK    5  A    between atoms: C_5  and  N_6
REMARK    6  A    between atoms: N_10  and  C_11
REMARK    7  A    between atoms: C_11  and  C_12
REMARK    8  A    between atoms: C_12  and  C_13
REMARK    9  A    between atoms: C_13  and  N_14
REMARK   10  A    between atoms: N_14  and  C_15
REMARK                            x       y       z     vdW  Elec       q    Type
REMARK                         _______ _______ _______ _____ _____    ______ ____
ROOT
ATOM      1  N   UNL     1       5.189   4.188  15.958  0.00  0.00    +0.000 N 
ATOM      2  C   UNL     1       4.294   4.737  16.873  0.00  0.00    +0.000 A 
ATOM      3  N   UNL     1       4.192   6.053  16.993  0.00  0.00    +0.000 NA
ATOM      4  C   UNL     1       3.331   6.471  17.902  0.00  0.00    +0.000 A 
ATOM      5  N   UNL     1       3.304   7.843  18.134  0.00  0.00    +0.000 N 
ATOM      6  N   UNL     1       2.567   5.673  18.628  0.00  0.00    +0.000 NA
ATOM      7  C   UNL     1       2.729   4.368  18.457  0.00  0.00    +0.000 A 
ATOM      8  N   UNL     1       1.920   3.508  19.173  0.00  0.00    +0.000 N 
ATOM      9  C   UNL     1       0.970   4.052  20.151  0.00  0.00    +0.000 C 
ATOM     10  C   UNL     1       1.476   3.836  21.584  0.00  0.00    +0.000 C 
ATOM     11  O   UNL     1       1.788   2.454  21.825  0.00  0.00    +0.000 OA
ATOM     12  C   UNL     1       2.822   2.018  20.925  0.00  0.00    +0.000 C 
ATOM     13  C   UNL     1       2.390   2.149  19.454  0.00  0.00    +0.000 C 
ATOM     14  N   UNL     1       3.604   3.865  17.595  0.00  0.00    +0.000 NA
ATOM     15  H   UNL     1       5.435   3.274  16.327  0.00  0.00    +0.000 HD
ATOM     16  H   UNL     1       3.851   8.274  17.397  0.00  0.00    +0.000 HD
ENDROOT
BRANCH   1  17
ATOM     17  C   UNL     1       6.351   5.011  15.638  0.00  0.00    +0.000 C 
BRANCH  17  18
ATOM     18  C   UNL     1       7.547   4.743  16.581  0.00  0.00    +0.000 C 
BRANCH  18  20
ATOM     19  C   UNL     1       7.240   7.092  17.152  0.00  0.00    +0.000 C 
ATOM     20  N   UNL     1       7.792   5.807  17.584  0.00  0.00    +0.000 NA
ATOM     21  C   UNL     1       7.192   5.415  18.863  0.00  0.00    +0.000 C 
ENDBRANCH  18  20
ENDBRANCH  17  18
ENDBRANCH   1  17
BRANCH   5  22
ATOM     22  C   UNL     1       1.981   8.401  18.333  0.00  0.00    +0.000 C 
BRANCH  22  23
ATOM     23  C   UNL     1       1.951   9.828  17.785  0.00  0.00    +0.000 C 
BRANCH  23  24
ATOM     24  C   UNL     1       1.005  10.687  18.620  0.00  0.00    +0.000 C 
BRANCH  24  25
ATOM     25  N   UNL     1       0.005   9.847  19.282  0.00  0.00    +0.000 N 
ATOM     26  H   UNL     1       0.110   8.871  19.025  0.00  0.00    +0.000 HD
BRANCH  25  27
ATOM     27  C   UNL     1      -0.185  10.010  20.675  0.00  0.00    +0.000 A 
ATOM     28  C   UNL     1       0.474   9.183  21.588  0.00  0.00    +0.000 A 
ATOM     29  C   UNL     1       0.321   9.405  22.943  0.00  0.00    +0.000 A 
ATOM     30  N   UNL     1      -0.410  10.405  23.460  0.00  0.00    +0.000 NA
ATOM     31  C   UNL     1      -1.013  11.240  22.609  0.00  0.00    +0.000 A 
ATOM     32  C   UNL     1      -1.732  12.286  23.163  0.00  0.00    +0.000 A 
ATOM     33  C   UNL     1      -2.394  13.214  22.367  0.00  0.00    +0.000 A 
ATOM     34 CL   UNL     1      -3.278  14.495  23.099  0.00  0.00    +0.000 Cl
ATOM     35  C   UNL     1      -2.342  13.112  20.985  0.00  0.00    +0.000 A 
ATOM     36  C   UNL     1      -1.615  12.071  20.404  0.00  0.00    +0.000 A 
ATOM     37  C   UNL     1      -0.934  11.109  21.196  0.00  0.00    +0.000 A 
ENDBRANCH  25  27
ENDBRANCH  24  25
ENDBRANCH  23  24
ENDBRANCH  22  23
ENDBRANCH   5  22
TORSDOF 8
ENDMDL
MODEL 2
REMARK VINA RESULT:      -8.0      4.676      9.885
REMARK  Name = 
REMARK  10 active torsions:
REMARK  status: ('A' for Active; 'I' for Inactive)
REMARK    1  A    between atoms: C_1  and  N_2
REMARK    2  A    between atoms: N_2  and  C_3
REMARK    3  A    between atoms: N_2  and  C_4
REMARK    4  A    between atoms: C_4  and  C_5
REMARK    5  A    between atoms: C_5  and  N_6
REMARK    6  A    between atoms: N_10  and  C_11
REMARK    7  A    between atoms: C_11  and  C_12
REMARK    8  A    between atoms: C_12  and  C_13
REMARK    9  A    between atoms: C_13  and  N_14
REMARK   10  A    between atoms: N_14  and  C_15
REMARK                            x       y       z     vdW  Elec       q    Type
REMARK                         _______ _______ _______ _____ _____    ______ ____
ROOT
ATOM      1  N   UNL     1      -1.854  12.261  17.364  0.00  0.00    +0.000 N 
ATOM      2  C   UNL     1      -0.936  12.142  18.405  0.00  0.00    +0.000 A 
ATOM      3  N   UNL     1      -0.977  11.088  19.208  0.00  0.00    +0.000 NA
ATOM      4  C   UNL     1      -0.078  11.080  20.173  0.00  0.00    +0.000 A 
ATOM      5  N   UNL     1      -0.187  10.051  21.102  0.00  0.00    +0.000 N 
ATOM      6  N   UNL     1       0.851  12.008  20.335  0.00  0.00    +0.000 NA
ATOM      7  C   UNL     1       0.826  13.035  19.497  0.00  0.00    +0.000 A 
ATOM      8  N   UNL     1       1.804  14.002  19.617  0.00  0.00    +0.000 N 
ATOM      9  C   UNL     1       2.784  13.911  20.705  0.00  0.00    +0.000 C 
ATOM     10  C   UNL     1       2.467  14.924  21.814  0.00  0.00    +0.000 C 
ATOM     11  O   UNL     1       2.348  16.256  21.286  0.00  0.00    +0.000 OA
ATOM     12  C   UNL     1       1.280  16.311  20.324  0.00  0.00    +0.000 C 
ATOM     13  C   UNL     1       1.530  15.360  19.140  0.00  0.00    +0.000 C 
ATOM     14  N   UNL     1      -0.073  13.141  18.526  0.00  0.00    +0.000 NA
ATOM     15  H   UNL     1      -1.949  13.259  17.194  0.00  0.00    +0.000 HD
ATOM     16  H   UNL     1      -0.858   9.389  20.728  0.00  0.00    +0.000 HD
ENDROOT
BRANCH   1  17
ATOM     17  C   UNL     1      -3.133  11.589  17.570  0.00  0.00    +0.000 C 
BRANCH  17  18
ATOM     18  C   UNL     1      -3.840  11.235  16.241  0.00  0.00    +0.000 C 
BRANCH  18  20
ATOM     19  C   UNL     1      -2.349   9.341  15.885  0.00  0.00    +0.000 C 
ATOM     20  N   UNL     1      -2.995  10.501  15.269  0.00  0.00    +0.000 NA
ATOM     21  C   UNL     1      -3.823  10.064  14.140  0.00  0.00    +0.000 C 
ENDBRANCH  18  20
ENDBRANCH  17  18
ENDBRANCH   1  17
BRANCH   5  22
ATOM     22  C   UNL     1       1.076   9.479  21.530  0.00  0.00    +0.000 C 
BRANCH  22  23
ATOM     23  C   UNL     1       1.499   8.398  20.536  0.00  0.00    +0.000 C 
BRANCH  23  24
ATOM     24  C   UNL     1       1.032   7.029  21.023  0.00  0.00    +0.000 C 
BRANCH  24  25
ATOM     25  N   UNL     1       2.143   6.078  21.010  0.00  0.00    +0.000 N 
ATOM     26  H   UNL     1       2.422   5.816  21.950  0.00  0.00    +0.000 HD
BRANCH  25  27
ATOM     27  C   UNL     1       2.049   4.953  20.154  0.00  0.00    +0.000 A 
ATOM     28  C   UNL     1       1.032   4.010  20.324  0.00  0.00    +0.000 A 
ATOM     29  C   UNL     1       0.923   2.958  19.435  0.00  0.00    +0.000 A 
ATOM     30  N   UNL     1       1.727   2.788  18.373  0.00  0.00    +0.000 NA
ATOM     31  C   UNL     1       2.678   3.702  18.160  0.00  0.00    +0.000 A 
ATOM     32  C   UNL     1       3.472   3.528  17.038  0.00  0.00    +0.000 A 
ATOM     33  C   UNL     1       4.488   4.423  16.722  0.00  0.00    +0.000 A 
ATOM     34 CL   UNL     1       5.452   4.166  15.321  0.00  0.00    +0.000 Cl
ATOM     35  C   UNL     1       4.725   5.524  17.531  0.00  0.00    +0.000 A 
ATOM     36  C   UNL     1       3.930   5.725  18.662  0.00  0.00    +0.000 A 
ATOM     37  C   UNL     1       2.890   4.824  19.007  0.00  0.00    +0.000 A 
ENDBRANCH  25  27
ENDBRANCH  24  25
ENDBRANCH  23  24
ENDBRANCH  22  23
ENDBRANCH   5  22
TORSDOF 8
ENDMDL
MODEL 3
REMARK VINA RESULT:      -8.0      5.876      7.674
REMARK  Name = 
REMARK  10 active torsions:
REMARK  status: ('A' for Active; 'I' for Inactive)
REMARK    1  A    between atoms: C_1  and  N_2
REMARK    2  A    between atoms: N_2  and  C_3
REMARK    3  A    between atoms: N_2  and  C_4
REMARK    4  A    between atoms: C_4  and  C_5
REMARK    5  A    between atoms: C_5  and  N_6
REMARK    6  A    between atoms: N_10  and  C_11
REMARK    7  A    between atoms: C_11  and  C_12
REMARK    8  A    between atoms: C_12  and  C_13
REMARK    9  A    between atoms: C_13  and  N_14
REMARK   10  A    between atoms: N_14  and  C_15
REMARK                            x       y       z     vdW  Elec       q    Type
REMARK                         _______ _______ _______ _____ _____    ______ ____
ROOT
ATOM      1  N   UNL     1       5.617   4.357  13.639  0.00  0.00    +0.000 N 
ATOM      2  C   UNL     1       5.720   4.664  14.994  0.00  0.00    +0.000 A 
ATOM      3  N   UNL     1       6.791   5.297  15.451  0.00  0.00    +0.000 NA
ATOM      4  C   UNL     1       6.799   5.523  16.751  0.00  0.00    +0.000 A 
ATOM      5  N   UNL     1       7.970   6.067  17.270  0.00  0.00    +0.000 N 
ATOM      6  N   UNL     1       5.811   5.205  17.570  0.00  0.00    +0.000 NA
ATOM      7  C   UNL     1       4.774   4.569  17.042  0.00  0.00    +0.000 A 
ATOM      8  N   UNL     1       3.709   4.257  17.863  0.00  0.00    +0.000 N 
ATOM      9  C   UNL     1       3.785   4.561  19.296  0.00  0.00    +0.000 C 
ATOM     10  C   UNL     1       4.036   3.286  20.114  0.00  0.00    +0.000 C 
ATOM     11  O   UNL     1       3.061   2.273  19.814  0.00  0.00    +0.000 OA
ATOM     12  C   UNL     1       3.129   1.920  18.421  0.00  0.00    +0.000 C 
ATOM     13  C   UNL     1       2.841   3.129  17.512  0.00  0.00    +0.000 C 
ATOM     14  N   UNL     1       4.707   4.265  15.751  0.00  0.00    +0.000 NA
ATOM     15  H   UNL     1       5.018   3.538  13.587  0.00  0.00    +0.000 HD
ATOM     16  H   UNL     1       8.534   6.355  16.478  0.00  0.00    +0.000 HD
ENDROOT
BRANCH   1  17
ATOM     17  C   UNL     1       6.882   4.190  12.932  0.00  0.00    +0.000 C 
BRANCH  17  18
ATOM     18  C   UNL     1       6.769   3.221  11.732  0.00  0.00    +0.000 C 
BRANCH  18  20
ATOM     19  C   UNL     1       4.422   2.911  11.155  0.00  0.00    +0.000 C 
ATOM     20  N   UNL     1       5.601   2.310  11.782  0.00  0.00    +0.000 NA
ATOM     21  C   UNL     1       5.937   1.055  11.102  0.00  0.00    +0.000 C 
ENDBRANCH  18  20
ENDBRANCH  17  18
ENDBRANCH   1  17
BRANCH   5  22
ATOM     22  C   UNL     1       7.771   7.079  18.290  0.00  0.00    +0.000 C 
BRANCH  22  23
ATOM     23  C   UNL     1       7.928   8.463  17.661  0.00  0.00    +0.000 C 
BRANCH  23  24
ATOM     24  C   UNL     1       8.675   9.389  18.618  0.00  0.00    +0.000 C 
BRANCH  24  25
ATOM     25  N   UNL     1       8.854  10.709  18.013  0.00  0.00    +0.000 N 
ATOM     26  H   UNL     1       7.984  11.065  17.629  0.00  0.00    +0.000 HD
BRANCH  25  27
ATOM     27  C   UNL     1       9.546  11.695  18.756  0.00  0.00    +0.000 A 
ATOM     28  C   UNL     1      10.687  11.365  19.491  0.00  0.00    +0.000 A 
ATOM     29  C   UNL     1      11.382  12.358  20.154  0.00  0.00    +0.000 A 
ATOM     30  N   UNL     1      11.048  13.659  20.118  0.00  0.00    +0.000 NA
ATOM     31  C   UNL     1       9.988  14.009  19.383  0.00  0.00    +0.000 A 
ATOM     32  C   UNL     1       9.683  15.358  19.330  0.00  0.00    +0.000 A 
ATOM     33  C   UNL     1       8.603  15.829  18.591  0.00  0.00    +0.000 A 
ATOM     34 CL   UNL     1       8.259  17.515  18.555  0.00  0.00    +0.000 Cl
ATOM     35  C   UNL     1       7.804  14.947  17.881  0.00  0.00    +0.000 A 
ATOM     36  C   UNL     1       8.099  13.582  17.912  0.00  0.00    +0.000 A 
ATOM     37  C   UNL     1       9.194  13.076  18.662  0.00  0.00    +0.000 A 
ENDBRANCH  25  27
ENDBRANCH  24  25
ENDBRANCH  23  24
ENDBRANCH  22  23
ENDBRANCH   5  22
TORSDOF 8
ENDMDL
MODEL 4
REMARK VINA RESULT:      -7.9      1.263      1.991
REMARK  Name = 
REMARK  10 active torsions:
REMARK  status: ('A' for Active; 'I' for Inactive)
REMARK    1  A    between atoms: C_1  and  N_2
REMARK    2  A    between atoms: N_2  and  C_3
REMARK    3  A    between atoms: N_2  and  C_4
REMARK    4  A    between atoms: C_4  and  C_5
REMARK    5  A    between atoms: C_5  and  N_6
REMARK    6  A    between atoms: N_10  and  C_11
REMARK    7  A    between atoms: C_11  and  C_12
REMARK    8  A    between atoms: C_12  and  C_13
REMARK    9  A    between atoms: C_13  and  N_14
REMARK   10  A    between atoms: N_14  and  C_15
REMARK                            x       y       z     vdW  Elec       q    Type
REMARK                         _______ _______ _______ _____ _____    ______ ____
ROOT
ATOM      1  N   UNL     1       5.693   3.769  15.892  0.00  0.00    +0.000 N 
ATOM      2  C   UNL     1       4.781   4.347  16.772  0.00  0.00    +0.000 A 
ATOM      3  N   UNL     1       4.566   5.655  16.740  0.00  0.00    +0.000 NA
ATOM      4  C   UNL     1       3.699   6.104  17.627  0.00  0.00    +0.000 A 
ATOM      5  N   UNL     1       3.557   7.487  17.697  0.00  0.00    +0.000 N 
ATOM      6  N   UNL     1       3.030   5.338  18.472  0.00  0.00    +0.000 NA
ATOM      7  C   UNL     1       3.303   4.040  18.450  0.00  0.00    +0.000 A 
ATOM      8  N   UNL     1       2.595   3.208  19.294  0.00  0.00    +0.000 N 
ATOM      9  C   UNL     1       1.630   3.783  20.238  0.00  0.00    +0.000 C 
ATOM     10  C   UNL     1       2.195   3.785  21.665  0.00  0.00    +0.000 C 
ATOM     11  O   UNL     1       2.636   2.473  22.054  0.00  0.00    +0.000 OA
ATOM     12  C   UNL     1       3.678   2.022  21.171  0.00  0.00    +0.000 C 
ATOM     13  C   UNL     1       3.193   1.937  19.713  0.00  0.00    +0.000 C 
ATOM     14  N   UNL     1       4.193   3.513  17.618  0.00  0.00    +0.000 NA
ATOM     15  H   UNL     1       6.031   2.930  16.356  0.00  0.00    +0.000 HD
ATOM     16  H   UNL     1       4.041   7.871  16.893  0.00  0.00    +0.000 HD
ENDROOT
BRANCH   1  17
ATOM     17  C   UNL     1       6.768   4.643  15.432  0.00  0.00    +0.000 C 
BRANCH  17  18
ATOM     18  C   UNL     1       6.759   4.839  13.898  0.00  0.00    +0.000 C 
BRANCH  18  20
ATOM     19  C   UNL     1       4.949   3.755  12.679  0.00  0.00    +0.000 C 
ATOM     20  N   UNL     1       6.339   3.646  13.125  0.00  0.00    +0.000 NA
ATOM     21  C   UNL     1       7.220   3.488  11.964  0.00  0.00    +0.000 C 
ENDBRANCH  18  20
ENDBRANCH  17  18
ENDBRANCH   1  17
BRANCH   5  22
ATOM     22  C   UNL     1       2.195   7.951  17.881  0.00  0.00    +0.000 C 
BRANCH  22  23
ATOM     23  C   UNL     1       2.113   9.429  17.502  0.00  0.00    +0.000 C 
BRANCH  23  24
ATOM     24  C   UNL     1       1.852  10.273  18.747  0.00  0.00    +0.000 C 
BRANCH  24  25
ATOM     25  N   UNL     1       0.462  10.125  19.180  0.00  0.00    +0.000 N 
ATOM     26  H   UNL     1      -0.005   9.372  18.685  0.00  0.00    +0.000 HD
BRANCH  25  27
ATOM     27  C   UNL     1       0.197  10.088  20.570  0.00  0.00    +0.000 A 
ATOM     28  C   UNL     1       0.974   9.302  21.424  0.00  0.00    +0.000 A 
ATOM     29  C   UNL     1       0.737   9.336  22.785  0.00  0.00    +0.000 A 
ATOM     30  N   UNL     1      -0.193  10.112  23.365  0.00  0.00    +0.000 NA
ATOM     31  C   UNL     1      -0.919  10.909  22.575  0.00  0.00    +0.000 A 
ATOM     32  C   UNL     1      -1.846  11.728  23.197  0.00  0.00    +0.000 A 
ATOM     33  C   UNL     1      -2.650  12.598  22.468  0.00  0.00    +0.000 A 
ATOM     34 CL   UNL     1      -3.791  13.595  23.282  0.00  0.00    +0.000 Cl
ATOM     35  C   UNL     1      -2.533  12.667  21.088  0.00  0.00    +0.000 A 
ATOM     36  C   UNL     1      -1.597  11.857  20.441  0.00  0.00    +0.000 A 
ATOM     37  C   UNL     1      -0.769  10.958  21.162  0.00  0.00    +0.000 A 
ENDBRANCH  25  27
ENDBRANCH  24  25
ENDBRANCH  23  24
ENDBRANCH  22  23
ENDBRANCH   5  22
TORSDOF 8
ENDMDL
MODEL 5
REMARK VINA RESULT:      -7.9      5.523      8.223
REMARK  Name = 
REMARK  10 active torsions:
REMARK  status: ('A' for Active; 'I' for Inactive)
REMARK    1  A    between atoms: C_1  and  N_2
REMARK    2  A    between atoms: N_2  and  C_3
REMARK    3  A    between atoms: N_2  and  C_4
REMARK    4  A    between atoms: C_4  and  C_5
REMARK    5  A    between atoms: C_5  and  N_6
REMARK    6  A    between atoms: N_10  and  C_11
REMARK    7  A    between atoms: C_11  and  C_12
REMARK    8  A    between atoms: C_12  and  C_13
REMARK    9  A    between atoms: C_13  and  N_14
REMARK   10  A    between atoms: N_14  and  C_15
REMARK                            x       y       z     vdW  Elec       q    Type
REMARK                         _______ _______ _______ _____ _____    ______ ____
ROOT
ATOM      1  N   UNL     1       5.458   4.220  13.829  0.00  0.00    +0.000 N 
ATOM      2  C   UNL     1       5.480   4.895  15.047  0.00  0.00    +0.000 A 
ATOM      3  N   UNL     1       6.507   5.674  15.355  0.00  0.00    +0.000 NA
ATOM      4  C   UNL     1       6.440   6.252  16.540  0.00  0.00    +0.000 A 
ATOM      5  N   UNL     1       7.566   6.968  16.936  0.00  0.00    +0.000 N 
ATOM      6  N   UNL     1       5.419   6.133  17.371  0.00  0.00    +0.000 NA
ATOM      7  C   UNL     1       4.430   5.332  16.997  0.00  0.00    +0.000 A 
ATOM      8  N   UNL     1       3.332   5.216  17.826  0.00  0.00    +0.000 N 
ATOM      9  C   UNL     1       3.324   5.909  19.120  0.00  0.00    +0.000 C 
ATOM     10  C   UNL     1       3.567   4.923  20.270  0.00  0.00    +0.000 C 
ATOM     11  O   UNL     1       2.637   3.826  20.224  0.00  0.00    +0.000 OA
ATOM     12  C   UNL     1       2.790   3.104  18.989  0.00  0.00    +0.000 C 
ATOM     13  C   UNL     1       2.516   4.000  17.767  0.00  0.00    +0.000 C 
ATOM     14  N   UNL     1       4.440   4.680  15.842  0.00  0.00    +0.000 NA
ATOM     15  H   UNL     1       4.886   3.394  13.982  0.00  0.00    +0.000 HD
ATOM     16  H   UNL     1       8.163   7.048  16.120  0.00  0.00    +0.000 HD
ENDROOT
BRANCH   1  17
ATOM     17  C   UNL     1       6.763   3.916  13.252  0.00  0.00    +0.000 C 
BRANCH  17  18
ATOM     18  C   UNL     1       6.657   3.229  11.871  0.00  0.00    +0.000 C 
BRANCH  18  20
ATOM     19  C   UNL     1       4.379   2.806  11.118  0.00  0.00    +0.000 C 
ATOM     20  N   UNL     1       5.564   2.234  11.758  0.00  0.00    +0.000 NA
ATOM     21  C   UNL     1       6.037   1.081  10.985  0.00  0.00    +0.000 C 
ENDBRANCH  18  20
ENDBRANCH  17  18
ENDBRANCH   1  17
BRANCH   5  22
ATOM     22  C   UNL     1       7.285   8.214  17.624  0.00  0.00    +0.000 C 
BRANCH  22  23
ATOM     23  C   UNL     1       8.474   8.574  18.513  0.00  0.00    +0.000 C 
BRANCH  23  24
ATOM     24  C   UNL     1       8.921  10.006  18.231  0.00  0.00    +0.000 C 
BRANCH  24  25
ATOM     25  N   UNL     1       9.685  10.533  19.363  0.00  0.00    +0.000 N 
ATOM     26  H   UNL     1      10.192   9.798  19.845  0.00  0.00    +0.000 HD
BRANCH  25  27
ATOM     27  C   UNL     1      10.489  11.678  19.149  0.00  0.00    +0.000 A 
ATOM     28  C   UNL     1      11.281  11.791  18.003  0.00  0.00    +0.000 A 
ATOM     29  C   UNL     1      12.005  12.947  17.786  0.00  0.00    +0.000 A 
ATOM     30  N   UNL     1      11.981  14.012  18.604  0.00  0.00    +0.000 NA
ATOM     31  C   UNL     1      11.195  13.949  19.683  0.00  0.00    +0.000 A 
ATOM     32  C   UNL     1      11.156  15.071  20.493  0.00  0.00    +0.000 A 
ATOM     33  C   UNL     1      10.368  15.112  21.639  0.00  0.00    +0.000 A 
ATOM     34 CL   UNL     1      10.353  16.527  22.618  0.00  0.00    +0.000 Cl
ATOM     35  C   UNL     1       9.593  14.019  21.993  0.00  0.00    +0.000 A 
ATOM     36  C   UNL     1       9.609  12.880  21.185  0.00  0.00    +0.000 A 
ATOM     37  C   UNL     1      10.408  12.812  20.013  0.00  0.00    +0.000 A 
ENDBRANCH  25  27
ENDBRANCH  24  25
ENDBRANCH  23  24
ENDBRANCH  22  23
ENDBRANCH   5  22
TORSDOF 8
ENDMDL
MODEL 6
REMARK VINA RESULT:      -7.8      4.630     10.295
REMARK  Name = 
REMARK  10 active torsions:
REMARK  status: ('A' for Active; 'I' for Inactive)
REMARK    1  A    between atoms: C_1  and  N_2
REMARK    2  A    between atoms: N_2  and  C_3
REMARK    3  A    between atoms: N_2  and  C_4
REMARK    4  A    between atoms: C_4  and  C_5
REMARK    5  A    between atoms: C_5  and  N_6
REMARK    6  A    between atoms: N_10  and  C_11
REMARK    7  A    between atoms: C_11  and  C_12
REMARK    8  A    between atoms: C_12  and  C_13
REMARK    9  A    between atoms: C_13  and  N_14
REMARK   10  A    between atoms: N_14  and  C_15
REMARK                            x       y       z     vdW  Elec       q    Type
REMARK                         _______ _______ _______ _____ _____    ______ ____
ROOT
ATOM      1  N   UNL     1      -1.964  11.744  17.112  0.00  0.00    +0.000 N 
ATOM      2  C   UNL     1      -1.108  11.736  18.211  0.00  0.00    +0.000 A 
ATOM      3  N   UNL     1      -1.113  10.708  19.048  0.00  0.00    +0.000 NA
ATOM      4  C   UNL     1      -0.280  10.806  20.066  0.00  0.00    +0.000 A 
ATOM      5  N   UNL     1      -0.363   9.801  21.024  0.00  0.00    +0.000 N 
ATOM      6  N   UNL     1       0.555  11.815  20.252  0.00  0.00    +0.000 NA
ATOM      7  C   UNL     1       0.499  12.810  19.377  0.00  0.00    +0.000 A 
ATOM      8  N   UNL     1       1.384  13.860  19.522  0.00  0.00    +0.000 N 
ATOM      9  C   UNL     1       2.296  13.886  20.671  0.00  0.00    +0.000 C 
ATOM     10  C   UNL     1       1.825  14.902  21.721  0.00  0.00    +0.000 C 
ATOM     11  O   UNL     1       1.630  16.203  21.138  0.00  0.00    +0.000 OA
ATOM     12  C   UNL     1       0.625  16.137  20.111  0.00  0.00    +0.000 C 
ATOM     13  C   UNL     1       1.029  15.174  18.979  0.00  0.00    +0.000 C 
ATOM     14  N   UNL     1      -0.340  12.808  18.350  0.00  0.00    +0.000 NA
ATOM     15  H   UNL     1      -2.130  12.724  16.900  0.00  0.00    +0.000 HD
ATOM     16  H   UNL     1      -0.951   9.073  20.633  0.00  0.00    +0.000 HD
ENDROOT
BRANCH   1  17
ATOM     17  C   UNL     1      -3.193  10.972  17.263  0.00  0.00    +0.000 C 
BRANCH  17  18
ATOM     18  C   UNL     1      -4.305  11.760  17.993  0.00  0.00    +0.000 C 
BRANCH  18  20
ATOM     19  C   UNL     1      -6.301  10.504  18.604  0.00  0.00    +0.000 C 
ATOM     20  N   UNL     1      -5.685  11.381  17.607  0.00  0.00    +0.000 NA
ATOM     21  C   UNL     1      -6.493  12.594  17.448  0.00  0.00    +0.000 C 
ENDBRANCH  18  20
ENDBRANCH  17  18
ENDBRANCH   1  17
BRANCH   5  22
ATOM     22  C   UNL     1       0.912   9.352  21.550  0.00  0.00    +0.000 C 
BRANCH  22  23
ATOM     23  C   UNL     1       0.956   7.825  21.525  0.00  0.00    +0.000 C 
BRANCH  23  24
ATOM     24  C   UNL     1       1.732   7.346  20.301  0.00  0.00    +0.000 C 
BRANCH  24  25
ATOM     25  N   UNL     1       2.489   6.135  20.620  0.00  0.00    +0.000 N 
ATOM     26  H   UNL     1       2.382   5.875  21.596  0.00  0.00    +0.000 HD
BRANCH  25  27
ATOM     27  C   UNL     1       2.359   5.020  19.758  0.00  0.00    +0.000 A 
ATOM     28  C   UNL     1       1.303   4.118  19.911  0.00  0.00    +0.000 A 
ATOM     29  C   UNL     1       1.162   3.076  19.016  0.00  0.00    +0.000 A 
ATOM     30  N   UNL     1       1.970   2.878  17.962  0.00  0.00    +0.000 NA
ATOM     31  C   UNL     1       2.960   3.753  17.764  0.00  0.00    +0.000 A 
ATOM     32  C   UNL     1       3.759   3.552  16.652  0.00  0.00    +0.000 A 
ATOM     33  C   UNL     1       4.815   4.407  16.352  0.00  0.00    +0.000 A 
ATOM     34 CL   UNL     1       5.784   4.116  14.961  0.00  0.00    +0.000 Cl
ATOM     35  C   UNL     1       5.087   5.493  17.169  0.00  0.00    +0.000 A 
ATOM     36  C   UNL     1       4.288   5.721  18.292  0.00  0.00    +0.000 A 
ATOM     37  C   UNL     1       3.208   4.861  18.620  0.00  0.00    +0.000 A 
ENDBRANCH  25  27
ENDBRANCH  24  25
ENDBRANCH  23  24
ENDBRANCH  22  23
ENDBRANCH   5  22
TORSDOF 8
ENDMDL
MODEL 7
REMARK VINA RESULT:      -7.8      4.429      7.835
REMARK  Name = 
REMARK  10 active torsions:
REMARK  status: ('A' for Active; 'I' for Inactive)
REMARK    1  A    between atoms: C_1  and  N_2
REMARK    2  A    between atoms: N_2  and  C_3
REMARK    3  A    between atoms: N_2  and  C_4
REMARK    4  A    between atoms: C_4  and  C_5
REMARK    5  A    between atoms: C_5  and  N_6
REMARK    6  A    between atoms: N_10  and  C_11
REMARK    7  A    between atoms: C_11  and  C_12
REMARK    8  A    between atoms: C_12  and  C_13
REMARK    9  A    between atoms: C_13  and  N_14
REMARK   10  A    between atoms: N_14  and  C_15
REMARK                            x       y       z     vdW  Elec       q    Type
REMARK                         _______ _______ _______ _____ _____    ______ ____
ROOT
ATOM      1  N   UNL     1       1.972   8.448  18.821  0.00  0.00    +0.000 N 
ATOM      2  C   UNL     1       2.920   7.469  18.533  0.00  0.00    +0.000 A 
ATOM      3  N   UNL     1       3.988   7.772  17.809  0.00  0.00    +0.000 NA
ATOM      4  C   UNL     1       4.814   6.770  17.576  0.00  0.00    +0.000 A 
ATOM      5  N   UNL     1       5.871   7.036  16.711  0.00  0.00    +0.000 N 
ATOM      6  N   UNL     1       4.655   5.546  18.053  0.00  0.00    +0.000 NA
ATOM      7  C   UNL     1       3.560   5.316  18.764  0.00  0.00    +0.000 A 
ATOM      8  N   UNL     1       3.384   4.060  19.307  0.00  0.00    +0.000 N 
ATOM      9  C   UNL     1       4.359   3.002  19.019  0.00  0.00    +0.000 C 
ATOM     10  C   UNL     1       3.798   2.002  17.999  0.00  0.00    +0.000 C 
ATOM     11  O   UNL     1       2.526   1.482  18.423  0.00  0.00    +0.000 OA
ATOM     12  C   UNL     1       1.575   2.552  18.555  0.00  0.00    +0.000 C 
ATOM     13  C   UNL     1       2.026   3.590  19.599  0.00  0.00    +0.000 C 
ATOM     14  N   UNL     1       2.658   6.259  19.007  0.00  0.00    +0.000 NA
ATOM     15  H   UNL     1       1.095   7.952  18.955  0.00  0.00    +0.000 HD
ATOM     16  H   UNL     1       5.888   8.041  16.572  0.00  0.00    +0.000 HD
ENDROOT
BRANCH   1  17
ATOM     17  C   UNL     1       1.875   9.536  17.854  0.00  0.00    +0.000 C 
BRANCH  17  18
ATOM     18  C   UNL     1       0.807  10.585  18.244  0.00  0.00    +0.000 C 
BRANCH  18  20
ATOM     19  C   UNL     1       2.446  12.385  18.131  0.00  0.00    +0.000 C 
ATOM     20  N   UNL     1       1.346  11.800  18.900  0.00  0.00    +0.000 NA
ATOM     21  C   UNL     1       0.271  12.785  19.052  0.00  0.00    +0.000 C 
ENDBRANCH  18  20
ENDBRANCH  17  18
ENDBRANCH   1  17
BRANCH   5  22
ATOM     22  C   UNL     1       7.137   6.440  17.094  0.00  0.00    +0.000 C 
BRANCH  22  23
ATOM     23  C   UNL     1       7.665   7.145  18.343  0.00  0.00    +0.000 C 
BRANCH  23  24
ATOM     24  C   UNL     1       8.244   8.506  17.967  0.00  0.00    +0.000 C 
BRANCH  24  25
ATOM     25  N   UNL     1       8.893   9.120  19.127  0.00  0.00    +0.000 N 
ATOM     26  H   UNL     1       9.574   8.496  19.547  0.00  0.00    +0.000 HD
BRANCH  25  27
ATOM     27  C   UNL     1       9.395  10.437  18.990  0.00  0.00    +0.000 A 
ATOM     28  C   UNL     1       9.860  10.899  17.757  0.00  0.00    +0.000 A 
ATOM     29  C   UNL     1      10.283  12.209  17.636  0.00  0.00    +0.000 A 
ATOM     30  N   UNL     1      10.250  13.103  18.637  0.00  0.00    +0.000 NA
ATOM     31  C   UNL     1       9.766  12.700  19.815  0.00  0.00    +0.000 A 
ATOM     32  C   UNL     1       9.707  13.647  20.824  0.00  0.00    +0.000 A 
ATOM     33  C   UNL     1       9.215  13.334  22.086  0.00  0.00    +0.000 A 
ATOM     34 CL   UNL     1       9.163  14.542  23.310  0.00  0.00    +0.000 Cl
ATOM     35  C   UNL     1       8.764  12.052  22.362  0.00  0.00    +0.000 A 
ATOM     36  C   UNL     1       8.805  11.083  21.357  0.00  0.00    +0.000 A 
ATOM     37  C   UNL     1       9.306  11.378  20.061  0.00  0.00    +0.000 A 
ENDBRANCH  25  27
ENDBRANCH  24  25
ENDBRANCH  23  24
ENDBRANCH  22  23
ENDBRANCH   5  22
TORSDOF 8
ENDMDL
MODEL 8
REMARK VINA RESULT:      -7.6      4.519     10.396
REMARK  Name = 
REMARK  10 active torsions:
REMARK  status: ('A' for Active; 'I' for Inactive)
REMARK    1  A    between atoms: C_1  and  N_2
REMARK    2  A    between atoms: N_2  and  C_3
REMARK    3  A    between atoms: N_2  and  C_4
REMARK    4  A    between atoms: C_4  and  C_5
REMARK    5  A    between atoms: C_5  and  N_6
REMARK    6  A    between atoms: N_10  and  C_11
REMARK    7  A    between atoms: C_11  and  C_12
REMARK    8  A    between atoms: C_12  and  C_13
REMARK    9  A    between atoms: C_13  and  N_14
REMARK   10  A    between atoms: N_14  and  C_15
REMARK                            x       y       z     vdW  Elec       q    Type
REMARK                         _______ _______ _______ _____ _____    ______ ____
ROOT
ATOM      1  N   UNL     1      -2.861  11.681  17.396  0.00  0.00    +0.000 N 
ATOM      2  C   UNL     1      -1.870  11.718  18.374  0.00  0.00    +0.000 A 
ATOM      3  N   UNL     1      -1.515  10.605  19.000  0.00  0.00    +0.000 NA
ATOM      4  C   UNL     1      -0.582  10.751  19.922  0.00  0.00    +0.000 A 
ATOM      5  N   UNL     1      -0.289   9.622  20.680  0.00  0.00    +0.000 N 
ATOM      6  N   UNL     1       0.021  11.895  20.199  0.00  0.00    +0.000 NA
ATOM      7  C   UNL     1      -0.391  12.967  19.536  0.00  0.00    +0.000 A 
ATOM      8  N   UNL     1       0.243  14.169  19.776  0.00  0.00    +0.000 N 
ATOM      9  C   UNL     1       1.288  14.246  20.803  0.00  0.00    +0.000 C 
ATOM     10  C   UNL     1       0.762  14.938  22.068  0.00  0.00    +0.000 C 
ATOM     11  O   UNL     1       0.191  16.222  21.762  0.00  0.00    +0.000 OA
ATOM     12  C   UNL     1      -0.915  16.066  20.856  0.00  0.00    +0.000 C 
ATOM     13  C   UNL     1      -0.479  15.421  19.528  0.00  0.00    +0.000 C 
ATOM     14  N   UNL     1      -1.354  12.914  18.624  0.00  0.00    +0.000 NA
ATOM     15  H   UNL     1      -3.276  12.609  17.389  0.00  0.00    +0.000 HD
ATOM     16  H   UNL     1      -0.749   8.839  20.228  0.00  0.00    +0.000 HD
ENDROOT
BRANCH   1  17
ATOM     17  C   UNL     1      -3.845  10.613  17.534  0.00  0.00    +0.000 C 
BRANCH  17  18
ATOM     18  C   UNL     1      -5.131  11.078  18.255  0.00  0.00    +0.000 C 
BRANCH  18  20
ATOM     19  C   UNL     1      -6.514  12.761  17.162  0.00  0.00    +0.000 C 
ATOM     20  N   UNL     1      -5.429  12.524  18.115  0.00  0.00    +0.000 NA
ATOM     21  C   UNL     1      -5.793  13.072  19.426  0.00  0.00    +0.000 C 
ENDBRANCH  18  20
ENDBRANCH  17  18
ENDBRANCH   1  17
BRANCH   5  22
ATOM     22  C   UNL     1       1.119   9.431  20.971  0.00  0.00    +0.000 C 
BRANCH  22  23
ATOM     23  C   UNL     1       1.612   8.172  20.258  0.00  0.00    +0.000 C 
BRANCH  23  24
ATOM     24  C   UNL     1       1.124   6.929  20.998  0.00  0.00    +0.000 C 
BRANCH  24  25
ATOM     25  N   UNL     1       2.157   5.893  20.988  0.00  0.00    +0.000 N 
ATOM     26  H   UNL     1       2.355   5.554  21.924  0.00  0.00    +0.000 HD
BRANCH  25  27
ATOM     27  C   UNL     1       2.030   4.833  20.058  0.00  0.00    +0.000 A 
ATOM     28  C   UNL     1       0.977   3.919  20.157  0.00  0.00    +0.000 A 
ATOM     29  C   UNL     1       0.838   2.934  19.198  0.00  0.00    +0.000 A 
ATOM     30  N   UNL     1       1.645   2.806  18.133  0.00  0.00    +0.000 NA
ATOM     31  C   UNL     1       2.632   3.695  17.988  0.00  0.00    +0.000 A 
ATOM     32  C   UNL     1       3.429   3.567  16.864  0.00  0.00    +0.000 A 
ATOM     33  C   UNL     1       4.480   4.443  16.616  0.00  0.00    +0.000 A 
ATOM     34 CL   UNL     1       5.448   4.244  15.207  0.00  0.00    +0.000 Cl
ATOM     35  C   UNL     1       4.751   5.477  17.498  0.00  0.00    +0.000 A 
ATOM     36  C   UNL     1       3.953   5.632  18.634  0.00  0.00    +0.000 A 
ATOM     37  C   UNL     1       2.876   4.749  18.911  0.00  0.00    +0.000 A 
ENDBRANCH  25  27
ENDBRANCH  24  25
ENDBRANCH  23  24
ENDBRANCH  22  23
ENDBRANCH   5  22
TORSDOF 8
ENDMDL
MODEL 9
REMARK VINA RESULT:      -7.5      1.993      2.539
REMARK  Name = 
REMARK  10 active torsions:
REMARK  status: ('A' for Active; 'I' for Inactive)
REMARK    1  A    between atoms: C_1  and  N_2
REMARK    2  A    between atoms: N_2  and  C_3
REMARK    3  A    between atoms: N_2  and  C_4
REMARK    4  A    between atoms: C_4  and  C_5
REMARK    5  A    between atoms: C_5  and  N_6
REMARK    6  A    between atoms: N_10  and  C_11
REMARK    7  A    between atoms: C_11  and  C_12
REMARK    8  A    between atoms: C_12  and  C_13
REMARK    9  A    between atoms: C_13  and  N_14
REMARK   10  A    between atoms: N_14  and  C_15
REMARK                            x       y       z     vdW  Elec       q    Type
REMARK                         _______ _______ _______ _____ _____    ______ ____
ROOT
ATOM      1  N   UNL     1       5.537   3.852  16.240  0.00  0.00    +0.000 N 
ATOM      2  C   UNL     1       4.528   4.404  17.025  0.00  0.00    +0.000 A 
ATOM      3  N   UNL     1       4.300   5.709  16.991  0.00  0.00    +0.000 NA
ATOM      4  C   UNL     1       3.336   6.133  17.787  0.00  0.00    +0.000 A 
ATOM      5  N   UNL     1       3.168   7.512  17.864  0.00  0.00    +0.000 N 
ATOM      6  N   UNL     1       2.590   5.344  18.542  0.00  0.00    +0.000 NA
ATOM      7  C   UNL     1       2.881   4.050  18.528  0.00  0.00    +0.000 A 
ATOM      8  N   UNL     1       2.097   3.195  19.277  0.00  0.00    +0.000 N 
ATOM      9  C   UNL     1       1.029   3.742  20.120  0.00  0.00    +0.000 C 
ATOM     10  C   UNL     1       1.436   3.726  21.600  0.00  0.00    +0.000 C 
ATOM     11  O   UNL     1       1.850   2.412  22.013  0.00  0.00    +0.000 OA
ATOM     12  C   UNL     1       2.987   1.988  21.241  0.00  0.00    +0.000 C 
ATOM     13  C   UNL     1       2.663   1.924  19.738  0.00  0.00    +0.000 C 
ATOM     14  N   UNL     1       3.862   3.548  17.789  0.00  0.00    +0.000 NA
ATOM     15  H   UNL     1       5.834   3.010  16.724  0.00  0.00    +0.000 HD
ATOM     16  H   UNL     1       3.731   7.917  17.123  0.00  0.00    +0.000 HD
ENDROOT
BRANCH   1  17
ATOM     17  C   UNL     1       6.643   4.746  15.913  0.00  0.00    +0.000 C 
BRANCH  17  18
ATOM     18  C   UNL     1       7.654   4.892  17.074  0.00  0.00    +0.000 C 
BRANCH  18  20
ATOM     19  C   UNL     1       8.049   5.767  19.313  0.00  0.00    +0.000 C 
ATOM     20  N   UNL     1       7.313   5.945  18.060  0.00  0.00    +0.000 NA
ATOM     21  C   UNL     1       7.618   7.260  17.489  0.00  0.00    +0.000 C 
ENDBRANCH  18  20
ENDBRANCH  17  18
ENDBRANCH   1  17
BRANCH   5  22
ATOM     22  C   UNL     1       1.788   7.957  17.907  0.00  0.00    +0.000 C 
BRANCH  22  23
ATOM     23  C   UNL     1       1.754   9.485  17.906  0.00  0.00    +0.000 C 
BRANCH  23  24
ATOM     24  C   UNL     1       0.308   9.974  17.909  0.00  0.00    +0.000 C 
BRANCH  24  25
ATOM     25  N   UNL     1       0.241  11.363  18.364  0.00  0.00    +0.000 N 
ATOM     26  H   UNL     1       0.336  12.014  17.592  0.00  0.00    +0.000 HD
BRANCH  25  27
ATOM     27  C   UNL     1      -0.811  11.729  19.238  0.00  0.00    +0.000 A 
ATOM     28  C   UNL     1      -0.540  12.196  20.526  0.00  0.00    +0.000 A 
ATOM     29  C   UNL     1      -1.582  12.608  21.335  0.00  0.00    +0.000 A 
ATOM     30  N   UNL     1      -2.869  12.622  20.950  0.00  0.00    +0.000 NA
ATOM     31  C   UNL     1      -3.151  12.225  19.706  0.00  0.00    +0.000 A 
ATOM     32  C   UNL     1      -4.479  12.282  19.318  0.00  0.00    +0.000 A 
ATOM     33  C   UNL     1      -4.880  11.897  18.044  0.00  0.00    +0.000 A 
ATOM     34 CL   UNL     1      -6.541  11.980  17.606  0.00  0.00    +0.000 Cl
ATOM     35  C   UNL     1      -3.945  11.447  17.124  0.00  0.00    +0.000 A 
ATOM     36  C   UNL     1      -2.598  11.391  17.490  0.00  0.00    +0.000 A 
ATOM     37  C   UNL     1      -2.165  11.775  18.786  0.00  0.00    +0.000 A 
ENDBRANCH  25  27
ENDBRANCH  24  25
ENDBRANCH  23  24
ENDBRANCH  22  23
ENDBRANCH   5  22
TORSDOF 8
ENDMDL
