MODEL 1
REMARK VINA RESULT:      -8.3      0.000      0.000
REMARK  Name = 
REMARK  11 active torsions:
REMARK  status: ('A' for Active; 'I' for Inactive)
REMARK    1  A    between atoms: C_1  and  N_2
REMARK    2  A    between atoms: N_2  and  C_3
REMARK    3  A    between atoms: C_4  and  C_5
REMARK    4  A    between atoms: C_5  and  O_7
REMARK    5  A    between atoms: O_7  and  C_8
REMARK    6  A    between atoms: C_9  and  C_10
REMARK    7  A    between atoms: C_14  and  N_15
REMARK    8  A    between atoms: C_19  and  C_20
REMARK    9  A    between atoms: C_20  and  O_22
REMARK   10  A    between atoms: O_22  and  C_23
REMARK   11  A    between atoms: C_24  and  C_25
REMARK                            x       y       z     vdW  Elec       q    Type
REMARK                         _______ _______ _______ _____ _____    ______ ____
ROOT
ATOM      1  C   UNL     1       2.142   6.652  20.115  0.00  0.00    +0.000 C 
ATOM      2  C   UNL     1       2.500   6.532  18.816  0.00  0.00    +0.000 C 
ATOM      3  C   UNL     1       2.731   5.184  18.143  0.00  0.00    +0.000 C 
ATOM      4  C   UNL     1       2.170   3.993  18.919  0.00  0.00    +0.000 C 
ATOM      5  C   UNL     1       1.872   4.085  20.236  0.00  0.00    +0.000 C 
ATOM      6  C   UNL     1       1.444   2.971  21.158  0.00  0.00    +0.000 C 
ATOM      7  C   UNL     1       1.973   5.404  20.972  0.00  0.00    +0.000 C 
ENDROOT
BRANCH   3   8
ATOM      8  C   UNL     1       4.235   4.985  17.901  0.00  0.00    +0.000 A 
ATOM      9  C   UNL     1       5.139   4.978  18.981  0.00  0.00    +0.000 A 
ATOM     10  C   UNL     1       6.510   4.848  18.776  0.00  0.00    +0.000 A 
ATOM     11  C   UNL     1       7.010   4.716  17.485  0.00  0.00    +0.000 A 
ATOM     12  C   UNL     1       6.121   4.708  16.400  0.00  0.00    +0.000 A 
ATOM     13  C   UNL     1       4.739   4.839  16.600  0.00  0.00    +0.000 A 
BRANCH  12  14
ATOM     14  N   UNL     1       6.651   4.576  15.038  0.00  0.00    +0.000 N 
ATOM     15  O   UNL     1       7.593   5.311  14.710  0.00  0.00    +0.000 OA
ATOM     16  O   UNL     1       6.120   3.740  14.291  0.00  0.00    +0.000 OA
ENDBRANCH  12  14
ENDBRANCH   3   8
BRANCH   1  18
ATOM     17  C   UNL     1       0.708   8.425  21.245  0.00  0.00    +0.000 C 
ATOM     18  N   UNL     1       1.950   7.867  20.761  0.00  0.00    +0.000 N 
ATOM     19  H   UNL     1       2.806   8.286  21.146  0.00  0.00    +0.000 HD
ENDBRANCH   1  18
BRANCH   2  20
ATOM     20  C   UNL     1       2.759   7.755  17.993  0.00  0.00    +0.000 C 
ATOM     21  O   UNL     1       3.856   8.062  17.547  0.00  0.00    +0.000 OA
BRANCH  20  22
ATOM     22  O   UNL     1       1.614   8.450  17.788  0.00  0.00    +0.000 OA
ATOM     23  C   UNL     1       1.742   9.872  17.883  0.00  0.00    +0.000 C 
ENDBRANCH  20  22
ENDBRANCH   2  20
BRANCH   4  24
ATOM     24  C   UNL     1       2.031   2.713  18.156  0.00  0.00    +0.000 C 
ATOM     25  O   UNL     1       0.974   2.174  17.869  0.00  0.00    +0.000 OA
BRANCH  24  26
ATOM     26  O   UNL     1       3.256   2.234  17.812  0.00  0.00    +0.000 OA
ATOM     27  C   UNL     1       3.789   1.280  18.736  0.00  0.00    +0.000 C 
ENDBRANCH  24  26
ENDBRANCH   4  24
TORSDOF 7
ENDMDL
MODEL 2
REMARK VINA RESULT:      -8.0      0.630      1.213
REMARK  Name = 
REMARK  11 active torsions:
REMARK  status: ('A' for Active; 'I' for Inactive)
REMARK    1  A    between atoms: C_1  and  N_2
REMARK    2  A    between atoms: N_2  and  C_3
REMARK    3  A    between atoms: C_4  and  C_5
REMARK    4  A    between atoms: C_5  and  O_7
REMARK    5  A    between atoms: O_7  and  C_8
REMARK    6  A    between atoms: C_9  and  C_10
REMARK    7  A    between atoms: C_14  and  N_15
REMARK    8  A    between atoms: C_19  and  C_20
REMARK    9  A    between atoms: C_20  and  O_22
REMARK   10  A    between atoms: O_22  and  C_23
REMARK   11  A    between atoms: C_24  and  C_25
REMARK                            x       y       z     vdW  Elec       q    Type
REMARK                         _______ _______ _______ _____ _____    ______ ____
ROOT
ATOM      1  C   UNL     1       2.400   6.483  20.183  0.00  0.00    +0.000 C 
ATOM      2  C   UNL     1       2.724   6.313  18.880  0.00  0.00    +0.000 C 
ATOM      3  C   UNL     1       3.128   4.963  18.298  0.00  0.00    +0.000 C 
ATOM      4  C   UNL     1       2.780   3.769  19.187  0.00  0.00    +0.000 C 
ATOM      5  C   UNL     1       2.520   3.922  20.506  0.00  0.00    +0.000 C 
ATOM      6  C   UNL     1       2.298   2.836  21.528  0.00  0.00    +0.000 C 
ATOM      7  C   UNL     1       2.450   5.296  21.136  0.00  0.00    +0.000 C 
ENDROOT
BRANCH   3   8
ATOM      8  C   UNL     1       4.635   4.966  18.000  0.00  0.00    +0.000 A 
ATOM      9  C   UNL     1       5.569   5.186  19.032  0.00  0.00    +0.000 A 
ATOM     10  C   UNL     1       6.936   5.242  18.771  0.00  0.00    +0.000 A 
ATOM     11  C   UNL     1       7.402   5.074  17.471  0.00  0.00    +0.000 A 
ATOM     12  C   UNL     1       6.486   4.840  16.435  0.00  0.00    +0.000 A 
ATOM     13  C   UNL     1       5.108   4.784  16.692  0.00  0.00    +0.000 A 
BRANCH  12  14
ATOM     14  N   UNL     1       6.979   4.669  15.064  0.00  0.00    +0.000 N 
ATOM     15  O   UNL     1       6.472   3.771  14.376  0.00  0.00    +0.000 OA
ATOM     16  O   UNL     1       7.879   5.428  14.676  0.00  0.00    +0.000 OA
ENDBRANCH  12  14
ENDBRANCH   3   8
BRANCH   1  18
ATOM     17  C   UNL     1       0.772   8.096  21.290  0.00  0.00    +0.000 C 
ATOM     18  N   UNL     1       2.052   7.705  20.745  0.00  0.00    +0.000 N 
ATOM     19  H   UNL     1       2.850   8.290  21.021  0.00  0.00    +0.000 HD
ENDBRANCH   1  18
BRANCH   2  20
ATOM     20  C   UNL     1       2.766   7.490  17.957  0.00  0.00    +0.000 C 
ATOM     21  O   UNL     1       3.775   7.873  17.381  0.00  0.00    +0.000 OA
BRANCH  20  22
ATOM     22  O   UNL     1       1.538   8.048  17.829  0.00  0.00    +0.000 OA
ATOM     23  C   UNL     1       1.520   9.479  17.814  0.00  0.00    +0.000 C 
ENDBRANCH  20  22
ENDBRANCH   2  20
BRANCH   4  24
ATOM     24  C   UNL     1       2.806   2.425  18.529  0.00  0.00    +0.000 C 
ATOM     25  O   UNL     1       3.707   1.607  18.630  0.00  0.00    +0.000 OA
BRANCH  24  26
ATOM     26  O   UNL     1       1.671   2.232  17.805  0.00  0.00    +0.000 OA
ATOM     27  C   UNL     1       0.472   2.265  18.585  0.00  0.00    +0.000 C 
ENDBRANCH  24  26
ENDBRANCH   4  24
TORSDOF 7
ENDMDL
MODEL 3
REMARK VINA RESULT:      -7.7      1.737      2.097
REMARK  Name = 
REMARK  11 active torsions:
REMARK  status: ('A' for Active; 'I' for Inactive)
REMARK    1  A    between atoms: C_1  and  N_2
REMARK    2  A    between atoms: N_2  and  C_3
REMARK    3  A    between atoms: C_4  and  C_5
REMARK    4  A    between atoms: C_5  and  O_7
REMARK    5  A    between atoms: O_7  and  C_8
REMARK    6  A    between atoms: C_9  and  C_10
REMARK    7  A    between atoms: C_14  and  N_15
REMARK    8  A    between atoms: C_19  and  C_20
REMARK    9  A    between atoms: C_20  and  O_22
REMARK   10  A    between atoms: O_22  and  C_23
REMARK   11  A    between atoms: C_24  and  C_25
REMARK                            x       y       z     vdW  Elec       q    Type
REMARK                         _______ _______ _______ _____ _____    ______ ____
ROOT
ATOM      1  C   UNL     1       2.173   6.777  20.109  0.00  0.00    +0.000 C 
ATOM      2  C   UNL     1       2.429   6.581  18.795  0.00  0.00    +0.000 C 
ATOM      3  C   UNL     1       2.664   5.199  18.195  0.00  0.00    +0.000 C 
ATOM      4  C   UNL     1       2.222   4.044  19.093  0.00  0.00    +0.000 C 
ATOM      5  C   UNL     1       2.028   4.216  20.421  0.00  0.00    +0.000 C 
ATOM      6  C   UNL     1       1.727   3.153  21.448  0.00  0.00    +0.000 C 
ATOM      7  C   UNL     1       2.130   5.586  21.057  0.00  0.00    +0.000 C 
ENDROOT
BRANCH   3   8
ATOM      8  C   UNL     1       4.151   5.043  17.842  0.00  0.00    +0.000 A 
ATOM      9  C   UNL     1       4.540   4.389  16.656  0.00  0.00    +0.000 A 
ATOM     10  C   UNL     1       5.883   4.195  16.345  0.00  0.00    +0.000 A 
ATOM     11  C   UNL     1       6.871   4.655  17.210  0.00  0.00    +0.000 A 
ATOM     12  C   UNL     1       6.499   5.319  18.388  0.00  0.00    +0.000 A 
ATOM     13  C   UNL     1       5.148   5.517  18.708  0.00  0.00    +0.000 A 
BRANCH  12  14
ATOM     14  N   UNL     1       7.541   5.799  19.303  0.00  0.00    +0.000 N 
ATOM     15  O   UNL     1       7.641   5.244  20.407  0.00  0.00    +0.000 OA
ATOM     16  O   UNL     1       8.258   6.735  18.921  0.00  0.00    +0.000 OA
ENDBRANCH  12  14
ENDBRANCH   3   8
BRANCH   1  18
ATOM     17  C   UNL     1       0.833   8.486  21.436  0.00  0.00    +0.000 C 
ATOM     18  N   UNL     1       1.979   8.026  20.687  0.00  0.00    +0.000 N 
ATOM     19  H   UNL     1       2.836   8.581  20.800  0.00  0.00    +0.000 HD
ENDBRANCH   1  18
BRANCH   2  20
ATOM     20  C   UNL     1       2.564   7.752  17.874  0.00  0.00    +0.000 C 
ATOM     21  O   UNL     1       3.519   7.934  17.131  0.00  0.00    +0.000 OA
BRANCH  20  22
ATOM     22  O   UNL     1       1.479   8.560  17.957  0.00  0.00    +0.000 OA
ATOM     23  C   UNL     1       1.757   9.961  17.873  0.00  0.00    +0.000 C 
ENDBRANCH  20  22
ENDBRANCH   2  20
BRANCH   4  24
ATOM     24  C   UNL     1       2.079   2.709  18.431  0.00  0.00    +0.000 C 
ATOM     25  O   UNL     1       1.466   2.497  17.396  0.00  0.00    +0.000 OA
BRANCH  24  26
ATOM     26  O   UNL     1       2.744   1.758  19.139  0.00  0.00    +0.000 OA
ATOM     27  C   UNL     1       3.959   1.318  18.525  0.00  0.00    +0.000 C 
ENDBRANCH  24  26
ENDBRANCH   4  24
TORSDOF 7
ENDMDL
MODEL 4
REMARK VINA RESULT:      -7.6      1.849      2.356
REMARK  Name = 
REMARK  11 active torsions:
REMARK  status: ('A' for Active; 'I' for Inactive)
REMARK    1  A    between atoms: C_1  and  N_2
REMARK    2  A    between atoms: N_2  and  C_3
REMARK    3  A    between atoms: C_4  and  C_5
REMARK    4  A    between atoms: C_5  and  O_7
REMARK    5  A    between atoms: O_7  and  C_8
REMARK    6  A    between atoms: C_9  and  C_10
REMARK    7  A    between atoms: C_14  and  N_15
REMARK    8  A    between atoms: C_19  and  C_20
REMARK    9  A    between atoms: C_20  and  O_22
REMARK   10  A    between atoms: O_22  and  C_23
REMARK   11  A    between atoms: C_24  and  C_25
REMARK                            x       y       z     vdW  Elec       q    Type
REMARK                         _______ _______ _______ _____ _____    ______ ____
ROOT
ATOM      1  C   UNL     1       2.395   6.462  20.055  0.00  0.00    +0.000 C 
ATOM      2  C   UNL     1       2.689   6.255  18.750  0.00  0.00    +0.000 C 
ATOM      3  C   UNL     1       3.061   4.886  18.193  0.00  0.00    +0.000 C 
ATOM      4  C   UNL     1       2.714   3.719  19.117  0.00  0.00    +0.000 C 
ATOM      5  C   UNL     1       2.484   3.908  20.438  0.00  0.00    +0.000 C 
ATOM      6  C   UNL     1       2.268   2.850  21.490  0.00  0.00    +0.000 C 
ATOM      7  C   UNL     1       2.448   5.298  21.036  0.00  0.00    +0.000 C 
ENDROOT
BRANCH   3   8
ATOM      8  C   UNL     1       4.561   4.859  17.864  0.00  0.00    +0.000 A 
ATOM      9  C   UNL     1       5.020   4.288  16.661  0.00  0.00    +0.000 A 
ATOM     10  C   UNL     1       6.380   4.211  16.369  0.00  0.00    +0.000 A 
ATOM     11  C   UNL     1       7.313   4.710  17.272  0.00  0.00    +0.000 A 
ATOM     12  C   UNL     1       6.871   5.294  18.468  0.00  0.00    +0.000 A 
ATOM     13  C   UNL     1       5.503   5.373  18.768  0.00  0.00    +0.000 A 
BRANCH  12  14
ATOM     14  N   UNL     1       7.857   5.814  19.422  0.00  0.00    +0.000 N 
ATOM     15  O   UNL     1       8.028   5.184  20.476  0.00  0.00    +0.000 OA
ATOM     16  O   UNL     1       8.457   6.856  19.121  0.00  0.00    +0.000 OA
ENDBRANCH  12  14
ENDBRANCH   3   8
BRANCH   1  18
ATOM     17  C   UNL     1       0.887   8.070  21.327  0.00  0.00    +0.000 C 
ATOM     18  N   UNL     1       2.077   7.702  20.595  0.00  0.00    +0.000 N 
ATOM     19  H   UNL     1       2.875   8.342  20.693  0.00  0.00    +0.000 HD
ENDBRANCH   1  18
BRANCH   2  20
ATOM     20  C   UNL     1       2.729   7.409  17.798  0.00  0.00    +0.000 C 
ATOM     21  O   UNL     1       3.682   7.669  17.076  0.00  0.00    +0.000 OA
BRANCH  20  22
ATOM     22  O   UNL     1       1.564   8.100  17.827  0.00  0.00    +0.000 OA
ATOM     23  C   UNL     1       1.702   9.524  17.846  0.00  0.00    +0.000 C 
ENDBRANCH  20  22
ENDBRANCH   2  20
BRANCH   4  24
ATOM     24  C   UNL     1       2.706   2.360  18.492  0.00  0.00    +0.000 C 
ATOM     25  O   UNL     1       3.597   1.531  18.594  0.00  0.00    +0.000 OA
BRANCH  24  26
ATOM     26  O   UNL     1       1.553   2.166  17.798  0.00  0.00    +0.000 OA
ATOM     27  C   UNL     1       0.384   2.096  18.621  0.00  0.00    +0.000 C 
ENDBRANCH  24  26
ENDBRANCH   4  24
TORSDOF 7
ENDMDL
MODEL 5
REMARK VINA RESULT:      -7.2      2.131      5.675
REMARK  Name = 
REMARK  11 active torsions:
REMARK  status: ('A' for Active; 'I' for Inactive)
REMARK    1  A    between atoms: C_1  and  N_2
REMARK    2  A    between atoms: N_2  and  C_3
REMARK    3  A    between atoms: C_4  and  C_5
REMARK    4  A    between atoms: C_5  and  O_7
REMARK    5  A    between atoms: O_7  and  C_8
REMARK    6  A    between atoms: C_9  and  C_10
REMARK    7  A    between atoms: C_14  and  N_15
REMARK    8  A    between atoms: C_19  and  C_20
REMARK    9  A    between atoms: C_20  and  O_22
REMARK   10  A    between atoms: O_22  and  C_23
REMARK   11  A    between atoms: C_24  and  C_25
REMARK                            x       y       z     vdW  Elec       q    Type
REMARK                         _______ _______ _______ _____ _____    ______ ____
ROOT
ATOM      1  C   UNL     1       4.684   3.956  17.489  0.00  0.00    +0.000 C 
ATOM      2  C   UNL     1       4.749   4.891  18.465  0.00  0.00    +0.000 C 
ATOM      3  C   UNL     1       3.597   5.165  19.425  0.00  0.00    +0.000 C 
ATOM      4  C   UNL     1       2.531   4.071  19.452  0.00  0.00    +0.000 C 
ATOM      5  C   UNL     1       2.416   3.171  18.447  0.00  0.00    +0.000 C 
ATOM      6  C   UNL     1       1.340   2.130  18.268  0.00  0.00    +0.000 C 
ATOM      7  C   UNL     1       3.411   3.139  17.307  0.00  0.00    +0.000 C 
ENDROOT
BRANCH   3   8
ATOM      8  C   UNL     1       2.949   6.513  19.074  0.00  0.00    +0.000 A 
ATOM      9  C   UNL     1       3.067   7.048  17.776  0.00  0.00    +0.000 A 
ATOM     10  C   UNL     1       2.528   8.291  17.454  0.00  0.00    +0.000 A 
ATOM     11  C   UNL     1       1.853   9.027  18.422  0.00  0.00    +0.000 A 
ATOM     12  C   UNL     1       1.716   8.502  19.715  0.00  0.00    +0.000 A 
ATOM     13  C   UNL     1       2.258   7.251  20.046  0.00  0.00    +0.000 A 
BRANCH  12  14
ATOM     14  N   UNL     1       1.010   9.283  20.737  0.00  0.00    +0.000 N 
ATOM     15  O   UNL     1       0.171  10.111  20.354  0.00  0.00    +0.000 OA
ATOM     16  O   UNL     1       1.299   9.075  21.925  0.00  0.00    +0.000 OA
ENDBRANCH  12  14
ENDBRANCH   3   8
BRANCH   1  18
ATOM     17  C   UNL     1       5.805   4.142  15.211  0.00  0.00    +0.000 C 
ATOM     18  N   UNL     1       5.708   3.702  16.584  0.00  0.00    +0.000 N 
ATOM     19  H   UNL     1       6.586   3.383  17.012  0.00  0.00    +0.000 HD
ENDBRANCH   1  18
BRANCH   2  20
ATOM     20  C   UNL     1       5.960   5.761  18.592  0.00  0.00    +0.000 C 
ATOM     21  O   UNL     1       6.277   6.617  17.778  0.00  0.00    +0.000 OA
BRANCH  20  22
ATOM     22  O   UNL     1       6.632   5.489  19.736  0.00  0.00    +0.000 OA
ATOM     23  C   UNL     1       8.055   5.613  19.649  0.00  0.00    +0.000 C 
ENDBRANCH  20  22
ENDBRANCH   2  20
BRANCH   4  24
ATOM     24  C   UNL     1       1.590   4.092  20.615  0.00  0.00    +0.000 C 
ATOM     25  O   UNL     1       0.433   4.483  20.580  0.00  0.00    +0.000 OA
BRANCH  24  26
ATOM     26  O   UNL     1       2.201   3.600  21.726  0.00  0.00    +0.000 OA
ATOM     27  C   UNL     1       1.847   2.248  22.034  0.00  0.00    +0.000 C 
ENDBRANCH  24  26
ENDBRANCH   4  24
TORSDOF 7
ENDMDL
MODEL 6
REMARK VINA RESULT:      -7.1      2.065      5.577
REMARK  Name = 
REMARK  11 active torsions:
REMARK  status: ('A' for Active; 'I' for Inactive)
REMARK    1  A    between atoms: C_1  and  N_2
REMARK    2  A    between atoms: N_2  and  C_3
REMARK    3  A    between atoms: C_4  and  C_5
REMARK    4  A    between atoms: C_5  and  O_7
REMARK    5  A    between atoms: O_7  and  C_8
REMARK    6  A    between atoms: C_9  and  C_10
REMARK    7  A    between atoms: C_14  and  N_15
REMARK    8  A    between atoms: C_19  and  C_20
REMARK    9  A    between atoms: C_20  and  O_22
REMARK   10  A    between atoms: O_22  and  C_23
REMARK   11  A    between atoms: C_24  and  C_25
REMARK                            x       y       z     vdW  Elec       q    Type
REMARK                         _______ _______ _______ _____ _____    ______ ____
ROOT
ATOM      1  C   UNL     1       5.376   4.094  17.425  0.00  0.00    +0.000 C 
ATOM      2  C   UNL     1       5.240   4.936  18.476  0.00  0.00    +0.000 C 
ATOM      3  C   UNL     1       3.967   5.017  19.311  0.00  0.00    +0.000 C 
ATOM      4  C   UNL     1       3.016   3.836  19.118  0.00  0.00    +0.000 C 
ATOM      5  C   UNL     1       3.102   3.029  18.035  0.00  0.00    +0.000 C 
ATOM      6  C   UNL     1       2.160   1.919  17.643  0.00  0.00    +0.000 C 
ATOM      7  C   UNL     1       4.217   3.191  17.024  0.00  0.00    +0.000 C 
ENDROOT
BRANCH   3   8
ATOM      8  C   UNL     1       3.234   6.330  18.998  0.00  0.00    +0.000 A 
ATOM      9  C   UNL     1       3.324   6.913  17.719  0.00  0.00    +0.000 A 
ATOM     10  C   UNL     1       2.707   8.129  17.433  0.00  0.00    +0.000 A 
ATOM     11  C   UNL     1       1.979   8.787  18.418  0.00  0.00    +0.000 A 
ATOM     12  C   UNL     1       1.869   8.213  19.693  0.00  0.00    +0.000 A 
ATOM     13  C   UNL     1       2.489   6.990  19.988  0.00  0.00    +0.000 A 
BRANCH  12  14
ATOM     14  N   UNL     1       1.107   8.912  20.734  0.00  0.00    +0.000 N 
ATOM     15  O   UNL     1       1.011  10.145  20.650  0.00  0.00    +0.000 OA
ATOM     16  O   UNL     1       0.609   8.229  21.641  0.00  0.00    +0.000 OA
ENDBRANCH  12  14
ENDBRANCH   3   8
BRANCH   1  18
ATOM     17  C   UNL     1       6.647   4.376  15.238  0.00  0.00    +0.000 C 
ATOM     18  N   UNL     1       6.514   4.017  16.632  0.00  0.00    +0.000 N 
ATOM     19  H   UNL     1       7.394   3.932  17.155  0.00  0.00    +0.000 HD
ENDBRANCH   1  18
BRANCH   2  20
ATOM     20  C   UNL     1       6.338   5.892  18.819  0.00  0.00    +0.000 C 
ATOM     21  O   UNL     1       7.006   5.831  19.842  0.00  0.00    +0.000 OA
BRANCH  20  22
ATOM     22  O   UNL     1       6.506   6.808  17.834  0.00  0.00    +0.000 OA
ATOM     23  C   UNL     1       7.773   7.474  17.833  0.00  0.00    +0.000 C 
ENDBRANCH  20  22
ENDBRANCH   2  20
BRANCH   4  24
ATOM     24  C   UNL     1       1.953   3.666  20.158  0.00  0.00    +0.000 C 
ATOM     25  O   UNL     1       0.789   4.013  20.040  0.00  0.00    +0.000 OA
BRANCH  24  26
ATOM     26  O   UNL     1       2.464   3.053  21.259  0.00  0.00    +0.000 OA
ATOM     27  C   UNL     1       1.484   2.390  22.064  0.00  0.00    +0.000 C 
ENDBRANCH  24  26
ENDBRANCH   4  24
TORSDOF 7
ENDMDL
MODEL 7
REMARK VINA RESULT:      -6.8      1.850      2.317
REMARK  Name = 
REMARK  11 active torsions:
REMARK  status: ('A' for Active; 'I' for Inactive)
REMARK    1  A    between atoms: C_1  and  N_2
REMARK    2  A    between atoms: N_2  and  C_3
REMARK    3  A    between atoms: C_4  and  C_5
REMARK    4  A    between atoms: C_5  and  O_7
REMARK    5  A    between atoms: O_7  and  C_8
REMARK    6  A    between atoms: C_9  and  C_10
REMARK    7  A    between atoms: C_14  and  N_15
REMARK    8  A    between atoms: C_19  and  C_20
REMARK    9  A    between atoms: C_20  and  O_22
REMARK   10  A    between atoms: O_22  and  C_23
REMARK   11  A    between atoms: C_24  and  C_25
REMARK                            x       y       z     vdW  Elec       q    Type
REMARK                         _______ _______ _______ _____ _____    ______ ____
ROOT
ATOM      1  C   UNL     1       1.989   7.299  20.313  0.00  0.00    +0.000 C 
ATOM      2  C   UNL     1       2.181   7.285  18.974  0.00  0.00    +0.000 C 
ATOM      3  C   UNL     1       2.558   6.023  18.207  0.00  0.00    +0.000 C 
ATOM      4  C   UNL     1       2.335   4.727  18.985  0.00  0.00    +0.000 C 
ATOM      5  C   UNL     1       2.209   4.725  20.333  0.00  0.00    +0.000 C 
ATOM      6  C   UNL     1       2.121   3.526  21.243  0.00  0.00    +0.000 C 
ATOM      7  C   UNL     1       2.168   6.019  21.118  0.00  0.00    +0.000 C 
ENDROOT
BRANCH   3   8
ATOM      8  C   UNL     1       4.026   6.116  17.762  0.00  0.00    +0.000 A 
ATOM      9  C   UNL     1       4.359   6.637  16.497  0.00  0.00    +0.000 A 
ATOM     10  C   UNL     1       5.680   6.682  16.058  0.00  0.00    +0.000 A 
ATOM     11  C   UNL     1       6.701   6.213  16.878  0.00  0.00    +0.000 A 
ATOM     12  C   UNL     1       6.386   5.703  18.146  0.00  0.00    +0.000 A 
ATOM     13  C   UNL     1       5.057   5.653  18.593  0.00  0.00    +0.000 A 
BRANCH  12  14
ATOM     14  N   UNL     1       7.463   5.201  19.007  0.00  0.00    +0.000 N 
ATOM     15  O   UNL     1       7.462   5.551  20.197  0.00  0.00    +0.000 OA
ATOM     16  O   UNL     1       8.315   4.462  18.494  0.00  0.00    +0.000 OA
ENDBRANCH  12  14
ENDBRANCH   3   8
BRANCH   1  18
ATOM     17  C   UNL     1       0.377   8.822  21.564  0.00  0.00    +0.000 C 
ATOM     18  N   UNL     1       1.669   8.439  21.042  0.00  0.00    +0.000 N 
ATOM     19  H   UNL     1       2.476   8.922  21.455  0.00  0.00    +0.000 HD
ENDBRANCH   1  18
BRANCH   2  20
ATOM     20  C   UNL     1       2.097   8.557  18.190  0.00  0.00    +0.000 C 
ATOM     21  O   UNL     1       3.020   9.351  18.072  0.00  0.00    +0.000 OA
BRANCH  20  22
ATOM     22  O   UNL     1       0.878   8.689  17.613  0.00  0.00    +0.000 OA
ATOM     23  C   UNL     1       0.138   9.846  18.015  0.00  0.00    +0.000 C 
ENDBRANCH  20  22
ENDBRANCH   2  20
BRANCH   4  24
ATOM     24  C   UNL     1       2.328   3.465  18.180  0.00  0.00    +0.000 C 
ATOM     25  O   UNL     1       3.317   2.815  17.879  0.00  0.00    +0.000 OA
BRANCH  24  26
ATOM     26  O   UNL     1       1.055   3.130  17.839  0.00  0.00    +0.000 OA
ATOM     27  C   UNL     1       0.496   2.080  18.635  0.00  0.00    +0.000 C 
ENDBRANCH  24  26
ENDBRANCH   4  24
TORSDOF 7
ENDMDL
MODEL 8
REMARK VINA RESULT:      -6.7      2.040      5.865
REMARK  Name = 
REMARK  11 active torsions:
REMARK  status: ('A' for Active; 'I' for Inactive)
REMARK    1  A    between atoms: C_1  and  N_2
REMARK    2  A    between atoms: N_2  and  C_3
REMARK    3  A    between atoms: C_4  and  C_5
REMARK    4  A    between atoms: C_5  and  O_7
REMARK    5  A    between atoms: O_7  and  C_8
REMARK    6  A    between atoms: C_9  and  C_10
REMARK    7  A    between atoms: C_14  and  N_15
REMARK    8  A    between atoms: C_19  and  C_20
REMARK    9  A    between atoms: C_20  and  O_22
REMARK   10  A    between atoms: O_22  and  C_23
REMARK   11  A    between atoms: C_24  and  C_25
REMARK                            x       y       z     vdW  Elec       q    Type
REMARK                         _______ _______ _______ _____ _____    ______ ____
ROOT
ATOM      1  C   UNL     1       4.491   3.285  18.963  0.00  0.00    +0.000 C 
ATOM      2  C   UNL     1       3.557   3.973  18.266  0.00  0.00    +0.000 C 
ATOM      3  C   UNL     1       3.817   5.354  17.675  0.00  0.00    +0.000 C 
ATOM      4  C   UNL     1       5.295   5.733  17.599  0.00  0.00    +0.000 C 
ATOM      5  C   UNL     1       6.228   5.095  18.343  0.00  0.00    +0.000 C 
ATOM      6  C   UNL     1       7.689   5.443  18.477  0.00  0.00    +0.000 C 
ATOM      7  C   UNL     1       5.864   3.900  19.198  0.00  0.00    +0.000 C 
ENDROOT
BRANCH   3   8
ATOM      8  C   UNL     1       3.051   6.409  18.487  0.00  0.00    +0.000 A 
ATOM      9  C   UNL     1       2.738   6.183  19.841  0.00  0.00    +0.000 A 
ATOM     10  C   UNL     1       2.001   7.107  20.578  0.00  0.00    +0.000 A 
ATOM     11  C   UNL     1       1.564   8.283  19.978  0.00  0.00    +0.000 A 
ATOM     12  C   UNL     1       1.878   8.529  18.634  0.00  0.00    +0.000 A 
ATOM     13  C   UNL     1       2.619   7.602  17.886  0.00  0.00    +0.000 A 
BRANCH  12  14
ATOM     14  N   UNL     1       1.411   9.767  18.000  0.00  0.00    +0.000 N 
ATOM     15  O   UNL     1       0.188   9.970  17.961  0.00  0.00    +0.000 OA
ATOM     16  O   UNL     1       2.265  10.535  17.535  0.00  0.00    +0.000 OA
ENDBRANCH  12  14
ENDBRANCH   3   8
BRANCH   1  18
ATOM     17  C   UNL     1       4.815   1.524  20.772  0.00  0.00    +0.000 C 
ATOM     18  N   UNL     1       4.274   2.037  19.534  0.00  0.00    +0.000 N 
ATOM     19  H   UNL     1       3.459   1.534  19.162  0.00  0.00    +0.000 HD
ENDBRANCH   1  18
BRANCH   2  20
ATOM     20  C   UNL     1       2.176   3.417  18.110  0.00  0.00    +0.000 C 
ATOM     21  O   UNL     1       1.482   3.575  17.115  0.00  0.00    +0.000 OA
BRANCH  20  22
ATOM     22  O   UNL     1       1.819   2.698  19.201  0.00  0.00    +0.000 OA
ATOM     23  C   UNL     1       0.792   3.285  20.006  0.00  0.00    +0.000 C 
ENDBRANCH  20  22
ENDBRANCH   2  20
BRANCH   4  24
ATOM     24  C   UNL     1       5.637   6.886  16.707  0.00  0.00    +0.000 C 
ATOM     25  O   UNL     1       6.235   7.893  17.053  0.00  0.00    +0.000 OA
BRANCH  24  26
ATOM     26  O   UNL     1       5.199   6.649  15.442  0.00  0.00    +0.000 OA
ATOM     27  C   UNL     1       5.748   5.470  14.847  0.00  0.00    +0.000 C 
ENDBRANCH  24  26
ENDBRANCH   4  24
TORSDOF 7
ENDMDL
MODEL 9
REMARK VINA RESULT:      -6.6      0.538      1.155
REMARK  Name = 
REMARK  11 active torsions:
REMARK  status: ('A' for Active; 'I' for Inactive)
REMARK    1  A    between atoms: C_1  and  N_2
REMARK    2  A    between atoms: N_2  and  C_3
REMARK    3  A    between atoms: C_4  and  C_5
REMARK    4  A    between atoms: C_5  and  O_7
REMARK    5  A    between atoms: O_7  and  C_8
REMARK    6  A    between atoms: C_9  and  C_10
REMARK    7  A    between atoms: C_14  and  N_15
REMARK    8  A    between atoms: C_19  and  C_20
REMARK    9  A    between atoms: C_20  and  O_22
REMARK   10  A    between atoms: O_22  and  C_23
REMARK   11  A    between atoms: C_24  and  C_25
REMARK                            x       y       z     vdW  Elec       q    Type
REMARK                         _______ _______ _______ _____ _____    ______ ____
ROOT
ATOM      1  C   UNL     1       2.157   6.612  19.992  0.00  0.00    +0.000 C 
ATOM      2  C   UNL     1       2.510   6.450  18.696  0.00  0.00    +0.000 C 
ATOM      3  C   UNL     1       2.712   5.079  18.060  0.00  0.00    +0.000 C 
ATOM      4  C   UNL     1       2.130   3.921  18.869  0.00  0.00    +0.000 C 
ATOM      5  C   UNL     1       1.837   4.055  20.184  0.00  0.00    +0.000 C 
ATOM      6  C   UNL     1       1.390   2.976  21.138  0.00  0.00    +0.000 C 
ATOM      7  C   UNL     1       1.966   5.392  20.883  0.00  0.00    +0.000 C 
ENDROOT
BRANCH   3   8
ATOM      8  C   UNL     1       4.211   4.844  17.821  0.00  0.00    +0.000 A 
ATOM      9  C   UNL     1       5.107   4.776  18.905  0.00  0.00    +0.000 A 
ATOM     10  C   UNL     1       6.476   4.613  18.704  0.00  0.00    +0.000 A 
ATOM     11  C   UNL     1       6.980   4.508  17.412  0.00  0.00    +0.000 A 
ATOM     12  C   UNL     1       6.099   4.561  16.322  0.00  0.00    +0.000 A 
ATOM     13  C   UNL     1       4.720   4.726  16.518  0.00  0.00    +0.000 A 
BRANCH  12  14
ATOM     14  N   UNL     1       6.633   4.457  14.959  0.00  0.00    +0.000 N 
ATOM     15  O   UNL     1       6.126   3.616  14.202  0.00  0.00    +0.000 OA
ATOM     16  O   UNL     1       7.566   5.211  14.646  0.00  0.00    +0.000 OA
ENDBRANCH  12  14
ENDBRANCH   3   8
BRANCH   1  18
ATOM     17  C   UNL     1       0.820   8.345  21.290  0.00  0.00    +0.000 C 
ATOM     18  N   UNL     1       1.990   7.848  20.604  0.00  0.00    +0.000 N 
ATOM     19  H   UNL     1       2.866   8.350  20.798  0.00  0.00    +0.000 HD
ENDBRANCH   1  18
BRANCH   2  20
ATOM     20  C   UNL     1       2.789   7.644  17.838  0.00  0.00    +0.000 C 
ATOM     21  O   UNL     1       2.128   8.673  17.859  0.00  0.00    +0.000 OA
BRANCH  20  22
ATOM     22  O   UNL     1       3.883   7.438  17.065  0.00  0.00    +0.000 OA
ATOM     23  C   UNL     1       5.073   8.097  17.508  0.00  0.00    +0.000 C 
ENDBRANCH  20  22
ENDBRANCH   2  20
BRANCH   4  24
ATOM     24  C   UNL     1       1.964   2.623  18.143  0.00  0.00    +0.000 C 
ATOM     25  O   UNL     1       0.897   2.078  17.907  0.00  0.00    +0.000 OA
BRANCH  24  26
ATOM     26  O   UNL     1       3.176   2.136  17.765  0.00  0.00    +0.000 OA
ATOM     27  C   UNL     1       3.769   1.249  18.719  0.00  0.00    +0.000 C 
ENDBRANCH  24  26
ENDBRANCH   4  24
TORSDOF 7
ENDMDL
