MODEL 1
REMARK VINA RESULT:      -8.4      0.000      0.000
REMARK  Name = 
REMARK  8 active torsions:
REMARK  status: ('A' for Active; 'I' for Inactive)
REMARK    1  A    between atoms: C_1  and  O_2
REMARK    2  A    between atoms: O_2  and  C_3
REMARK    3  A    between atoms: C_3  and  C_5
REMARK    4  A    between atoms: C_5  and  C_6
REMARK    5  A    between atoms: C_13  and  C_14
REMARK    6  A    between atoms: C_14  and  N_15
REMARK    7  A    between atoms: N_15  and  C_16
REMARK    8  A    between atoms: N_15  and  C_17
REMARK                            x       y       z     vdW  Elec       q    Type
REMARK                         _______ _______ _______ _____ _____    ______ ____
ROOT
ATOM      1  C   UNL     1       6.200   4.457  15.695  0.00  0.00    +0.000 C 
ATOM      2  C   UNL     1       5.499   3.282  16.377  0.00  0.00    +0.000 C 
ATOM      3  C   UNL     1       4.724   4.534  16.097  0.00  0.00    +0.000 C 
ENDROOT
BRANCH   1   4
ATOM      4  C   UNL     1       6.466   4.485  14.191  0.00  0.00    +0.000 A 
ATOM      5  C   UNL     1       5.867   3.579  13.303  0.00  0.00    +0.000 A 
ATOM      6  C   UNL     1       6.310   3.469  11.981  0.00  0.00    +0.000 A 
ATOM      7  C   UNL     1       7.352   4.271  11.522  0.00  0.00    +0.000 A 
ATOM      8  C   UNL     1       7.914   5.225  12.363  0.00  0.00    +0.000 A 
ATOM      9  C   UNL     1       7.463   5.338  13.678  0.00  0.00    +0.000 A 
ENDBRANCH   1   4
BRANCH   1  10
ATOM     10  C   UNL     1       7.346   5.017  16.492  0.00  0.00    +0.000 C 
ATOM     11  O   UNL     1       8.085   4.297  17.137  0.00  0.00    +0.000 OA
BRANCH  10  13
ATOM     12  C   UNL     1       7.640   7.079  17.520  0.00  0.00    +0.000 C 
ATOM     13  O   UNL     1       7.504   6.356  16.301  0.00  0.00    +0.000 OA
ENDBRANCH  10  13
ENDBRANCH   1  10
BRANCH   3  14
ATOM     14  C   UNL     1       4.199   5.407  17.210  0.00  0.00    +0.000 C 
BRANCH  14  15
ATOM     15  N   UNL     1       4.498   4.852  18.554  0.00  0.00    +0.000 NA
ATOM     16  C   UNL     1       5.076   5.890  19.427  0.00  0.00    +0.000 C 
BRANCH  15  17
ATOM     17  C   UNL     1       3.337   4.149  19.206  0.00  0.00    +0.000 C 
ATOM     18  C   UNL     1       2.123   4.048  18.225  0.00  0.00    +0.000 C 
ATOM     19  C   UNL     1       0.945   3.277  18.852  0.00  0.00    +0.000 C 
ATOM     20  C   UNL     1       1.386   1.851  19.195  0.00  0.00    +0.000 C 
ATOM     21  C   UNL     1       2.548   1.901  20.191  0.00  0.00    +0.000 C 
ATOM     22  C   UNL     1       2.110   2.625  21.473  0.00  0.00    +0.000 C 
ATOM     23  C   UNL     1       1.658   4.054  21.136  0.00  0.00    +0.000 C 
ATOM     24  C   UNL     1       0.494   3.992  20.136  0.00  0.00    +0.000 C 
ATOM     25  C   UNL     1       2.832   4.835  20.511  0.00  0.00    +0.000 C 
ATOM     26  C   UNL     1       3.721   2.669  19.565  0.00  0.00    +0.000 C 
ENDBRANCH  15  17
ENDBRANCH  14  15
ENDBRANCH   3  14
TORSDOF 6
ENDMDL
MODEL 2
REMARK VINA RESULT:      -8.4      0.062      1.477
REMARK  Name = 
REMARK  8 active torsions:
REMARK  status: ('A' for Active; 'I' for Inactive)
REMARK    1  A    between atoms: C_1  and  O_2
REMARK    2  A    between atoms: O_2  and  C_3
REMARK    3  A    between atoms: C_3  and  C_5
REMARK    4  A    between atoms: C_5  and  C_6
REMARK    5  A    between atoms: C_13  and  C_14
REMARK    6  A    between atoms: C_14  and  N_15
REMARK    7  A    between atoms: N_15  and  C_16
REMARK    8  A    between atoms: N_15  and  C_17
REMARK                            x       y       z     vdW  Elec       q    Type
REMARK                         _______ _______ _______ _____ _____    ______ ____
ROOT
ATOM      1  C   UNL     1       6.192   4.464  15.692  0.00  0.00    +0.000 C 
ATOM      2  C   UNL     1       5.460   3.301  16.362  0.00  0.00    +0.000 C 
ATOM      3  C   UNL     1       4.714   4.570  16.076  0.00  0.00    +0.000 C 
ENDROOT
BRANCH   1   4
ATOM      4  C   UNL     1       6.478   4.490  14.191  0.00  0.00    +0.000 A 
ATOM      5  C   UNL     1       5.908   3.570  13.300  0.00  0.00    +0.000 A 
ATOM      6  C   UNL     1       6.370   3.462  11.985  0.00  0.00    +0.000 A 
ATOM      7  C   UNL     1       7.403   4.282  11.535  0.00  0.00    +0.000 A 
ATOM      8  C   UNL     1       7.936   5.250  12.380  0.00  0.00    +0.000 A 
ATOM      9  C   UNL     1       7.466   5.360  13.688  0.00  0.00    +0.000 A 
ENDBRANCH   1   4
BRANCH   1  10
ATOM     10  C   UNL     1       7.340   4.999  16.504  0.00  0.00    +0.000 C 
ATOM     11  O   UNL     1       8.104   4.257  17.094  0.00  0.00    +0.000 OA
BRANCH  10  13
ATOM     12  C   UNL     1       7.721   6.989  17.640  0.00  0.00    +0.000 C 
ATOM     13  O   UNL     1       7.468   6.351  16.393  0.00  0.00    +0.000 OA
ENDBRANCH  10  13
ENDBRANCH   1  10
BRANCH   3  14
ATOM     14  C   UNL     1       4.193   5.451  17.184  0.00  0.00    +0.000 C 
BRANCH  14  15
ATOM     15  N   UNL     1       4.461   4.885  18.530  0.00  0.00    +0.000 NA
ATOM     16  C   UNL     1       4.975   5.927  19.439  0.00  0.00    +0.000 C 
BRANCH  15  17
ATOM     17  C   UNL     1       3.301   4.136  19.131  0.00  0.00    +0.000 C 
ATOM     18  C   UNL     1       3.719   2.681  19.523  0.00  0.00    +0.000 C 
ATOM     19  C   UNL     1       2.562   1.917  20.196  0.00  0.00    +0.000 C 
ATOM     20  C   UNL     1       2.141   2.642  21.478  0.00  0.00    +0.000 C 
ATOM     21  C   UNL     1       1.680   4.061  21.134  0.00  0.00    +0.000 C 
ATOM     22  C   UNL     1       0.493   4.007  20.162  0.00  0.00    +0.000 C 
ATOM     23  C   UNL     1       0.904   3.273  18.876  0.00  0.00    +0.000 C 
ATOM     24  C   UNL     1       1.366   1.853  19.232  0.00  0.00    +0.000 C 
ATOM     25  C   UNL     1       2.060   4.034  18.193  0.00  0.00    +0.000 C 
ATOM     26  C   UNL     1       2.834   4.821  20.464  0.00  0.00    +0.000 C 
ENDBRANCH  15  17
ENDBRANCH  14  15
ENDBRANCH   3  14
TORSDOF 6
ENDMDL
MODEL 3
REMARK VINA RESULT:      -8.4      5.224      7.683
REMARK  Name = 
REMARK  8 active torsions:
REMARK  status: ('A' for Active; 'I' for Inactive)
REMARK    1  A    between atoms: C_1  and  O_2
REMARK    2  A    between atoms: O_2  and  C_3
REMARK    3  A    between atoms: C_3  and  C_5
REMARK    4  A    between atoms: C_5  and  C_6
REMARK    5  A    between atoms: C_13  and  C_14
REMARK    6  A    between atoms: C_14  and  N_15
REMARK    7  A    between atoms: N_15  and  C_16
REMARK    8  A    between atoms: N_15  and  C_17
REMARK                            x       y       z     vdW  Elec       q    Type
REMARK                         _______ _______ _______ _____ _____    ______ ____
ROOT
ATOM      1  C   UNL     1       0.622   9.936  19.237  0.00  0.00    +0.000 C 
ATOM      2  C   UNL     1       1.918  10.305  18.514  0.00  0.00    +0.000 C 
ATOM      3  C   UNL     1       1.430   8.889  18.466  0.00  0.00    +0.000 C 
ENDROOT
BRANCH   1   4
ATOM      4  C   UNL     1      -0.754  10.255  18.655  0.00  0.00    +0.000 A 
ATOM      5  C   UNL     1      -1.215   9.688  17.458  0.00  0.00    +0.000 A 
ATOM      6  C   UNL     1      -2.363  10.176  16.827  0.00  0.00    +0.000 A 
ATOM      7  C   UNL     1      -3.078  11.231  17.390  0.00  0.00    +0.000 A 
ATOM      8  C   UNL     1      -2.680  11.763  18.612  0.00  0.00    +0.000 A 
ATOM      9  C   UNL     1      -1.539  11.267  19.242  0.00  0.00    +0.000 A 
ENDBRANCH   1   4
BRANCH   1  10
ATOM     10  C   UNL     1       0.682  10.154  20.724  0.00  0.00    +0.000 C 
ATOM     11  O   UNL     1       1.229  11.130  21.204  0.00  0.00    +0.000 OA
BRANCH  10  13
ATOM     12  C   UNL     1      -0.371   9.642  22.730  0.00  0.00    +0.000 C 
ATOM     13  O   UNL     1      -0.030   9.220  21.414  0.00  0.00    +0.000 OA
ENDBRANCH  10  13
ENDBRANCH   1  10
BRANCH   3  14
ATOM     14  C   UNL     1       2.193   7.764  19.121  0.00  0.00    +0.000 C 
BRANCH  14  15
ATOM     15  N   UNL     1       2.554   6.691  18.161  0.00  0.00    +0.000 NA
ATOM     16  C   UNL     1       3.877   6.950  17.565  0.00  0.00    +0.000 C 
BRANCH  15  17
ATOM     17  C   UNL     1       2.451   5.297  18.721  0.00  0.00    +0.000 C 
ATOM     18  C   UNL     1       1.715   5.304  20.101  0.00  0.00    +0.000 C 
ATOM     19  C   UNL     1       1.545   3.878  20.664  0.00  0.00    +0.000 C 
ATOM     20  C   UNL     1       0.709   3.037  19.694  0.00  0.00    +0.000 C 
ATOM     21  C   UNL     1       1.417   2.966  18.338  0.00  0.00    +0.000 C 
ATOM     22  C   UNL     1       2.806   2.332  18.503  0.00  0.00    +0.000 C 
ATOM     23  C   UNL     1       3.648   3.165  19.481  0.00  0.00    +0.000 C 
ATOM     24  C   UNL     1       2.929   3.231  20.836  0.00  0.00    +0.000 C 
ATOM     25  C   UNL     1       3.827   4.593  18.924  0.00  0.00    +0.000 C 
ATOM     26  C   UNL     1       1.586   4.387  17.779  0.00  0.00    +0.000 C 
ENDBRANCH  15  17
ENDBRANCH  14  15
ENDBRANCH   3  14
TORSDOF 6
ENDMDL
MODEL 4
REMARK VINA RESULT:      -8.3      5.240      7.589
REMARK  Name = 
REMARK  8 active torsions:
REMARK  status: ('A' for Active; 'I' for Inactive)
REMARK    1  A    between atoms: C_1  and  O_2
REMARK    2  A    between atoms: O_2  and  C_3
REMARK    3  A    between atoms: C_3  and  C_5
REMARK    4  A    between atoms: C_5  and  C_6
REMARK    5  A    between atoms: C_13  and  C_14
REMARK    6  A    between atoms: C_14  and  N_15
REMARK    7  A    between atoms: N_15  and  C_16
REMARK    8  A    between atoms: N_15  and  C_17
REMARK                            x       y       z     vdW  Elec       q    Type
REMARK                         _______ _______ _______ _____ _____    ______ ____
ROOT
ATOM      1  C   UNL     1       0.617   9.981  19.136  0.00  0.00    +0.000 C 
ATOM      2  C   UNL     1       1.891  10.378  18.389  0.00  0.00    +0.000 C 
ATOM      3  C   UNL     1       1.437   8.951  18.355  0.00  0.00    +0.000 C 
ENDROOT
BRANCH   1   4
ATOM      4  C   UNL     1      -0.776  10.263  18.577  0.00  0.00    +0.000 A 
ATOM      5  C   UNL     1      -1.239   9.689  17.384  0.00  0.00    +0.000 A 
ATOM      6  C   UNL     1      -2.410  10.147  16.772  0.00  0.00    +0.000 A 
ATOM      7  C   UNL     1      -3.145  11.179  17.351  0.00  0.00    +0.000 A 
ATOM      8  C   UNL     1      -2.744  11.716  18.570  0.00  0.00    +0.000 A 
ATOM      9  C   UNL     1      -1.581  11.250  19.181  0.00  0.00    +0.000 A 
ENDBRANCH   1   4
BRANCH   1  10
ATOM     10  C   UNL     1       0.697  10.207  20.621  0.00  0.00    +0.000 C 
ATOM     11  O   UNL     1       1.242  11.190  21.088  0.00  0.00    +0.000 OA
BRANCH  10  13
ATOM     12  C   UNL     1      -0.290   9.680  22.657  0.00  0.00    +0.000 C 
ATOM     13  O   UNL     1       0.004   9.269  21.326  0.00  0.00    +0.000 OA
ENDBRANCH  10  13
ENDBRANCH   1  10
BRANCH   3  14
ATOM     14  C   UNL     1       2.239   7.848  19.001  0.00  0.00    +0.000 C 
BRANCH  14  15
ATOM     15  N   UNL     1       2.654   6.806  18.029  0.00  0.00    +0.000 NA
ATOM     16  C   UNL     1       4.013   7.078  17.525  0.00  0.00    +0.000 C 
BRANCH  15  17
ATOM     17  C   UNL     1       2.512   5.395  18.533  0.00  0.00    +0.000 C 
ATOM     18  C   UNL     1       1.368   4.645  17.776  0.00  0.00    +0.000 C 
ATOM     19  C   UNL     1       1.246   3.178  18.236  0.00  0.00    +0.000 C 
ATOM     20  C   UNL     1       2.556   2.438  17.950  0.00  0.00    +0.000 C 
ATOM     21  C   UNL     1       3.701   3.114  18.710  0.00  0.00    +0.000 C 
ATOM     22  C   UNL     1       3.416   3.091  20.219  0.00  0.00    +0.000 C 
ATOM     23  C   UNL     1       2.098   3.824  20.512  0.00  0.00    +0.000 C 
ATOM     24  C   UNL     1       0.958   3.139  19.745  0.00  0.00    +0.000 C 
ATOM     25  C   UNL     1       2.212   5.295  20.060  0.00  0.00    +0.000 C 
ATOM     26  C   UNL     1       3.821   4.574  18.252  0.00  0.00    +0.000 C 
ENDBRANCH  15  17
ENDBRANCH  14  15
ENDBRANCH   3  14
TORSDOF 6
ENDMDL
MODEL 5
REMARK VINA RESULT:      -8.3      5.212      7.697
REMARK  Name = 
REMARK  8 active torsions:
REMARK  status: ('A' for Active; 'I' for Inactive)
REMARK    1  A    between atoms: C_1  and  O_2
REMARK    2  A    between atoms: O_2  and  C_3
REMARK    3  A    between atoms: C_3  and  C_5
REMARK    4  A    between atoms: C_5  and  C_6
REMARK    5  A    between atoms: C_13  and  C_14
REMARK    6  A    between atoms: C_14  and  N_15
REMARK    7  A    between atoms: N_15  and  C_16
REMARK    8  A    between atoms: N_15  and  C_17
REMARK                            x       y       z     vdW  Elec       q    Type
REMARK                         _______ _______ _______ _____ _____    ______ ____
ROOT
ATOM      1  C   UNL     1       0.569   9.938  19.179  0.00  0.00    +0.000 C 
ATOM      2  C   UNL     1       1.846  10.368  18.456  0.00  0.00    +0.000 C 
ATOM      3  C   UNL     1       1.414   8.935  18.388  0.00  0.00    +0.000 C 
ENDROOT
BRANCH   1   4
ATOM      4  C   UNL     1      -0.822  10.210  18.608  0.00  0.00    +0.000 A 
ATOM      5  C   UNL     1      -1.297   9.581  17.449  0.00  0.00    +0.000 A 
ATOM      6  C   UNL     1      -2.462  10.023  16.816  0.00  0.00    +0.000 A 
ATOM      7  C   UNL     1      -3.180  11.096  17.340  0.00  0.00    +0.000 A 
ATOM      8  C   UNL     1      -2.767  11.691  18.528  0.00  0.00    +0.000 A 
ATOM      9  C   UNL     1      -1.609  11.240  19.160  0.00  0.00    +0.000 A 
ENDBRANCH   1   4
BRANCH   1  10
ATOM     10  C   UNL     1       0.627  10.134  20.669  0.00  0.00    +0.000 C 
ATOM     11  O   UNL     1       1.170  11.106  21.163  0.00  0.00    +0.000 OA
BRANCH  10  13
ATOM     12  C   UNL     1      -0.043   9.368  22.757  0.00  0.00    +0.000 C 
ATOM     13  O   UNL     1      -0.081   9.187  21.345  0.00  0.00    +0.000 OA
ENDBRANCH  10  13
ENDBRANCH   1  10
BRANCH   3  14
ATOM     14  C   UNL     1       2.224   7.831  19.022  0.00  0.00    +0.000 C 
BRANCH  14  15
ATOM     15  N   UNL     1       2.660   6.812  18.035  0.00  0.00    +0.000 NA
ATOM     16  C   UNL     1       4.040   7.077  17.589  0.00  0.00    +0.000 C 
BRANCH  15  17
ATOM     17  C   UNL     1       2.479   5.388  18.493  0.00  0.00    +0.000 C 
ATOM     18  C   UNL     1       3.806   4.577  18.331  0.00  0.00    +0.000 C 
ATOM     19  C   UNL     1       3.659   3.133  18.851  0.00  0.00    +0.000 C 
ATOM     20  C   UNL     1       3.305   3.156  20.341  0.00  0.00    +0.000 C 
ATOM     21  C   UNL     1       1.985   3.904  20.542  0.00  0.00    +0.000 C 
ATOM     22  C   UNL     1       0.862   3.209  19.759  0.00  0.00    +0.000 C 
ATOM     23  C   UNL     1       1.213   3.175  18.263  0.00  0.00    +0.000 C 
ATOM     24  C   UNL     1       2.539   2.424  18.074  0.00  0.00    +0.000 C 
ATOM     25  C   UNL     1       1.358   4.616  17.733  0.00  0.00    +0.000 C 
ATOM     26  C   UNL     1       2.133   5.342  20.024  0.00  0.00    +0.000 C 
ENDBRANCH  15  17
ENDBRANCH  14  15
ENDBRANCH   3  14
TORSDOF 6
ENDMDL
MODEL 6
REMARK VINA RESULT:      -8.1      5.218      7.576
REMARK  Name = 
REMARK  8 active torsions:
REMARK  status: ('A' for Active; 'I' for Inactive)
REMARK    1  A    between atoms: C_1  and  O_2
REMARK    2  A    between atoms: O_2  and  C_3
REMARK    3  A    between atoms: C_3  and  C_5
REMARK    4  A    between atoms: C_5  and  C_6
REMARK    5  A    between atoms: C_13  and  C_14
REMARK    6  A    between atoms: C_14  and  N_15
REMARK    7  A    between atoms: N_15  and  C_16
REMARK    8  A    between atoms: N_15  and  C_17
REMARK                            x       y       z     vdW  Elec       q    Type
REMARK                         _______ _______ _______ _____ _____    ______ ____
ROOT
ATOM      1  C   UNL     1       0.645  10.190  18.885  0.00  0.00    +0.000 C 
ATOM      2  C   UNL     1       1.926  10.417  18.082  0.00  0.00    +0.000 C 
ATOM      3  C   UNL     1       1.371   9.030  18.199  0.00  0.00    +0.000 C 
ENDROOT
BRANCH   1   4
ATOM      4  C   UNL     1      -0.738  10.516  18.323  0.00  0.00    +0.000 A 
ATOM      5  C   UNL     1      -1.551  11.525  18.861  0.00  0.00    +0.000 A 
ATOM      6  C   UNL     1      -2.894  11.639  18.492  0.00  0.00    +0.000 A 
ATOM      7  C   UNL     1      -3.445  10.754  17.569  0.00  0.00    +0.000 A 
ATOM      8  C   UNL     1      -2.641   9.790  16.969  0.00  0.00    +0.000 A 
ATOM      9  C   UNL     1      -1.299   9.685  17.334  0.00  0.00    +0.000 A 
ENDBRANCH   1   4
BRANCH   1  10
ATOM     10  C   UNL     1       0.775  10.555  20.339  0.00  0.00    +0.000 C 
ATOM     11  O   UNL     1       1.361  11.563  20.693  0.00  0.00    +0.000 OA
BRANCH  10  13
ATOM     12  C   UNL     1       0.895   9.087  22.134  0.00  0.00    +0.000 C 
ATOM     13  O   UNL     1       0.078   9.712  21.150  0.00  0.00    +0.000 OA
ENDBRANCH  10  13
ENDBRANCH   1  10
BRANCH   3  14
ATOM     14  C   UNL     1       2.107   7.941  18.940  0.00  0.00    +0.000 C 
BRANCH  14  15
ATOM     15  N   UNL     1       2.538   6.839  18.044  0.00  0.00    +0.000 NA
ATOM     16  C   UNL     1       3.899   7.085  17.535  0.00  0.00    +0.000 C 
BRANCH  15  17
ATOM     17  C   UNL     1       2.399   5.464  18.642  0.00  0.00    +0.000 C 
ATOM     18  C   UNL     1       1.478   4.561  17.757  0.00  0.00    +0.000 C 
ATOM     19  C   UNL     1       1.372   3.130  18.320  0.00  0.00    +0.000 C 
ATOM     20  C   UNL     1       2.761   2.485  18.354  0.00  0.00    +0.000 C 
ATOM     21  C   UNL     1       3.687   3.314  19.248  0.00  0.00    +0.000 C 
ATOM     22  C   UNL     1       3.118   3.384  20.673  0.00  0.00    +0.000 C 
ATOM     23  C   UNL     1       1.720   4.022  20.645  0.00  0.00    +0.000 C 
ATOM     24  C   UNL     1       0.801   3.184  19.746  0.00  0.00    +0.000 C 
ATOM     25  C   UNL     1       1.817   5.457  20.088  0.00  0.00    +0.000 C 
ATOM     26  C   UNL     1       3.792   4.740  18.687  0.00  0.00    +0.000 C 
ENDBRANCH  15  17
ENDBRANCH  14  15
ENDBRANCH   3  14
TORSDOF 6
ENDMDL
MODEL 7
REMARK VINA RESULT:      -8.1      5.263      7.749
REMARK  Name = 
REMARK  8 active torsions:
REMARK  status: ('A' for Active; 'I' for Inactive)
REMARK    1  A    between atoms: C_1  and  O_2
REMARK    2  A    between atoms: O_2  and  C_3
REMARK    3  A    between atoms: C_3  and  C_5
REMARK    4  A    between atoms: C_5  and  C_6
REMARK    5  A    between atoms: C_13  and  C_14
REMARK    6  A    between atoms: C_14  and  N_15
REMARK    7  A    between atoms: N_15  and  C_16
REMARK    8  A    between atoms: N_15  and  C_17
REMARK                            x       y       z     vdW  Elec       q    Type
REMARK                         _______ _______ _______ _____ _____    ______ ____
ROOT
ATOM      1  C   UNL     1       0.575  10.171  18.999  0.00  0.00    +0.000 C 
ATOM      2  C   UNL     1       1.919  10.500  18.349  0.00  0.00    +0.000 C 
ATOM      3  C   UNL     1       1.399   9.096  18.287  0.00  0.00    +0.000 C 
ENDROOT
BRANCH   1   4
ATOM      4  C   UNL     1      -0.758  10.516  18.336  0.00  0.00    +0.000 A 
ATOM      5  C   UNL     1      -1.558  11.585  18.765  0.00  0.00    +0.000 A 
ATOM      6  C   UNL     1      -2.871  11.729  18.309  0.00  0.00    +0.000 A 
ATOM      7  C   UNL     1      -3.403  10.811  17.406  0.00  0.00    +0.000 A 
ATOM      8  C   UNL     1      -2.607   9.783  16.913  0.00  0.00    +0.000 A 
ATOM      9  C   UNL     1      -1.294   9.649  17.364  0.00  0.00    +0.000 A 
ENDBRANCH   1   4
BRANCH   1  10
ATOM     10  C   UNL     1       0.554  10.404  20.485  0.00  0.00    +0.000 C 
ATOM     11  O   UNL     1       1.253  11.254  21.007  0.00  0.00    +0.000 OA
BRANCH  10  13
ATOM     12  C   UNL     1       0.159   8.703  22.017  0.00  0.00    +0.000 C 
ATOM     13  O   UNL     1      -0.394   9.656  21.115  0.00  0.00    +0.000 OA
ENDBRANCH  10  13
ENDBRANCH   1  10
BRANCH   3  14
ATOM     14  C   UNL     1       2.095   7.960  18.996  0.00  0.00    +0.000 C 
BRANCH  14  15
ATOM     15  N   UNL     1       2.529   6.891  18.062  0.00  0.00    +0.000 NA
ATOM     16  C   UNL     1       3.890   7.158  17.562  0.00  0.00    +0.000 C 
BRANCH  15  17
ATOM     17  C   UNL     1       2.393   5.496  18.612  0.00  0.00    +0.000 C 
ATOM     18  C   UNL     1       3.793   4.810  18.744  0.00  0.00    +0.000 C 
ATOM     19  C   UNL     1       3.682   3.402  19.362  0.00  0.00    +0.000 C 
ATOM     20  C   UNL     1       3.077   3.502  20.766  0.00  0.00    +0.000 C 
ATOM     21  C   UNL     1       1.683   4.128  20.679  0.00  0.00    +0.000 C 
ATOM     22  C   UNL     1       0.775   3.268  19.788  0.00  0.00    +0.000 C 
ATOM     23  C   UNL     1       1.379   3.157  18.380  0.00  0.00    +0.000 C 
ATOM     24  C   UNL     1       2.776   2.528  18.480  0.00  0.00    +0.000 C 
ATOM     25  C   UNL     1       1.490   4.561  17.751  0.00  0.00    +0.000 C 
ATOM     26  C   UNL     1       1.795   5.531  20.063  0.00  0.00    +0.000 C 
ENDBRANCH  15  17
ENDBRANCH  14  15
ENDBRANCH   3  14
TORSDOF 6
ENDMDL
MODEL 8
REMARK VINA RESULT:      -8.0      0.965      1.647
REMARK  Name = 
REMARK  8 active torsions:
REMARK  status: ('A' for Active; 'I' for Inactive)
REMARK    1  A    between atoms: C_1  and  O_2
REMARK    2  A    between atoms: O_2  and  C_3
REMARK    3  A    between atoms: C_3  and  C_5
REMARK    4  A    between atoms: C_5  and  C_6
REMARK    5  A    between atoms: C_13  and  C_14
REMARK    6  A    between atoms: C_14  and  N_15
REMARK    7  A    between atoms: N_15  and  C_16
REMARK    8  A    between atoms: N_15  and  C_17
REMARK                            x       y       z     vdW  Elec       q    Type
REMARK                         _______ _______ _______ _____ _____    ______ ____
ROOT
ATOM      1  C   UNL     1       6.162   4.724  16.371  0.00  0.00    +0.000 C 
ATOM      2  C   UNL     1       5.258   3.768  17.151  0.00  0.00    +0.000 C 
ATOM      3  C   UNL     1       4.791   5.168  16.888  0.00  0.00    +0.000 C 
ENDROOT
BRANCH   1   4
ATOM      4  C   UNL     1       6.295   4.662  14.850  0.00  0.00    +0.000 A 
ATOM      5  C   UNL     1       5.490   3.830  14.057  0.00  0.00    +0.000 A 
ATOM      6  C   UNL     1       5.792   3.610  12.710  0.00  0.00    +0.000 A 
ATOM      7  C   UNL     1       6.896   4.229  12.129  0.00  0.00    +0.000 A 
ATOM      8  C   UNL     1       7.668   5.113  12.876  0.00  0.00    +0.000 A 
ATOM      9  C   UNL     1       7.358   5.336  14.218  0.00  0.00    +0.000 A 
ENDBRANCH   1   4
BRANCH   1  10
ATOM     10  C   UNL     1       7.475   4.998  17.051  0.00  0.00    +0.000 C 
ATOM     11  O   UNL     1       8.231   4.096  17.363  0.00  0.00    +0.000 OA
BRANCH  10  13
ATOM     12  C   UNL     1       7.992   6.747  18.489  0.00  0.00    +0.000 C 
ATOM     13  O   UNL     1       7.739   6.330  17.151  0.00  0.00    +0.000 OA
ENDBRANCH  10  13
ENDBRANCH   1  10
BRANCH   3  14
ATOM     14  C   UNL     1       4.594   6.161  18.007  0.00  0.00    +0.000 C 
BRANCH  14  15
ATOM     15  N   UNL     1       3.199   6.175  18.512  0.00  0.00    +0.000 NA
ATOM     16  C   UNL     1       2.274   6.661  17.471  0.00  0.00    +0.000 C 
BRANCH  15  17
ATOM     17  C   UNL     1       2.742   4.870  19.108  0.00  0.00    +0.000 C 
ATOM     18  C   UNL     1       1.724   5.113  20.270  0.00  0.00    +0.000 C 
ATOM     19  C   UNL     1       1.197   3.787  20.853  0.00  0.00    +0.000 C 
ATOM     20  C   UNL     1       0.475   2.993  19.760  0.00  0.00    +0.000 C 
ATOM     21  C   UNL     1       1.450   2.693  18.618  0.00  0.00    +0.000 C 
ATOM     22  C   UNL     1       2.640   1.877  19.144  0.00  0.00    +0.000 C 
ATOM     23  C   UNL     1       3.365   2.664  20.248  0.00  0.00    +0.000 C 
ATOM     24  C   UNL     1       2.378   2.960  21.386  0.00  0.00    +0.000 C 
ATOM     25  C   UNL     1       3.899   3.991  19.672  0.00  0.00    +0.000 C 
ATOM     26  C   UNL     1       1.974   4.015  18.038  0.00  0.00    +0.000 C 
ENDBRANCH  15  17
ENDBRANCH  14  15
ENDBRANCH   3  14
TORSDOF 6
ENDMDL
MODEL 9
REMARK VINA RESULT:      -8.0      0.701      2.028
REMARK  Name = 
REMARK  8 active torsions:
REMARK  status: ('A' for Active; 'I' for Inactive)
REMARK    1  A    between atoms: C_1  and  O_2
REMARK    2  A    between atoms: O_2  and  C_3
REMARK    3  A    between atoms: C_3  and  C_5
REMARK    4  A    between atoms: C_5  and  C_6
REMARK    5  A    between atoms: C_13  and  C_14
REMARK    6  A    between atoms: C_14  and  N_15
REMARK    7  A    between atoms: N_15  and  C_16
REMARK    8  A    between atoms: N_15  and  C_17
REMARK                            x       y       z     vdW  Elec       q    Type
REMARK                         _______ _______ _______ _____ _____    ______ ____
ROOT
ATOM      1  C   UNL     1       6.224   4.873  15.966  0.00  0.00    +0.000 C 
ATOM      2  C   UNL     1       5.693   3.752  16.860  0.00  0.00    +0.000 C 
ATOM      3  C   UNL     1       4.722   4.676  16.189  0.00  0.00    +0.000 C 
ENDROOT
BRANCH   1   4
ATOM      4  C   UNL     1       6.709   4.617  14.540  0.00  0.00    +0.000 A 
ATOM      5  C   UNL     1       7.673   5.423  13.917  0.00  0.00    +0.000 A 
ATOM      6  C   UNL     1       7.919   5.320  12.545  0.00  0.00    +0.000 A 
ATOM      7  C   UNL     1       7.213   4.400  11.774  0.00  0.00    +0.000 A 
ATOM      8  C   UNL     1       6.302   3.541  12.381  0.00  0.00    +0.000 A 
ATOM      9  C   UNL     1       6.067   3.642  13.752  0.00  0.00    +0.000 A 
ENDBRANCH   1   4
BRANCH   1  10
ATOM     10  C   UNL     1       7.085   5.867  16.696  0.00  0.00    +0.000 C 
ATOM     11  O   UNL     1       6.979   7.065  16.503  0.00  0.00    +0.000 OA
BRANCH  10  13
ATOM     12  C   UNL     1       7.783   5.915  18.911  0.00  0.00    +0.000 C 
ATOM     13  O   UNL     1       7.870   5.278  17.641  0.00  0.00    +0.000 OA
ENDBRANCH  10  13
ENDBRANCH   1  10
BRANCH   3  14
ATOM     14  C   UNL     1       3.855   5.625  16.978  0.00  0.00    +0.000 C 
BRANCH  14  15
ATOM     15  N   UNL     1       4.029   5.465  18.444  0.00  0.00    +0.000 NA
ATOM     16  C   UNL     1       3.937   6.771  19.124  0.00  0.00    +0.000 C 
BRANCH  15  17
ATOM     17  C   UNL     1       3.121   4.439  19.068  0.00  0.00    +0.000 C 
ATOM     18  C   UNL     1       3.936   3.198  19.559  0.00  0.00    +0.000 C 
ATOM     19  C   UNL     1       3.031   2.162  20.256  0.00  0.00    +0.000 C 
ATOM     20  C   UNL     1       2.368   2.799  21.482  0.00  0.00    +0.000 C 
ATOM     21  C   UNL     1       1.521   3.995  21.040  0.00  0.00    +0.000 C 
ATOM     22  C   UNL     1       0.440   3.538  20.050  0.00  0.00    +0.000 C 
ATOM     23  C   UNL     1       1.098   2.890  18.822  0.00  0.00    +0.000 C 
ATOM     24  C   UNL     1       1.945   1.693  19.276  0.00  0.00    +0.000 C 
ATOM     25  C   UNL     1       2.001   3.921  18.115  0.00  0.00    +0.000 C 
ATOM     26  C   UNL     1       2.422   5.027  20.346  0.00  0.00    +0.000 C 
ENDBRANCH  15  17
ENDBRANCH  14  15
ENDBRANCH   3  14
TORSDOF 6
ENDMDL
