MODEL 1
REMARK VINA RESULT:      -6.7      0.000      0.000
REMARK  Name = 
REMARK  4 active torsions:
REMARK  status: ('A' for Active; 'I' for Inactive)
REMARK    1  A    between atoms: C_2  and  C_3
REMARK    2  A    between atoms: C_3  and  C_13
REMARK    3  A    between atoms: C_4  and  C_5
REMARK    4  A    between atoms: C_13  and  O_15
REMARK                            x       y       z     vdW  Elec       q    Type
REMARK                         _______ _______ _______ _____ _____    ______ ____
ROOT
ATOM      1  C   UNL     1       4.876   5.921  17.580  0.00  0.00    +0.000 C 
ATOM      2  C   UNL     1       3.533   6.059  17.618  0.00  0.00    +0.000 C 
ENDROOT
BRANCH   2   3
ATOM      3  C   UNL     1       2.682   5.298  18.543  0.00  0.00    +0.000 A 
ATOM      4  C   UNL     1       2.649   5.618  19.910  0.00  0.00    +0.000 A 
ATOM      5  C   UNL     1       1.939   4.810  20.805  0.00  0.00    +0.000 A 
ATOM      6  C   UNL     1       1.251   3.699  20.331  0.00  0.00    +0.000 A 
ATOM      7  F   UNL     1       0.588   2.917  21.195  0.00  0.00    +0.000 F 
ATOM      8  C   UNL     1       1.254   3.398  18.976  0.00  0.00    +0.000 A 
ATOM      9  F   UNL     1       0.583   2.332  18.519  0.00  0.00    +0.000 F 
ATOM     10  C   UNL     1       1.967   4.189  18.077  0.00  0.00    +0.000 A 
ENDBRANCH   2   3
BRANCH   1  12
ATOM     11  N   UNL     1       6.193   4.310  19.096  0.00  0.00    +0.000 NA
ATOM     12  C   UNL     1       5.563   5.032  18.442  0.00  0.00    +0.000 C 
ENDBRANCH   1  12
BRANCH   1  13
ATOM     13  C   UNL     1       5.651   6.723  16.596  0.00  0.00    +0.000 C 
ATOM     14  O   UNL     1       6.694   7.296  16.876  0.00  0.00    +0.000 OA
BRANCH  13  15
ATOM     15  O   UNL     1       5.132   6.785  15.349  0.00  0.00    +0.000 OA
ATOM     16  H   UNL     1       5.405   7.506  14.746  0.00  0.00    +0.000 HD
ENDBRANCH  13  15
ENDBRANCH   1  13
TORSDOF 4
ENDMDL
MODEL 2
REMARK VINA RESULT:      -6.6      2.244      2.492
REMARK  Name = 
REMARK  4 active torsions:
REMARK  status: ('A' for Active; 'I' for Inactive)
REMARK    1  A    between atoms: C_2  and  C_3
REMARK    2  A    between atoms: C_3  and  C_13
REMARK    3  A    between atoms: C_4  and  C_5
REMARK    4  A    between atoms: C_13  and  O_15
REMARK                            x       y       z     vdW  Elec       q    Type
REMARK                         _______ _______ _______ _____ _____    ______ ____
ROOT
ATOM      1  C   UNL     1       6.211   4.565  16.121  0.00  0.00    +0.000 C 
ATOM      2  C   UNL     1       4.864   4.612  16.207  0.00  0.00    +0.000 C 
ENDROOT
BRANCH   2   3
ATOM      3  C   UNL     1       4.150   4.629  17.492  0.00  0.00    +0.000 A 
ATOM      4  C   UNL     1       3.880   5.844  18.141  0.00  0.00    +0.000 A 
ATOM      5  C   UNL     1       3.317   5.847  19.422  0.00  0.00    +0.000 A 
ATOM      6  C   UNL     1       3.010   4.641  20.042  0.00  0.00    +0.000 A 
ATOM      7  F   UNL     1       2.489   4.649  21.276  0.00  0.00    +0.000 F 
ATOM      8  C   UNL     1       3.246   3.438  19.389  0.00  0.00    +0.000 A 
ATOM      9  F   UNL     1       2.942   2.277  19.983  0.00  0.00    +0.000 F 
ATOM     10  C   UNL     1       3.816   3.422  18.118  0.00  0.00    +0.000 A 
ENDBRANCH   2   3
BRANCH   1  12
ATOM     11  N   UNL     1       7.755   4.579  18.181  0.00  0.00    +0.000 NA
ATOM     12  C   UNL     1       7.036   4.538  17.271  0.00  0.00    +0.000 C 
ENDBRANCH   1  12
BRANCH   1  13
ATOM     13  C   UNL     1       6.842   4.532  14.774  0.00  0.00    +0.000 C 
ATOM     14  O   UNL     1       7.676   5.348  14.409  0.00  0.00    +0.000 OA
BRANCH  13  15
ATOM     15  O   UNL     1       6.436   3.534  13.958  0.00  0.00    +0.000 OA
ATOM     16  H   UNL     1       6.190   2.667  14.340  0.00  0.00    +0.000 HD
ENDBRANCH  13  15
ENDBRANCH   1  13
TORSDOF 4
ENDMDL
MODEL 3
REMARK VINA RESULT:      -6.6      1.799      1.939
REMARK  Name = 
REMARK  4 active torsions:
REMARK  status: ('A' for Active; 'I' for Inactive)
REMARK    1  A    between atoms: C_2  and  C_3
REMARK    2  A    between atoms: C_3  and  C_13
REMARK    3  A    between atoms: C_4  and  C_5
REMARK    4  A    between atoms: C_13  and  O_15
REMARK                            x       y       z     vdW  Elec       q    Type
REMARK                         _______ _______ _______ _____ _____    ______ ____
ROOT
ATOM      1  C   UNL     1       5.667   4.409  16.592  0.00  0.00    +0.000 C 
ATOM      2  C   UNL     1       4.363   4.186  16.323  0.00  0.00    +0.000 C 
ENDROOT
BRANCH   2   3
ATOM      3  C   UNL     1       3.341   4.080  17.374  0.00  0.00    +0.000 A 
ATOM      4  C   UNL     1       2.834   5.233  17.995  0.00  0.00    +0.000 A 
ATOM      5  C   UNL     1       1.960   5.120  19.082  0.00  0.00    +0.000 A 
ATOM      6  C   UNL     1       1.582   3.860  19.533  0.00  0.00    +0.000 A 
ATOM      7  F   UNL     1       0.760   3.757  20.587  0.00  0.00    +0.000 F 
ATOM      8  C   UNL     1       2.056   2.718  18.901  0.00  0.00    +0.000 A 
ATOM      9  F   UNL     1       1.684   1.505  19.331  0.00  0.00    +0.000 F 
ATOM     10  C   UNL     1       2.935   2.818  17.825  0.00  0.00    +0.000 A 
ENDBRANCH   2   3
BRANCH   1  12
ATOM     11  N   UNL     1       6.469   4.648  19.027  0.00  0.00    +0.000 NA
ATOM     12  C   UNL     1       6.144   4.565  17.916  0.00  0.00    +0.000 C 
ENDBRANCH   1  12
BRANCH   1  13
ATOM     13  C   UNL     1       6.629   4.482  15.460  0.00  0.00    +0.000 C 
ATOM     14  O   UNL     1       7.521   5.316  15.397  0.00  0.00    +0.000 OA
BRANCH  13  15
ATOM     15  O   UNL     1       6.463   3.559  14.486  0.00  0.00    +0.000 OA
ATOM     16  H   UNL     1       7.247   3.187  14.033  0.00  0.00    +0.000 HD
ENDBRANCH  13  15
ENDBRANCH   1  13
TORSDOF 4
ENDMDL
MODEL 4
REMARK VINA RESULT:      -6.5      1.233      1.937
REMARK  Name = 
REMARK  4 active torsions:
REMARK  status: ('A' for Active; 'I' for Inactive)
REMARK    1  A    between atoms: C_2  and  C_3
REMARK    2  A    between atoms: C_3  and  C_13
REMARK    3  A    between atoms: C_4  and  C_5
REMARK    4  A    between atoms: C_13  and  O_15
REMARK                            x       y       z     vdW  Elec       q    Type
REMARK                         _______ _______ _______ _____ _____    ______ ____
ROOT
ATOM      1  C   UNL     1       5.416   5.431  17.425  0.00  0.00    +0.000 C 
ATOM      2  C   UNL     1       4.156   4.979  17.246  0.00  0.00    +0.000 C 
ENDROOT
BRANCH   2   3
ATOM      3  C   UNL     1       3.373   4.358  18.324  0.00  0.00    +0.000 A 
ATOM      4  C   UNL     1       3.374   2.964  18.493  0.00  0.00    +0.000 A 
ATOM      5  C   UNL     1       2.527   2.369  19.435  0.00  0.00    +0.000 A 
ATOM      6  C   UNL     1       1.697   3.167  20.215  0.00  0.00    +0.000 A 
ATOM      7  F   UNL     1       0.874   2.591  21.102  0.00  0.00    +0.000 F 
ATOM      8  C   UNL     1       1.717   4.548  20.073  0.00  0.00    +0.000 A 
ATOM      9  F   UNL     1       0.925   5.316  20.831  0.00  0.00    +0.000 F 
ATOM     10  C   UNL     1       2.548   5.150  19.131  0.00  0.00    +0.000 A 
ENDBRANCH   2   3
BRANCH   1  12
ATOM     11  N   UNL     1       6.680   5.302  19.665  0.00  0.00    +0.000 NA
ATOM     12  C   UNL     1       6.072   5.344  18.677  0.00  0.00    +0.000 C 
ENDBRANCH   1  12
BRANCH   1  13
ATOM     13  C   UNL     1       6.134   6.028  16.268  0.00  0.00    +0.000 C 
ATOM     14  O   UNL     1       5.587   6.286  15.206  0.00  0.00    +0.000 OA
BRANCH  13  15
ATOM     15  O   UNL     1       7.450   6.277  16.456  0.00  0.00    +0.000 OA
ATOM     16  H   UNL     1       7.800   7.176  16.294  0.00  0.00    +0.000 HD
ENDBRANCH  13  15
ENDBRANCH   1  13
TORSDOF 4
ENDMDL
MODEL 5
REMARK VINA RESULT:      -6.5      0.790      1.099
REMARK  Name = 
REMARK  4 active torsions:
REMARK  status: ('A' for Active; 'I' for Inactive)
REMARK    1  A    between atoms: C_2  and  C_3
REMARK    2  A    between atoms: C_3  and  C_13
REMARK    3  A    between atoms: C_4  and  C_5
REMARK    4  A    between atoms: C_13  and  O_15
REMARK                            x       y       z     vdW  Elec       q    Type
REMARK                         _______ _______ _______ _____ _____    ______ ____
ROOT
ATOM      1  C   UNL     1       5.146   5.682  17.513  0.00  0.00    +0.000 C 
ATOM      2  C   UNL     1       3.821   5.468  17.360  0.00  0.00    +0.000 C 
ENDROOT
BRANCH   2   3
ATOM      3  C   UNL     1       2.986   4.869  18.410  0.00  0.00    +0.000 A 
ATOM      4  C   UNL     1       2.554   5.638  19.503  0.00  0.00    +0.000 A 
ATOM      5  C   UNL     1       1.870   5.033  20.563  0.00  0.00    +0.000 A 
ATOM      6  C   UNL     1       1.605   3.668  20.521  0.00  0.00    +0.000 A 
ATOM      7  F   UNL     1       0.966   3.090  21.547  0.00  0.00    +0.000 F 
ATOM      8  C   UNL     1       2.002   2.911  19.427  0.00  0.00    +0.000 A 
ATOM      9  F   UNL     1       1.738   1.599  19.383  0.00  0.00    +0.000 F 
ATOM     10  C   UNL     1       2.693   3.501  18.371  0.00  0.00    +0.000 A 
ENDBRANCH   2   3
BRANCH   1  12
ATOM     11  N   UNL     1       6.377   4.996  19.668  0.00  0.00    +0.000 NA
ATOM     12  C   UNL     1       5.826   5.350  18.710  0.00  0.00    +0.000 C 
ENDBRANCH   1  12
BRANCH   1  13
ATOM     13  C   UNL     1       5.910   6.277  16.385  0.00  0.00    +0.000 C 
ATOM     14  O   UNL     1       5.374   6.765  15.400  0.00  0.00    +0.000 OA
BRANCH  13  15
ATOM     15  O   UNL     1       7.257   6.250  16.506  0.00  0.00    +0.000 OA
ATOM     16  H   UNL     1       7.682   5.527  17.011  0.00  0.00    +0.000 HD
ENDBRANCH  13  15
ENDBRANCH   1  13
TORSDOF 4
ENDMDL
MODEL 6
REMARK VINA RESULT:      -6.5      1.548      1.844
REMARK  Name = 
REMARK  4 active torsions:
REMARK  status: ('A' for Active; 'I' for Inactive)
REMARK    1  A    between atoms: C_2  and  C_3
REMARK    2  A    between atoms: C_3  and  C_13
REMARK    3  A    between atoms: C_4  and  C_5
REMARK    4  A    between atoms: C_13  and  O_15
REMARK                            x       y       z     vdW  Elec       q    Type
REMARK                         _______ _______ _______ _____ _____    ______ ____
ROOT
ATOM      1  C   UNL     1       5.950   5.099  17.127  0.00  0.00    +0.000 C 
ATOM      2  C   UNL     1       4.758   4.732  16.608  0.00  0.00    +0.000 C 
ENDROOT
BRANCH   2   3
ATOM      3  C   UNL     1       3.611   4.350  17.442  0.00  0.00    +0.000 A 
ATOM      4  C   UNL     1       2.763   5.331  17.980  0.00  0.00    +0.000 A 
ATOM      5  C   UNL     1       1.751   4.972  18.878  0.00  0.00    +0.000 A 
ATOM      6  C   UNL     1       1.580   3.635  19.222  0.00  0.00    +0.000 A 
ATOM      7  F   UNL     1       0.623   3.298  20.097  0.00  0.00    +0.000 F 
ATOM      8  C   UNL     1       2.396   2.658  18.667  0.00  0.00    +0.000 A 
ATOM      9  F   UNL     1       2.224   1.371  18.992  0.00  0.00    +0.000 F 
ATOM     10  C   UNL     1       3.413   3.006  17.780  0.00  0.00    +0.000 A 
ENDBRANCH   2   3
BRANCH   1  12
ATOM     11  N   UNL     1       6.321   5.118  19.674  0.00  0.00    +0.000 NA
ATOM     12  C   UNL     1       6.175   5.151  18.524  0.00  0.00    +0.000 C 
ENDBRANCH   1  12
BRANCH   1  13
ATOM     13  C   UNL     1       7.058   5.450  16.199  0.00  0.00    +0.000 C 
ATOM     14  O   UNL     1       7.465   4.693  15.330  0.00  0.00    +0.000 OA
BRANCH  13  15
ATOM     15  O   UNL     1       7.602   6.677  16.369  0.00  0.00    +0.000 OA
ATOM     16  H   UNL     1       7.038   7.419  16.665  0.00  0.00    +0.000 HD
ENDBRANCH  13  15
ENDBRANCH   1  13
TORSDOF 4
ENDMDL
MODEL 7
REMARK VINA RESULT:      -6.5      2.449      2.961
REMARK  Name = 
REMARK  4 active torsions:
REMARK  status: ('A' for Active; 'I' for Inactive)
REMARK    1  A    between atoms: C_2  and  C_3
REMARK    2  A    between atoms: C_3  and  C_13
REMARK    3  A    between atoms: C_4  and  C_5
REMARK    4  A    between atoms: C_13  and  O_15
REMARK                            x       y       z     vdW  Elec       q    Type
REMARK                         _______ _______ _______ _____ _____    ______ ____
ROOT
ATOM      1  C   UNL     1       6.212   4.583  16.155  0.00  0.00    +0.000 C 
ATOM      2  C   UNL     1       4.875   4.666  16.328  0.00  0.00    +0.000 C 
ENDROOT
BRANCH   2   3
ATOM      3  C   UNL     1       4.246   4.703  17.656  0.00  0.00    +0.000 A 
ATOM      4  C   UNL     1       3.997   3.515  18.360  0.00  0.00    +0.000 A 
ATOM      5  C   UNL     1       3.282   3.546  19.563  0.00  0.00    +0.000 A 
ATOM      6  C   UNL     1       2.834   4.763  20.065  0.00  0.00    +0.000 A 
ATOM      7  F   UNL     1       2.133   4.786  21.207  0.00  0.00    +0.000 F 
ATOM      8  C   UNL     1       3.106   5.944  19.388  0.00  0.00    +0.000 A 
ATOM      9  F   UNL     1       2.683   7.116  19.877  0.00  0.00    +0.000 F 
ATOM     10  C   UNL     1       3.808   5.924  18.184  0.00  0.00    +0.000 A 
ENDBRANCH   2   3
BRANCH   1  12
ATOM     11  N   UNL     1       7.878   4.564  18.117  0.00  0.00    +0.000 NA
ATOM     12  C   UNL     1       7.108   4.534  17.250  0.00  0.00    +0.000 C 
ENDBRANCH   1  12
BRANCH   1  13
ATOM     13  C   UNL     1       6.753   4.532  14.771  0.00  0.00    +0.000 C 
ATOM     14  O   UNL     1       6.334   3.761  13.920  0.00  0.00    +0.000 OA
BRANCH  13  15
ATOM     15  O   UNL     1       7.752   5.401  14.497  0.00  0.00    +0.000 OA
ATOM     16  H   UNL     1       8.571   5.078  14.071  0.00  0.00    +0.000 HD
ENDBRANCH  13  15
ENDBRANCH   1  13
TORSDOF 4
ENDMDL
MODEL 8
REMARK VINA RESULT:      -6.3      4.314      5.611
REMARK  Name = 
REMARK  4 active torsions:
REMARK  status: ('A' for Active; 'I' for Inactive)
REMARK    1  A    between atoms: C_2  and  C_3
REMARK    2  A    between atoms: C_3  and  C_13
REMARK    3  A    between atoms: C_4  and  C_5
REMARK    4  A    between atoms: C_13  and  O_15
REMARK                            x       y       z     vdW  Elec       q    Type
REMARK                         _______ _______ _______ _____ _____    ______ ____
ROOT
ATOM      1  C   UNL     1       2.702   3.398  19.946  0.00  0.00    +0.000 C 
ATOM      2  C   UNL     1       2.484   4.315  18.979  0.00  0.00    +0.000 C 
ENDROOT
BRANCH   2   3
ATOM      3  C   UNL     1       3.505   4.685  17.989  0.00  0.00    +0.000 A 
ATOM      4  C   UNL     1       3.866   3.791  16.968  0.00  0.00    +0.000 A 
ATOM      5  C   UNL     1       4.927   4.096  16.109  0.00  0.00    +0.000 A 
ATOM      6  C   UNL     1       5.612   5.296  16.260  0.00  0.00    +0.000 A 
ATOM      7  F   UNL     1       6.641   5.574  15.447  0.00  0.00    +0.000 F 
ATOM      8  C   UNL     1       5.238   6.197  17.248  0.00  0.00    +0.000 A 
ATOM      9  F   UNL     1       5.892   7.357  17.387  0.00  0.00    +0.000 F 
ATOM     10  C   UNL     1       4.189   5.900  18.116  0.00  0.00    +0.000 A 
ENDBRANCH   2   3
BRANCH   1  12
ATOM     11  N   UNL     1       4.912   2.105  20.220  0.00  0.00    +0.000 NA
ATOM     12  C   UNL     1       3.938   2.718  20.069  0.00  0.00    +0.000 C 
ENDBRANCH   1  12
BRANCH   1  13
ATOM     13  C   UNL     1       1.612   3.104  20.914  0.00  0.00    +0.000 C 
ATOM     14  O   UNL     1       1.819   2.822  22.086  0.00  0.00    +0.000 OA
BRANCH  13  15
ATOM     15  O   UNL     1       0.354   3.167  20.421  0.00  0.00    +0.000 OA
ATOM     16  H   UNL     1       0.206   3.514  19.518  0.00  0.00    +0.000 HD
ENDBRANCH  13  15
ENDBRANCH   1  13
TORSDOF 4
ENDMDL
MODEL 9
REMARK VINA RESULT:      -6.3      2.018      2.637
REMARK  Name = 
REMARK  4 active torsions:
REMARK  status: ('A' for Active; 'I' for Inactive)
REMARK    1  A    between atoms: C_2  and  C_3
REMARK    2  A    between atoms: C_3  and  C_13
REMARK    3  A    between atoms: C_4  and  C_5
REMARK    4  A    between atoms: C_13  and  O_15
REMARK                            x       y       z     vdW  Elec       q    Type
REMARK                         _______ _______ _______ _____ _____    ______ ____
ROOT
ATOM      1  C   UNL     1       5.475   4.929  16.662  0.00  0.00    +0.000 C 
ATOM      2  C   UNL     1       4.992   3.718  17.015  0.00  0.00    +0.000 C 
ENDROOT
BRANCH   2   3
ATOM      3  C   UNL     1       3.794   3.552  17.849  0.00  0.00    +0.000 A 
ATOM      4  C   UNL     1       2.512   3.708  17.296  0.00  0.00    +0.000 A 
ATOM      5  C   UNL     1       1.382   3.677  18.121  0.00  0.00    +0.000 A 
ATOM      6  C   UNL     1       1.533   3.475  19.488  0.00  0.00    +0.000 A 
ATOM      7  F   UNL     1       0.449   3.466  20.276  0.00  0.00    +0.000 F 
ATOM      8  C   UNL     1       2.796   3.288  20.034  0.00  0.00    +0.000 A 
ATOM      9  F   UNL     1       2.940   3.084  21.350  0.00  0.00    +0.000 F 
ATOM     10  C   UNL     1       3.930   3.327  19.224  0.00  0.00    +0.000 A 
ENDBRANCH   2   3
BRANCH   1  12
ATOM     11  N   UNL     1       4.364   7.153  17.330  0.00  0.00    +0.000 NA
ATOM     12  C   UNL     1       4.851   6.133  17.069  0.00  0.00    +0.000 C 
ENDBRANCH   1  12
BRANCH   1  13
ATOM     13  C   UNL     1       6.706   4.994  15.830  0.00  0.00    +0.000 C 
ATOM     14  O   UNL     1       6.724   5.471  14.704  0.00  0.00    +0.000 OA
BRANCH  13  15
ATOM     15  O   UNL     1       7.826   4.488  16.394  0.00  0.00    +0.000 OA
ATOM     16  H   UNL     1       7.761   3.985  17.231  0.00  0.00    +0.000 HD
ENDBRANCH  13  15
ENDBRANCH   1  13
TORSDOF 4
ENDMDL
