MODEL 1
REMARK VINA RESULT:      -6.2      0.000      0.000
REMARK  Name = 
REMARK  2 active torsions:
REMARK  status: ('A' for Active; 'I' for Inactive)
REMARK    1  A    between atoms: C_4  and  S_5
REMARK    2  A    between atoms: S_5  and  C_6
REMARK                            x       y       z     vdW  Elec       q    Type
REMARK                         _______ _______ _______ _____ _____    ______ ____
ROOT
ATOM      1  S   UNL     1       4.046   5.834  18.267  0.00  0.00    +0.000 S 
ENDROOT
BRANCH   1   5
ATOM      2  O   UNL     1       8.158   4.231  17.122  0.00  0.00    +0.000 OA
ATOM      3  C   UNL     1       7.207   4.590  17.776  0.00  0.00    +0.000 C 
ATOM      4  C   UNL     1       6.838   5.747  18.717  0.00  0.00    +0.000 C 
ATOM      5  C   UNL     1       5.515   4.972  18.929  0.00  0.00    +0.000 C 
ATOM      6  N   UNL     1       5.990   4.028  17.942  0.00  0.00    +0.000 N 
ATOM      7  H   UNL     1       5.657   3.151  17.578  0.00  0.00    +0.000 HD
ENDBRANCH   1   5
BRANCH   1   8
ATOM      8  C   UNL     1       2.806   4.727  18.920  0.00  0.00    +0.000 A 
ATOM      9  C   UNL     1       2.199   3.793  18.076  0.00  0.00    +0.000 A 
ATOM     10  C   UNL     1       1.166   2.982  18.550  0.00  0.00    +0.000 A 
ATOM     11  C   UNL     1       0.754   3.078  19.878  0.00  0.00    +0.000 A 
ATOM     12  C   UNL     1       1.388   3.973  20.738  0.00  0.00    +0.000 A 
ATOM     13  C   UNL     1       2.414   4.795  20.261  0.00  0.00    +0.000 A 
ENDBRANCH   1   8
TORSDOF 2
ENDMDL
MODEL 2
REMARK VINA RESULT:      -6.2      0.377      1.420
REMARK  Name = 
REMARK  2 active torsions:
REMARK  status: ('A' for Active; 'I' for Inactive)
REMARK    1  A    between atoms: C_4  and  S_5
REMARK    2  A    between atoms: S_5  and  C_6
REMARK                            x       y       z     vdW  Elec       q    Type
REMARK                         _______ _______ _______ _____ _____    ______ ____
ROOT
ATOM      1  S   UNL     1       3.892   5.529  17.665  0.00  0.00    +0.000 S 
ENDROOT
BRANCH   1   5
ATOM      2  O   UNL     1       8.241   4.189  17.402  0.00  0.00    +0.000 OA
ATOM      3  C   UNL     1       7.193   4.606  17.835  0.00  0.00    +0.000 C 
ATOM      4  C   UNL     1       6.610   5.937  18.333  0.00  0.00    +0.000 C 
ATOM      5  C   UNL     1       5.353   5.102  18.676  0.00  0.00    +0.000 C 
ATOM      6  N   UNL     1       6.025   3.971  18.075  0.00  0.00    +0.000 N 
ATOM      7  H   UNL     1       5.821   2.990  17.982  0.00  0.00    +0.000 HD
ENDBRANCH   1   5
BRANCH   1   8
ATOM      8  C   UNL     1       2.673   4.639  18.621  0.00  0.00    +0.000 A 
ATOM      9  C   UNL     1       2.399   5.035  19.933  0.00  0.00    +0.000 A 
ATOM     10  C   UNL     1       1.515   4.296  20.722  0.00  0.00    +0.000 A 
ATOM     11  C   UNL     1       0.878   3.174  20.195  0.00  0.00    +0.000 A 
ATOM     12  C   UNL     1       1.110   2.801  18.873  0.00  0.00    +0.000 A 
ATOM     13  C   UNL     1       2.005   3.532  18.086  0.00  0.00    +0.000 A 
ENDBRANCH   1   8
TORSDOF 2
ENDMDL
MODEL 3
REMARK VINA RESULT:      -6.1      1.568      1.950
REMARK  Name = 
REMARK  2 active torsions:
REMARK  status: ('A' for Active; 'I' for Inactive)
REMARK    1  A    between atoms: C_4  and  S_5
REMARK    2  A    between atoms: S_5  and  C_6
REMARK                            x       y       z     vdW  Elec       q    Type
REMARK                         _______ _______ _______ _____ _____    ______ ____
ROOT
ATOM      1  S   UNL     1       3.791   3.003  17.568  0.00  0.00    +0.000 S 
ENDROOT
BRANCH   1   5
ATOM      2  O   UNL     1       8.053   4.491  16.931  0.00  0.00    +0.000 OA
ATOM      3  C   UNL     1       6.869   4.469  17.172  0.00  0.00    +0.000 C 
ATOM      4  C   UNL     1       5.561   4.948  16.524  0.00  0.00    +0.000 C 
ATOM      5  C   UNL     1       4.891   4.440  17.824  0.00  0.00    +0.000 C 
ATOM      6  N   UNL     1       6.195   3.966  18.229  0.00  0.00    +0.000 N 
ATOM      7  H   UNL     1       6.572   3.547  19.063  0.00  0.00    +0.000 HD
ENDBRANCH   1   5
BRANCH   1   8
ATOM      8  C   UNL     1       2.858   3.145  19.085  0.00  0.00    +0.000 A 
ATOM      9  C   UNL     1       3.391   2.642  20.274  0.00  0.00    +0.000 A 
ATOM     10  C   UNL     1       2.637   2.666  21.450  0.00  0.00    +0.000 A 
ATOM     11  C   UNL     1       1.358   3.220  21.449  0.00  0.00    +0.000 A 
ATOM     12  C   UNL     1       0.840   3.768  20.278  0.00  0.00    +0.000 A 
ATOM     13  C   UNL     1       1.588   3.733  19.097  0.00  0.00    +0.000 A 
ENDBRANCH   1   8
TORSDOF 2
ENDMDL
MODEL 4
REMARK VINA RESULT:      -6.1      1.558      1.792
REMARK  Name = 
REMARK  2 active torsions:
REMARK  status: ('A' for Active; 'I' for Inactive)
REMARK    1  A    between atoms: C_4  and  S_5
REMARK    2  A    between atoms: S_5  and  C_6
REMARK                            x       y       z     vdW  Elec       q    Type
REMARK                         _______ _______ _______ _____ _____    ______ ____
ROOT
ATOM      1  S   UNL     1       3.747   3.024  17.465  0.00  0.00    +0.000 S 
ENDROOT
BRANCH   1   5
ATOM      2  O   UNL     1       8.065   4.439  17.099  0.00  0.00    +0.000 OA
ATOM      3  C   UNL     1       6.867   4.438  17.256  0.00  0.00    +0.000 C 
ATOM      4  C   UNL     1       5.615   4.919  16.506  0.00  0.00    +0.000 C 
ATOM      5  C   UNL     1       4.848   4.451  17.766  0.00  0.00    +0.000 C 
ATOM      6  N   UNL     1       6.113   3.969  18.273  0.00  0.00    +0.000 N 
ATOM      7  H   UNL     1       6.423   3.564  19.141  0.00  0.00    +0.000 HD
ENDBRANCH   1   5
BRANCH   1   8
ATOM      8  C   UNL     1       2.837   3.098  19.000  0.00  0.00    +0.000 A 
ATOM      9  C   UNL     1       1.582   3.712  19.031  0.00  0.00    +0.000 A 
ATOM     10  C   UNL     1       0.898   3.857  20.240  0.00  0.00    +0.000 A 
ATOM     11  C   UNL     1       1.450   3.362  21.420  0.00  0.00    +0.000 A 
ATOM     12  C   UNL     1       2.679   2.705  21.388  0.00  0.00    +0.000 A 
ATOM     13  C   UNL     1       3.371   2.571  20.181  0.00  0.00    +0.000 A 
ENDBRANCH   1   8
TORSDOF 2
ENDMDL
MODEL 5
REMARK VINA RESULT:      -5.8      1.311      2.012
REMARK  Name = 
REMARK  2 active torsions:
REMARK  status: ('A' for Active; 'I' for Inactive)
REMARK    1  A    between atoms: C_4  and  S_5
REMARK    2  A    between atoms: S_5  and  C_6
REMARK                            x       y       z     vdW  Elec       q    Type
REMARK                         _______ _______ _______ _____ _____    ______ ____
ROOT
ATOM      1  S   UNL     1       3.454   6.366  18.119  0.00  0.00    +0.000 S 
ENDROOT
BRANCH   1   5
ATOM      2  O   UNL     1       7.497   5.420  20.003  0.00  0.00    +0.000 OA
ATOM      3  C   UNL     1       6.512   5.354  19.306  0.00  0.00    +0.000 C 
ATOM      4  C   UNL     1       5.268   4.463  19.165  0.00  0.00    +0.000 C 
ATOM      5  C   UNL     1       4.952   5.336  17.926  0.00  0.00    +0.000 C 
ATOM      6  N   UNL     1       6.112   6.126  18.272  0.00  0.00    +0.000 N 
ATOM      7  H   UNL     1       6.602   6.894  17.844  0.00  0.00    +0.000 HD
ENDBRANCH   1   5
BRANCH   1   8
ATOM      8  C   UNL     1       2.375   5.097  18.765  0.00  0.00    +0.000 A 
ATOM      9  C   UNL     1       1.961   5.155  20.098  0.00  0.00    +0.000 A 
ATOM     10  C   UNL     1       1.190   4.125  20.642  0.00  0.00    +0.000 A 
ATOM     11  C   UNL     1       0.805   3.046  19.848  0.00  0.00    +0.000 A 
ATOM     12  C   UNL     1       1.174   3.006  18.505  0.00  0.00    +0.000 A 
ATOM     13  C   UNL     1       1.956   4.030  17.963  0.00  0.00    +0.000 A 
ENDBRANCH   1   8
TORSDOF 2
ENDMDL
MODEL 6
REMARK VINA RESULT:      -5.8      1.281      1.416
REMARK  Name = 
REMARK  2 active torsions:
REMARK  status: ('A' for Active; 'I' for Inactive)
REMARK    1  A    between atoms: C_4  and  S_5
REMARK    2  A    between atoms: S_5  and  C_6
REMARK                            x       y       z     vdW  Elec       q    Type
REMARK                         _______ _______ _______ _____ _____    ______ ____
ROOT
ATOM      1  S   UNL     1       3.616   4.754  17.717  0.00  0.00    +0.000 S 
ENDROOT
BRANCH   1   5
ATOM      2  O   UNL     1       7.855   4.585  16.050  0.00  0.00    +0.000 OA
ATOM      3  C   UNL     1       6.904   4.450  16.783  0.00  0.00    +0.000 C 
ATOM      4  C   UNL     1       6.403   5.014  18.122  0.00  0.00    +0.000 C 
ATOM      5  C   UNL     1       5.255   3.988  17.968  0.00  0.00    +0.000 C 
ATOM      6  N   UNL     1       5.819   3.653  16.680  0.00  0.00    +0.000 N 
ATOM      7  H   UNL     1       5.620   2.964  15.974  0.00  0.00    +0.000 HD
ENDBRANCH   1   5
BRANCH   1   8
ATOM      8  C   UNL     1       2.768   3.951  19.070  0.00  0.00    +0.000 A 
ATOM      9  C   UNL     1       1.373   3.984  19.128  0.00  0.00    +0.000 A 
ATOM     10  C   UNL     1       0.700   3.438  20.223  0.00  0.00    +0.000 A 
ATOM     11  C   UNL     1       1.418   2.831  21.253  0.00  0.00    +0.000 A 
ATOM     12  C   UNL     1       2.807   2.752  21.178  0.00  0.00    +0.000 A 
ATOM     13  C   UNL     1       3.482   3.309  20.088  0.00  0.00    +0.000 A 
ENDBRANCH   1   8
TORSDOF 2
ENDMDL
MODEL 7
REMARK VINA RESULT:      -5.8      1.520      2.081
REMARK  Name = 
REMARK  2 active torsions:
REMARK  status: ('A' for Active; 'I' for Inactive)
REMARK    1  A    between atoms: C_4  and  S_5
REMARK    2  A    between atoms: S_5  and  C_6
REMARK                            x       y       z     vdW  Elec       q    Type
REMARK                         _______ _______ _______ _____ _____    ______ ____
ROOT
ATOM      1  S   UNL     1       3.323   6.537  18.143  0.00  0.00    +0.000 S 
ENDROOT
BRANCH   1   5
ATOM      2  O   UNL     1       7.509   6.370  16.346  0.00  0.00    +0.000 OA
ATOM      3  C   UNL     1       6.396   6.054  16.693  0.00  0.00    +0.000 C 
ATOM      4  C   UNL     1       5.741   5.129  17.731  0.00  0.00    +0.000 C 
ATOM      5  C   UNL     1       4.410   5.545  17.060  0.00  0.00    +0.000 C 
ATOM      6  N   UNL     1       5.187   6.438  16.230  0.00  0.00    +0.000 N 
ATOM      7  H   UNL     1       4.984   7.041  15.450  0.00  0.00    +0.000 HD
ENDBRANCH   1   5
BRANCH   1   8
ATOM      8  C   UNL     1       2.324   5.195  18.770  0.00  0.00    +0.000 A 
ATOM      9  C   UNL     1       1.948   5.182  20.115  0.00  0.00    +0.000 A 
ATOM     10  C   UNL     1       1.243   4.097  20.640  0.00  0.00    +0.000 A 
ATOM     11  C   UNL     1       0.884   3.032  19.816  0.00  0.00    +0.000 A 
ATOM     12  C   UNL     1       1.213   3.060  18.463  0.00  0.00    +0.000 A 
ATOM     13  C   UNL     1       1.930   4.140  17.938  0.00  0.00    +0.000 A 
ENDBRANCH   1   8
TORSDOF 2
ENDMDL
MODEL 8
REMARK VINA RESULT:      -5.8      1.536      1.567
REMARK  Name = 
REMARK  2 active torsions:
REMARK  status: ('A' for Active; 'I' for Inactive)
REMARK    1  A    between atoms: C_4  and  S_5
REMARK    2  A    between atoms: S_5  and  C_6
REMARK                            x       y       z     vdW  Elec       q    Type
REMARK                         _______ _______ _______ _____ _____    ______ ____
ROOT
ATOM      1  S   UNL     1       3.254   6.535  18.107  0.00  0.00    +0.000 S 
ENDROOT
BRANCH   1   5
ATOM      2  O   UNL     1       7.493   6.448  16.431  0.00  0.00    +0.000 OA
ATOM      3  C   UNL     1       6.373   6.114  16.737  0.00  0.00    +0.000 C 
ATOM      4  C   UNL     1       5.696   5.157  17.731  0.00  0.00    +0.000 C 
ATOM      5  C   UNL     1       4.382   5.580  17.032  0.00  0.00    +0.000 C 
ATOM      6  N   UNL     1       5.175   6.500  16.248  0.00  0.00    +0.000 N 
ATOM      7  H   UNL     1       4.990   7.121  15.478  0.00  0.00    +0.000 HD
ENDBRANCH   1   5
BRANCH   1   8
ATOM      8  C   UNL     1       2.366   5.153  18.807  0.00  0.00    +0.000 A 
ATOM      9  C   UNL     1       1.981   4.090  17.985  0.00  0.00    +0.000 A 
ATOM     10  C   UNL     1       1.210   3.046  18.499  0.00  0.00    +0.000 A 
ATOM     11  C   UNL     1       0.843   3.042  19.844  0.00  0.00    +0.000 A 
ATOM     12  C   UNL     1       1.264   4.074  20.680  0.00  0.00    +0.000 A 
ATOM     13  C   UNL     1       2.026   5.127  20.164  0.00  0.00    +0.000 A 
ENDBRANCH   1   8
TORSDOF 2
ENDMDL
MODEL 9
REMARK VINA RESULT:      -5.8      3.563      5.254
REMARK  Name = 
REMARK  2 active torsions:
REMARK  status: ('A' for Active; 'I' for Inactive)
REMARK    1  A    between atoms: C_4  and  S_5
REMARK    2  A    between atoms: S_5  and  C_6
REMARK                            x       y       z     vdW  Elec       q    Type
REMARK                         _______ _______ _______ _____ _____    ______ ____
ROOT
ATOM      1  S   UNL     1       1.626   3.835  18.013  0.00  0.00    +0.000 S 
ENDROOT
BRANCH   1   5
ATOM      2  O   UNL     1       1.486   2.339  22.318  0.00  0.00    +0.000 OA
ATOM      3  C   UNL     1       1.591   3.066  21.358  0.00  0.00    +0.000 C 
ATOM      4  C   UNL     1       2.695   3.850  20.632  0.00  0.00    +0.000 C 
ATOM      5  C   UNL     1       1.543   4.392  19.752  0.00  0.00    +0.000 C 
ATOM      6  N   UNL     1       0.661   3.511  20.485  0.00  0.00    +0.000 N 
ATOM      7  H   UNL     1      -0.332   3.354  20.503  0.00  0.00    +0.000 HD
ENDBRANCH   1   5
BRANCH   1   8
ATOM      8  C   UNL     1       3.126   4.693  17.561  0.00  0.00    +0.000 A 
ATOM      9  C   UNL     1       3.229   6.069  17.781  0.00  0.00    +0.000 A 
ATOM     10  C   UNL     1       4.358   6.769  17.352  0.00  0.00    +0.000 A 
ATOM     11  C   UNL     1       5.405   6.093  16.727  0.00  0.00    +0.000 A 
ATOM     12  C   UNL     1       5.330   4.713  16.548  0.00  0.00    +0.000 A 
ATOM     13  C   UNL     1       4.194   4.013  16.965  0.00  0.00    +0.000 A 
ENDBRANCH   1   8
TORSDOF 2
ENDMDL
