MODEL 1
REMARK VINA RESULT:      -7.6      0.000      0.000
REMARK  Name = 
REMARK  4 active torsions:
REMARK  status: ('A' for Active; 'I' for Inactive)
REMARK    1  A    between atoms: C_1  and  O_2
REMARK    2  A    between atoms: O_2  and  C_3
REMARK    3  A    between atoms: C_6  and  N_7
REMARK    4  A    between atoms: N_7  and  C_8
REMARK                            x       y       z     vdW  Elec       q    Type
REMARK                         _______ _______ _______ _____ _____    ______ ____
ROOT
ATOM      1  C   UNL     1       7.162   6.356  17.295  0.00  0.00    +0.000 A 
ATOM      2  C   UNL     1       6.733   6.211  18.614  0.00  0.00    +0.000 A 
ATOM      3  C   UNL     1       5.910   5.147  18.967  0.00  0.00    +0.000 A 
ATOM      4  C   UNL     1       5.475   4.218  18.012  0.00  0.00    +0.000 A 
ATOM      5  C   UNL     1       5.892   4.357  16.661  0.00  0.00    +0.000 A 
ATOM      6  C   UNL     1       5.476   3.465  15.645  0.00  0.00    +0.000 A 
ATOM      7  C   UNL     1       5.877   3.621  14.317  0.00  0.00    +0.000 A 
ATOM      8  C   UNL     1       6.703   4.678  13.968  0.00  0.00    +0.000 A 
ATOM      9  C   UNL     1       7.127   5.576  14.948  0.00  0.00    +0.000 A 
ATOM     10  C   UNL     1       6.737   5.442  16.300  0.00  0.00    +0.000 A 
ENDROOT
BRANCH   1  12
ATOM     11  C   UNL     1       7.976   8.542  17.732  0.00  0.00    +0.000 C 
ATOM     12  O   UNL     1       7.974   7.392  16.891  0.00  0.00    +0.000 OA
ENDBRANCH   1  12
BRANCH   4  13
ATOM     13  N   UNL     1       4.631   3.145  18.401  0.00  0.00    +0.000 N 
ATOM     14  H   UNL     1       5.131   2.263  18.414  0.00  0.00    +0.000 HD
BRANCH  13  15
ATOM     15  C   UNL     1       3.485   3.178  19.220  0.00  0.00    +0.000 A 
ATOM     16  C   UNL     1       3.494   2.662  20.523  0.00  0.00    +0.000 A 
ATOM     17  C   UNL     1       2.355   2.709  21.329  0.00  0.00    +0.000 A 
ATOM     18  C   UNL     1       1.188   3.292  20.845  0.00  0.00    +0.000 A 
ATOM     19  C   UNL     1       1.165   3.828  19.558  0.00  0.00    +0.000 A 
ATOM     20  C   UNL     1       2.306   3.774  18.753  0.00  0.00    +0.000 A 
ENDBRANCH  13  15
ENDBRANCH   4  13
TORSDOF 3
ENDMDL
MODEL 2
REMARK VINA RESULT:      -7.6      0.117      1.108
REMARK  Name = 
REMARK  4 active torsions:
REMARK  status: ('A' for Active; 'I' for Inactive)
REMARK    1  A    between atoms: C_1  and  O_2
REMARK    2  A    between atoms: O_2  and  C_3
REMARK    3  A    between atoms: C_6  and  N_7
REMARK    4  A    between atoms: N_7  and  C_8
REMARK                            x       y       z     vdW  Elec       q    Type
REMARK                         _______ _______ _______ _____ _____    ______ ____
ROOT
ATOM      1  C   UNL     1       7.127   6.310  17.296  0.00  0.00    +0.000 A 
ATOM      2  C   UNL     1       6.667   6.170  18.605  0.00  0.00    +0.000 A 
ATOM      3  C   UNL     1       5.812   5.125  18.936  0.00  0.00    +0.000 A 
ATOM      4  C   UNL     1       5.373   4.211  17.969  0.00  0.00    +0.000 A 
ATOM      5  C   UNL     1       5.822   4.345  16.627  0.00  0.00    +0.000 A 
ATOM      6  C   UNL     1       5.404   3.467  15.598  0.00  0.00    +0.000 A 
ATOM      7  C   UNL     1       5.836   3.619  14.279  0.00  0.00    +0.000 A 
ATOM      8  C   UNL     1       6.695   4.657  13.952  0.00  0.00    +0.000 A 
ATOM      9  C   UNL     1       7.120   5.540  14.945  0.00  0.00    +0.000 A 
ATOM     10  C   UNL     1       6.700   5.411  16.288  0.00  0.00    +0.000 A 
ENDROOT
BRANCH   1  12
ATOM     11  C   UNL     1       7.952   8.491  17.734  0.00  0.00    +0.000 C 
ATOM     12  O   UNL     1       7.972   7.326  16.913  0.00  0.00    +0.000 OA
ENDBRANCH   1  12
BRANCH   4  13
ATOM     13  N   UNL     1       4.496   3.156  18.335  0.00  0.00    +0.000 N 
ATOM     14  H   UNL     1       4.943   2.251  18.247  0.00  0.00    +0.000 HD
BRANCH  13  15
ATOM     15  C   UNL     1       3.411   3.187  19.234  0.00  0.00    +0.000 A 
ATOM     16  C   UNL     1       2.166   3.719  18.869  0.00  0.00    +0.000 A 
ATOM     17  C   UNL     1       1.095   3.736  19.765  0.00  0.00    +0.000 A 
ATOM     18  C   UNL     1       1.250   3.201  21.040  0.00  0.00    +0.000 A 
ATOM     19  C   UNL     1       2.474   2.649  21.414  0.00  0.00    +0.000 A 
ATOM     20  C   UNL     1       3.545   2.639  20.517  0.00  0.00    +0.000 A 
ENDBRANCH  13  15
ENDBRANCH   4  13
TORSDOF 3
ENDMDL
MODEL 3
REMARK VINA RESULT:      -7.5      2.529      6.048
REMARK  Name = 
REMARK  4 active torsions:
REMARK  status: ('A' for Active; 'I' for Inactive)
REMARK    1  A    between atoms: C_1  and  O_2
REMARK    2  A    between atoms: O_2  and  C_3
REMARK    3  A    between atoms: C_6  and  N_7
REMARK    4  A    between atoms: N_7  and  C_8
REMARK                            x       y       z     vdW  Elec       q    Type
REMARK                         _______ _______ _______ _____ _____    ______ ____
ROOT
ATOM      1  C   UNL     1       3.079   6.547  17.932  0.00  0.00    +0.000 A 
ATOM      2  C   UNL     1       4.214   7.107  17.347  0.00  0.00    +0.000 A 
ATOM      3  C   UNL     1       5.125   6.297  16.678  0.00  0.00    +0.000 A 
ATOM      4  C   UNL     1       4.943   4.910  16.597  0.00  0.00    +0.000 A 
ATOM      5  C   UNL     1       3.798   4.321  17.197  0.00  0.00    +0.000 A 
ATOM      6  C   UNL     1       3.561   2.926  17.168  0.00  0.00    +0.000 A 
ATOM      7  C   UNL     1       2.443   2.354  17.778  0.00  0.00    +0.000 A 
ATOM      8  C   UNL     1       1.532   3.163  18.438  0.00  0.00    +0.000 A 
ATOM      9  C   UNL     1       1.741   4.542  18.487  0.00  0.00    +0.000 A 
ATOM     10  C   UNL     1       2.863   5.148  17.879  0.00  0.00    +0.000 A 
ENDROOT
BRANCH   1  12
ATOM     11  C   UNL     1       2.040   8.662  18.204  0.00  0.00    +0.000 C 
ATOM     12  O   UNL     1       2.147   7.300  18.609  0.00  0.00    +0.000 OA
ENDBRANCH   1  12
BRANCH   4  13
ATOM     13  N   UNL     1       5.893   4.109  15.911  0.00  0.00    +0.000 N 
ATOM     14  H   UNL     1       5.944   3.175  16.302  0.00  0.00    +0.000 HD
BRANCH  13  15
ATOM     15  C   UNL     1       6.325   4.207  14.574  0.00  0.00    +0.000 A 
ATOM     16  C   UNL     1       7.397   5.031  14.204  0.00  0.00    +0.000 A 
ATOM     17  C   UNL     1       7.823   5.114  12.876  0.00  0.00    +0.000 A 
ATOM     18  C   UNL     1       7.188   4.355  11.897  0.00  0.00    +0.000 A 
ATOM     19  C   UNL     1       6.133   3.515  12.249  0.00  0.00    +0.000 A 
ATOM     20  C   UNL     1       5.707   3.439  13.577  0.00  0.00    +0.000 A 
ENDBRANCH  13  15
ENDBRANCH   4  13
TORSDOF 3
ENDMDL
MODEL 4
REMARK VINA RESULT:      -7.4      2.548      6.018
REMARK  Name = 
REMARK  4 active torsions:
REMARK  status: ('A' for Active; 'I' for Inactive)
REMARK    1  A    between atoms: C_1  and  O_2
REMARK    2  A    between atoms: O_2  and  C_3
REMARK    3  A    between atoms: C_6  and  N_7
REMARK    4  A    between atoms: N_7  and  C_8
REMARK                            x       y       z     vdW  Elec       q    Type
REMARK                         _______ _______ _______ _____ _____    ______ ____
ROOT
ATOM      1  C   UNL     1       3.180   6.744  17.929  0.00  0.00    +0.000 A 
ATOM      2  C   UNL     1       4.340   7.317  17.410  0.00  0.00    +0.000 A 
ATOM      3  C   UNL     1       5.284   6.522  16.769  0.00  0.00    +0.000 A 
ATOM      4  C   UNL     1       5.107   5.137  16.651  0.00  0.00    +0.000 A 
ATOM      5  C   UNL     1       3.936   4.534  17.184  0.00  0.00    +0.000 A 
ATOM      6  C   UNL     1       3.704   3.140  17.115  0.00  0.00    +0.000 A 
ATOM      7  C   UNL     1       2.559   2.555  17.659  0.00  0.00    +0.000 A 
ATOM      8  C   UNL     1       1.615   3.350  18.292  0.00  0.00    +0.000 A 
ATOM      9  C   UNL     1       1.819   4.727  18.379  0.00  0.00    +0.000 A 
ATOM     10  C   UNL     1       2.969   5.347  17.837  0.00  0.00    +0.000 A 
ENDROOT
BRANCH   1  12
ATOM     11  C   UNL     1       1.850   8.709  17.949  0.00  0.00    +0.000 C 
ATOM     12  O   UNL     1       2.215   7.483  18.576  0.00  0.00    +0.000 OA
ENDBRANCH   1  12
BRANCH   4  13
ATOM     13  N   UNL     1       6.090   4.350  15.995  0.00  0.00    +0.000 N 
ATOM     14  H   UNL     1       6.277   3.491  16.499  0.00  0.00    +0.000 HD
BRANCH  13  15
ATOM     15  C   UNL     1       6.409   4.305  14.623  0.00  0.00    +0.000 A 
ATOM     16  C   UNL     1       5.674   3.523  13.721  0.00  0.00    +0.000 A 
ATOM     17  C   UNL     1       5.993   3.493  12.362  0.00  0.00    +0.000 A 
ATOM     18  C   UNL     1       7.049   4.262  11.881  0.00  0.00    +0.000 A 
ATOM     19  C   UNL     1       7.778   5.061  12.759  0.00  0.00    +0.000 A 
ATOM     20  C   UNL     1       7.459   5.084  14.120  0.00  0.00    +0.000 A 
ENDBRANCH  13  15
ENDBRANCH   4  13
TORSDOF 3
ENDMDL
MODEL 5
REMARK VINA RESULT:      -7.2      5.494      7.463
REMARK  Name = 
REMARK  4 active torsions:
REMARK  status: ('A' for Active; 'I' for Inactive)
REMARK    1  A    between atoms: C_1  and  O_2
REMARK    2  A    between atoms: O_2  and  C_3
REMARK    3  A    between atoms: C_6  and  N_7
REMARK    4  A    between atoms: N_7  and  C_8
REMARK                            x       y       z     vdW  Elec       q    Type
REMARK                         _______ _______ _______ _____ _____    ______ ____
ROOT
ATOM      1  C   UNL     1       0.398  10.606  18.846  0.00  0.00    +0.000 A 
ATOM      2  C   UNL     1       1.135   9.888  17.906  0.00  0.00    +0.000 A 
ATOM      3  C   UNL     1       1.791   8.720  18.278  0.00  0.00    +0.000 A 
ATOM      4  C   UNL     1       1.751   8.253  19.599  0.00  0.00    +0.000 A 
ATOM      5  C   UNL     1       1.014   8.979  20.574  0.00  0.00    +0.000 A 
ATOM      6  C   UNL     1       0.947   8.574  21.928  0.00  0.00    +0.000 A 
ATOM      7  C   UNL     1       0.236   9.304  22.882  0.00  0.00    +0.000 A 
ATOM      8  C   UNL     1      -0.424  10.464  22.508  0.00  0.00    +0.000 A 
ATOM      9  C   UNL     1      -0.372  10.891  21.180  0.00  0.00    +0.000 A 
ATOM     10  C   UNL     1       0.340  10.172  20.193  0.00  0.00    +0.000 A 
ENDROOT
BRANCH   1  12
ATOM     11  C   UNL     1      -1.528  11.608  17.889  0.00  0.00    +0.000 C 
ATOM     12  O   UNL     1      -0.268  11.770  18.533  0.00  0.00    +0.000 OA
ENDBRANCH   1  12
BRANCH   4  13
ATOM     13  N   UNL     1       2.435   7.060  19.951  0.00  0.00    +0.000 N 
ATOM     14  H   UNL     1       3.005   7.187  20.779  0.00  0.00    +0.000 HD
BRANCH  13  15
ATOM     15  C   UNL     1       2.062   5.725  19.697  0.00  0.00    +0.000 A 
ATOM     16  C   UNL     1       1.480   4.921  20.687  0.00  0.00    +0.000 A 
ATOM     17  C   UNL     1       1.107   3.602  20.421  0.00  0.00    +0.000 A 
ATOM     18  C   UNL     1       1.296   3.071  19.149  0.00  0.00    +0.000 A 
ATOM     19  C   UNL     1       1.855   3.862  18.146  0.00  0.00    +0.000 A 
ATOM     20  C   UNL     1       2.232   5.179  18.417  0.00  0.00    +0.000 A 
ENDBRANCH  13  15
ENDBRANCH   4  13
TORSDOF 3
ENDMDL
MODEL 6
REMARK VINA RESULT:      -7.2      5.505      7.518
REMARK  Name = 
REMARK  4 active torsions:
REMARK  status: ('A' for Active; 'I' for Inactive)
REMARK    1  A    between atoms: C_1  and  O_2
REMARK    2  A    between atoms: O_2  and  C_3
REMARK    3  A    between atoms: C_6  and  N_7
REMARK    4  A    between atoms: N_7  and  C_8
REMARK                            x       y       z     vdW  Elec       q    Type
REMARK                         _______ _______ _______ _____ _____    ______ ____
ROOT
ATOM      1  C   UNL     1       0.441  10.641  18.903  0.00  0.00    +0.000 A 
ATOM      2  C   UNL     1       1.172   9.920  17.960  0.00  0.00    +0.000 A 
ATOM      3  C   UNL     1       1.803   8.736  18.323  0.00  0.00    +0.000 A 
ATOM      4  C   UNL     1       1.745   8.255  19.638  0.00  0.00    +0.000 A 
ATOM      5  C   UNL     1       1.014   8.983  20.616  0.00  0.00    +0.000 A 
ATOM      6  C   UNL     1       0.929   8.563  21.965  0.00  0.00    +0.000 A 
ATOM      7  C   UNL     1       0.224   9.296  22.922  0.00  0.00    +0.000 A 
ATOM      8  C   UNL     1      -0.412  10.472  22.557  0.00  0.00    +0.000 A 
ATOM      9  C   UNL     1      -0.341  10.913  21.234  0.00  0.00    +0.000 A 
ATOM     10  C   UNL     1       0.364  10.192  20.244  0.00  0.00    +0.000 A 
ENDROOT
BRANCH   1  12
ATOM     11  C   UNL     1      -1.461  11.688  17.944  0.00  0.00    +0.000 C 
ATOM     12  O   UNL     1      -0.202  11.820  18.598  0.00  0.00    +0.000 OA
ENDBRANCH   1  12
BRANCH   4  13
ATOM     13  N   UNL     1       2.404   7.045  19.981  0.00  0.00    +0.000 N 
ATOM     14  H   UNL     1       2.947   7.145  20.831  0.00  0.00    +0.000 HD
BRANCH  13  15
ATOM     15  C   UNL     1       2.027   5.722  19.680  0.00  0.00    +0.000 A 
ATOM     16  C   UNL     1       2.229   5.169  18.408  0.00  0.00    +0.000 A 
ATOM     17  C   UNL     1       1.859   3.852  18.123  0.00  0.00    +0.000 A 
ATOM     18  C   UNL     1       1.294   3.061  19.119  0.00  0.00    +0.000 A 
ATOM     19  C   UNL     1       1.104   3.587  20.396  0.00  0.00    +0.000 A 
ATOM     20  C   UNL     1       1.470   4.906  20.675  0.00  0.00    +0.000 A 
ENDBRANCH  13  15
ENDBRANCH   4  13
TORSDOF 3
ENDMDL
MODEL 7
REMARK VINA RESULT:      -7.1      3.825      5.657
REMARK  Name = 
REMARK  4 active torsions:
REMARK  status: ('A' for Active; 'I' for Inactive)
REMARK    1  A    between atoms: C_1  and  O_2
REMARK    2  A    between atoms: O_2  and  C_3
REMARK    3  A    between atoms: C_6  and  N_7
REMARK    4  A    between atoms: N_7  and  C_8
REMARK                            x       y       z     vdW  Elec       q    Type
REMARK                         _______ _______ _______ _____ _____    ______ ____
ROOT
ATOM      1  C   UNL     1       3.803   4.612  17.329  0.00  0.00    +0.000 A 
ATOM      2  C   UNL     1       4.280   5.910  17.503  0.00  0.00    +0.000 A 
ATOM      3  C   UNL     1       3.793   6.699  18.540  0.00  0.00    +0.000 A 
ATOM      4  C   UNL     1       2.803   6.224  19.410  0.00  0.00    +0.000 A 
ATOM      5  C   UNL     1       2.296   4.908  19.241  0.00  0.00    +0.000 A 
ATOM      6  C   UNL     1       1.284   4.373  20.073  0.00  0.00    +0.000 A 
ATOM      7  C   UNL     1       0.780   3.085  19.886  0.00  0.00    +0.000 A 
ATOM      8  C   UNL     1       1.271   2.297  18.857  0.00  0.00    +0.000 A 
ATOM      9  C   UNL     1       2.266   2.799  18.017  0.00  0.00    +0.000 A 
ATOM     10  C   UNL     1       2.796   4.099  18.183  0.00  0.00    +0.000 A 
ENDROOT
BRANCH   1  12
ATOM     11  C   UNL     1       5.589   4.003  15.890  0.00  0.00    +0.000 C 
ATOM     12  O   UNL     1       4.247   3.789  16.318  0.00  0.00    +0.000 OA
ENDBRANCH   1  12
BRANCH   4  13
ATOM     13  N   UNL     1       2.322   7.054  20.457  0.00  0.00    +0.000 N 
ATOM     14  H   UNL     1       2.969   7.083  21.237  0.00  0.00    +0.000 HD
BRANCH  13  15
ATOM     15  C   UNL     1       1.457   8.163  20.374  0.00  0.00    +0.000 A 
ATOM     16  C   UNL     1       0.667   8.565  21.460  0.00  0.00    +0.000 A 
ATOM     17  C   UNL     1      -0.180   9.672  21.369  0.00  0.00    +0.000 A 
ATOM     18  C   UNL     1      -0.236  10.406  20.188  0.00  0.00    +0.000 A 
ATOM     19  C   UNL     1       0.557  10.033  19.104  0.00  0.00    +0.000 A 
ATOM     20  C   UNL     1       1.399   8.922  19.197  0.00  0.00    +0.000 A 
ENDBRANCH  13  15
ENDBRANCH   4  13
TORSDOF 3
ENDMDL
MODEL 8
REMARK VINA RESULT:      -7.1      3.770      5.605
REMARK  Name = 
REMARK  4 active torsions:
REMARK  status: ('A' for Active; 'I' for Inactive)
REMARK    1  A    between atoms: C_1  and  O_2
REMARK    2  A    between atoms: O_2  and  C_3
REMARK    3  A    between atoms: C_6  and  N_7
REMARK    4  A    between atoms: N_7  and  C_8
REMARK                            x       y       z     vdW  Elec       q    Type
REMARK                         _______ _______ _______ _____ _____    ______ ____
ROOT
ATOM      1  C   UNL     1       3.926   4.614  17.160  0.00  0.00    +0.000 A 
ATOM      2  C   UNL     1       4.410   5.906  17.361  0.00  0.00    +0.000 A 
ATOM      3  C   UNL     1       3.922   6.679  18.408  0.00  0.00    +0.000 A 
ATOM      4  C   UNL     1       2.924   6.196  19.264  0.00  0.00    +0.000 A 
ATOM      5  C   UNL     1       2.409   4.886  19.068  0.00  0.00    +0.000 A 
ATOM      6  C   UNL     1       1.389   4.343  19.884  0.00  0.00    +0.000 A 
ATOM      7  C   UNL     1       0.877   3.061  19.672  0.00  0.00    +0.000 A 
ATOM      8  C   UNL     1       1.370   2.288  18.632  0.00  0.00    +0.000 A 
ATOM      9  C   UNL     1       2.374   2.799  17.807  0.00  0.00    +0.000 A 
ATOM     10  C   UNL     1       2.911   4.092  18.000  0.00  0.00    +0.000 A 
ENDROOT
BRANCH   1  12
ATOM     11  C   UNL     1       5.760   3.898  15.837  0.00  0.00    +0.000 C 
ATOM     12  O   UNL     1       4.371   3.806  16.138  0.00  0.00    +0.000 OA
ENDBRANCH   1  12
BRANCH   4  13
ATOM     13  N   UNL     1       2.441   7.010  20.322  0.00  0.00    +0.000 N 
ATOM     14  H   UNL     1       3.082   7.020  21.107  0.00  0.00    +0.000 HD
BRANCH  13  15
ATOM     15  C   UNL     1       1.585   8.128  20.252  0.00  0.00    +0.000 A 
ATOM     16  C   UNL     1       1.422   8.859  19.067  0.00  0.00    +0.000 A 
ATOM     17  C   UNL     1       0.564   9.959  19.008  0.00  0.00    +0.000 A 
ATOM     18  C   UNL     1      -0.159  10.335  20.135  0.00  0.00    +0.000 A 
ATOM     19  C   UNL     1      -0.025   9.608  21.317  0.00  0.00    +0.000 A 
ATOM     20  C   UNL     1       0.838   8.511  21.374  0.00  0.00    +0.000 A 
ENDBRANCH  13  15
ENDBRANCH   4  13
TORSDOF 3
ENDMDL
MODEL 9
REMARK VINA RESULT:      -7.1      4.071      5.581
REMARK  Name = 
REMARK  4 active torsions:
REMARK  status: ('A' for Active; 'I' for Inactive)
REMARK    1  A    between atoms: C_1  and  O_2
REMARK    2  A    between atoms: O_2  and  C_3
REMARK    3  A    between atoms: C_6  and  N_7
REMARK    4  A    between atoms: N_7  and  C_8
REMARK                            x       y       z     vdW  Elec       q    Type
REMARK                         _______ _______ _______ _____ _____    ______ ____
ROOT
ATOM      1  C   UNL     1       2.653   3.456  18.394  0.00  0.00    +0.000 A 
ATOM      2  C   UNL     1       1.872   3.724  19.518  0.00  0.00    +0.000 A 
ATOM      3  C   UNL     1       1.831   5.008  20.050  0.00  0.00    +0.000 A 
ATOM      4  C   UNL     1       2.584   6.049  19.492  0.00  0.00    +0.000 A 
ATOM      5  C   UNL     1       3.395   5.793  18.354  0.00  0.00    +0.000 A 
ATOM      6  C   UNL     1       4.193   6.794  17.752  0.00  0.00    +0.000 A 
ATOM      7  C   UNL     1       5.001   6.528  16.645  0.00  0.00    +0.000 A 
ATOM      8  C   UNL     1       5.036   5.249  16.111  0.00  0.00    +0.000 A 
ATOM      9  C   UNL     1       4.262   4.239  16.686  0.00  0.00    +0.000 A 
ATOM     10  C   UNL     1       3.435   4.481  17.807  0.00  0.00    +0.000 A 
ENDROOT
BRANCH   1  12
ATOM     11  C   UNL     1       3.564   1.269  18.511  0.00  0.00    +0.000 C 
ATOM     12  O   UNL     1       2.733   2.204  17.829  0.00  0.00    +0.000 OA
ENDBRANCH   1  12
BRANCH   4  13
ATOM     13  N   UNL     1       2.525   7.349  20.060  0.00  0.00    +0.000 N 
ATOM     14  H   UNL     1       3.446   7.685  20.319  0.00  0.00    +0.000 HD
BRANCH  13  15
ATOM     15  C   UNL     1       1.575   8.365  19.835  0.00  0.00    +0.000 A 
ATOM     16  C   UNL     1       1.430   8.976  18.582  0.00  0.00    +0.000 A 
ATOM     17  C   UNL     1       0.479   9.976  18.369  0.00  0.00    +0.000 A 
ATOM     18  C   UNL     1      -0.358  10.368  19.409  0.00  0.00    +0.000 A 
ATOM     19  C   UNL     1      -0.242   9.759  20.657  0.00  0.00    +0.000 A 
ATOM     20  C   UNL     1       0.715   8.762  20.868  0.00  0.00    +0.000 A 
ENDBRANCH  13  15
ENDBRANCH   4  13
TORSDOF 3
ENDMDL
