MODEL 1
REMARK VINA RESULT:      -8.3      0.000      0.000
REMARK  Name = 
REMARK  8 active torsions:
REMARK  status: ('A' for Active; 'I' for Inactive)
REMARK    1  A    between atoms: C_1  and  N_2
REMARK    2  A    between atoms: C_3  and  C_5
REMARK    3  A    between atoms: C_13  and  N_14
REMARK    4  A    between atoms: N_14  and  C_15
REMARK    5  A    between atoms: N_22  and  C_23
REMARK    6  A    between atoms: C_23  and  C_24
REMARK    7  A    between atoms: C_27  and  O_28
REMARK    8  A    between atoms: O_28  and  C_29
REMARK                            x       y       z     vdW  Elec       q    Type
REMARK                         _______ _______ _______ _____ _____    ______ ____
ROOT
ATOM      1  N   UNL     1       2.979   7.000  19.755  0.00  0.00    +0.000 N 
ATOM      2  H   UNL     1       3.854   7.515  19.652  0.00  0.00    +0.000 HD
ENDROOT
BRANCH   1  11
ATOM      3  C   UNL     1       4.090   5.334  18.299  0.00  0.00    +0.000 A 
ATOM      4  C   UNL     1       4.210   4.027  17.822  0.00  0.00    +0.000 A 
ATOM      5  N   UNL     1       3.474   2.971  18.210  0.00  0.00    +0.000 NA
ATOM      6  C   UNL     1       2.582   3.294  19.159  0.00  0.00    +0.000 A 
ATOM      7  N   UNL     1       1.748   2.369  19.725  0.00  0.00    +0.000 N 
ATOM      8  C   UNL     1       0.987   2.956  20.690  0.00  0.00    +0.000 A 
ATOM      9  C   UNL     1       1.348   4.291  20.736  0.00  0.00    +0.000 A 
ATOM     10  C   UNL     1       2.336   4.551  19.734  0.00  0.00    +0.000 A 
ATOM     11  C   UNL     1       3.091   5.673  19.268  0.00  0.00    +0.000 A 
ATOM     12  H   UNL     1       1.743   1.396  19.455  0.00  0.00    +0.000 HD
BRANCH   3  15
ATOM     13  C   UNL     1       7.367   7.020  17.420  0.00  0.00    +0.000 C 
ATOM     14  N   UNL     1       6.358   6.210  18.062  0.00  0.00    +0.000 N 
ATOM     15  C   UNL     1       5.039   6.289  17.670  0.00  0.00    +0.000 C 
ATOM     16  O   UNL     1       4.642   7.066  16.806  0.00  0.00    +0.000 OA
ATOM     17  H   UNL     1       6.645   5.381  18.573  0.00  0.00    +0.000 HD
ENDBRANCH   3  15
ENDBRANCH   1  11
BRANCH   1  18
ATOM     18  C   UNL     1       1.810   7.856  19.442  0.00  0.00    +0.000 C 
ATOM     19  C   UNL     1       1.236   8.431  20.749  0.00  0.00    +0.000 C 
ATOM     20  C   UNL     1       0.441   9.730  20.537  0.00  0.00    +0.000 C 
ATOM     21  C   UNL     1       1.311  11.009  20.454  0.00  0.00    +0.000 C 
ATOM     22  C   UNL     1       1.436  11.314  18.959  0.00  0.00    +0.000 C 
ATOM     23  C   UNL     1       0.956  10.015  18.325  0.00  0.00    +0.000 C 
ATOM     24  C   UNL     1       2.119   8.964  18.423  0.00  0.00    +0.000 C 
ATOM     25  N   UNL     1      -0.185   9.631  19.199  0.00  0.00    +0.000 NA
BRANCH  25  26
ATOM     26  C   UNL     1      -1.369  10.520  19.180  0.00  0.00    +0.000 C 
BRANCH  26  27
ATOM     27  C   UNL     1      -2.147  10.559  17.892  0.00  0.00    +0.000 A 
ATOM     28  C   UNL     1      -1.802   9.734  16.817  0.00  0.00    +0.000 A 
ATOM     29  C   UNL     1      -2.575   9.738  15.655  0.00  0.00    +0.000 A 
ATOM     30  C   UNL     1      -3.707  10.557  15.553  0.00  0.00    +0.000 A 
ATOM     31  C   UNL     1      -4.040  11.397  16.613  0.00  0.00    +0.000 A 
ATOM     32  C   UNL     1      -3.267  11.396  17.772  0.00  0.00    +0.000 A 
BRANCH  30  33
ATOM     33  O   UNL     1      -4.394  10.468  14.378  0.00  0.00    +0.000 OA
ATOM     34  C   UNL     1      -3.674   9.865  13.308  0.00  0.00    +0.000 C 
ENDBRANCH  30  33
ENDBRANCH  26  27
ENDBRANCH  25  26
ENDBRANCH   1  18
TORSDOF 6
ENDMDL
MODEL 2
REMARK VINA RESULT:      -8.0      1.379      3.184
REMARK  Name = 
REMARK  8 active torsions:
REMARK  status: ('A' for Active; 'I' for Inactive)
REMARK    1  A    between atoms: C_1  and  N_2
REMARK    2  A    between atoms: C_3  and  C_5
REMARK    3  A    between atoms: C_13  and  N_14
REMARK    4  A    between atoms: N_14  and  C_15
REMARK    5  A    between atoms: N_22  and  C_23
REMARK    6  A    between atoms: C_23  and  C_24
REMARK    7  A    between atoms: C_27  and  O_28
REMARK    8  A    between atoms: O_28  and  C_29
REMARK                            x       y       z     vdW  Elec       q    Type
REMARK                         _______ _______ _______ _____ _____    ______ ____
ROOT
ATOM      1  N   UNL     1       2.889   6.875  19.742  0.00  0.00    +0.000 N 
ATOM      2  H   UNL     1       3.697   7.399  20.080  0.00  0.00    +0.000 HD
ENDROOT
BRANCH   1  11
ATOM      3  C   UNL     1       2.769   4.497  19.065  0.00  0.00    +0.000 A 
ATOM      4  C   UNL     1       3.136   3.459  18.205  0.00  0.00    +0.000 A 
ATOM      5  N   UNL     1       3.931   3.567  17.127  0.00  0.00    +0.000 NA
ATOM      6  C   UNL     1       4.348   4.827  16.926  0.00  0.00    +0.000 A 
ATOM      7  N   UNL     1       5.142   5.176  15.868  0.00  0.00    +0.000 N 
ATOM      8  C   UNL     1       5.368   6.520  15.879  0.00  0.00    +0.000 A 
ATOM      9  C   UNL     1       4.701   7.036  16.976  0.00  0.00    +0.000 A 
ATOM     10  C   UNL     1       4.075   5.970  17.696  0.00  0.00    +0.000 A 
ATOM     11  C   UNL     1       3.272   5.824  18.871  0.00  0.00    +0.000 A 
ATOM     12  H   UNL     1       5.472   4.510  15.186  0.00  0.00    +0.000 HD
BRANCH   3  15
ATOM     13  C   UNL     1       1.511   2.492  22.024  0.00  0.00    +0.000 C 
ATOM     14  N   UNL     1       2.247   2.921  20.857  0.00  0.00    +0.000 N 
ATOM     15  C   UNL     1       1.884   4.065  20.179  0.00  0.00    +0.000 C 
ATOM     16  O   UNL     1       0.912   4.747  20.487  0.00  0.00    +0.000 OA
ATOM     17  H   UNL     1       3.190   2.572  20.715  0.00  0.00    +0.000 HD
ENDBRANCH   3  15
ENDBRANCH   1  11
BRANCH   1  18
ATOM     18  C   UNL     1       1.753   7.776  19.435  0.00  0.00    +0.000 C 
ATOM     19  C   UNL     1       1.131   8.277  20.751  0.00  0.00    +0.000 C 
ATOM     20  C   UNL     1       0.373   9.605  20.591  0.00  0.00    +0.000 C 
ATOM     21  C   UNL     1       1.271  10.866  20.633  0.00  0.00    +0.000 C 
ATOM     22  C   UNL     1       1.471  11.266  19.169  0.00  0.00    +0.000 C 
ATOM     23  C   UNL     1       0.995  10.023  18.429  0.00  0.00    +0.000 C 
ATOM     24  C   UNL     1       2.131   8.941  18.508  0.00  0.00    +0.000 C 
ATOM     25  N   UNL     1      -0.193   9.609  19.223  0.00  0.00    +0.000 NA
BRANCH  25  26
ATOM     26  C   UNL     1      -1.356  10.523  19.210  0.00  0.00    +0.000 C 
BRANCH  26  27
ATOM     27  C   UNL     1      -2.139  10.582  17.926  0.00  0.00    +0.000 A 
ATOM     28  C   UNL     1      -1.820   9.748  16.850  0.00  0.00    +0.000 A 
ATOM     29  C   UNL     1      -2.598   9.772  15.691  0.00  0.00    +0.000 A 
ATOM     30  C   UNL     1      -3.709  10.619  15.594  0.00  0.00    +0.000 A 
ATOM     31  C   UNL     1      -4.016  11.468  16.655  0.00  0.00    +0.000 A 
ATOM     32  C   UNL     1      -3.239  11.447  17.811  0.00  0.00    +0.000 A 
BRANCH  30  33
ATOM     33  O   UNL     1      -4.403  10.547  14.422  0.00  0.00    +0.000 OA
ATOM     34  C   UNL     1      -3.723   9.882  13.363  0.00  0.00    +0.000 C 
ENDBRANCH  30  33
ENDBRANCH  26  27
ENDBRANCH  25  26
ENDBRANCH   1  18
TORSDOF 6
ENDMDL
MODEL 3
REMARK VINA RESULT:      -7.6      2.980      5.833
REMARK  Name = 
REMARK  8 active torsions:
REMARK  status: ('A' for Active; 'I' for Inactive)
REMARK    1  A    between atoms: C_1  and  N_2
REMARK    2  A    between atoms: C_3  and  C_5
REMARK    3  A    between atoms: C_13  and  N_14
REMARK    4  A    between atoms: N_14  and  C_15
REMARK    5  A    between atoms: N_22  and  C_23
REMARK    6  A    between atoms: C_23  and  C_24
REMARK    7  A    between atoms: C_27  and  O_28
REMARK    8  A    between atoms: O_28  and  C_29
REMARK                            x       y       z     vdW  Elec       q    Type
REMARK                         _______ _______ _______ _____ _____    ______ ____
ROOT
ATOM      1  N   UNL     1       2.482   6.674  18.234  0.00  0.00    +0.000 N 
ATOM      2  H   UNL     1       1.645   6.097  18.317  0.00  0.00    +0.000 HD
ENDROOT
BRANCH   1  11
ATOM      3  C   UNL     1       3.597   4.683  19.195  0.00  0.00    +0.000 A 
ATOM      4  C   UNL     1       4.754   3.941  19.445  0.00  0.00    +0.000 A 
ATOM      5  N   UNL     1       5.999   4.259  19.052  0.00  0.00    +0.000 NA
ATOM      6  C   UNL     1       6.034   5.399  18.344  0.00  0.00    +0.000 A 
ATOM      7  N   UNL     1       7.193   5.898  17.816  0.00  0.00    +0.000 N 
ATOM      8  C   UNL     1       6.932   7.032  17.106  0.00  0.00    +0.000 A 
ATOM      9  C   UNL     1       5.569   7.259  17.190  0.00  0.00    +0.000 A 
ATOM     10  C   UNL     1       4.970   6.256  18.016  0.00  0.00    +0.000 A 
ATOM     11  C   UNL     1       3.661   5.929  18.492  0.00  0.00    +0.000 A 
ATOM     12  H   UNL     1       8.089   5.449  17.936  0.00  0.00    +0.000 HD
BRANCH   3  15
ATOM     13  C   UNL     1       1.371   2.735  21.564  0.00  0.00    +0.000 C 
ATOM     14  N   UNL     1       2.522   3.270  20.873  0.00  0.00    +0.000 N 
ATOM     15  C   UNL     1       2.365   4.080  19.769  0.00  0.00    +0.000 C 
ATOM     16  O   UNL     1       1.270   4.352  19.287  0.00  0.00    +0.000 OA
ATOM     17  H   UNL     1       3.412   3.309  21.359  0.00  0.00    +0.000 HD
ENDBRANCH   3  15
ENDBRANCH   1  11
BRANCH   1  18
ATOM     18  C   UNL     1       2.265   8.024  18.806  0.00  0.00    +0.000 C 
ATOM     19  C   UNL     1       1.474   8.880  17.802  0.00  0.00    +0.000 C 
ATOM     20  C   UNL     1       0.709  10.036  18.467  0.00  0.00    +0.000 C 
ATOM     21  C   UNL     1      -0.658   9.636  19.075  0.00  0.00    +0.000 C 
ATOM     22  C   UNL     1      -0.399   9.473  20.575  0.00  0.00    +0.000 C 
ATOM     23  C   UNL     1       1.122   9.432  20.635  0.00  0.00    +0.000 C 
ATOM     24  C   UNL     1       1.591   8.002  20.186  0.00  0.00    +0.000 C 
ATOM     25  N   UNL     1       1.514  10.461  19.635  0.00  0.00    +0.000 NA
BRANCH  25  26
ATOM     26  C   UNL     1       1.163  11.864  19.948  0.00  0.00    +0.000 C 
BRANCH  26  27
ATOM     27  C   UNL     1       2.214  12.895  19.637  0.00  0.00    +0.000 A 
ATOM     28  C   UNL     1       2.570  13.185  18.316  0.00  0.00    +0.000 A 
ATOM     29  C   UNL     1       3.500  14.190  18.046  0.00  0.00    +0.000 A 
ATOM     30  C   UNL     1       4.080  14.925  19.087  0.00  0.00    +0.000 A 
ATOM     31  C   UNL     1       3.746  14.623  20.405  0.00  0.00    +0.000 A 
ATOM     32  C   UNL     1       2.819  13.619  20.676  0.00  0.00    +0.000 A 
BRANCH  30  33
ATOM     33  O   UNL     1       4.964  15.891  18.705  0.00  0.00    +0.000 OA
ATOM     34  C   UNL     1       5.809  16.375  19.743  0.00  0.00    +0.000 C 
ENDBRANCH  30  33
ENDBRANCH  26  27
ENDBRANCH  25  26
ENDBRANCH   1  18
TORSDOF 6
ENDMDL
MODEL 4
REMARK VINA RESULT:      -7.5      2.882      4.846
REMARK  Name = 
REMARK  8 active torsions:
REMARK  status: ('A' for Active; 'I' for Inactive)
REMARK    1  A    between atoms: C_1  and  N_2
REMARK    2  A    between atoms: C_3  and  C_5
REMARK    3  A    between atoms: C_13  and  N_14
REMARK    4  A    between atoms: N_14  and  C_15
REMARK    5  A    between atoms: N_22  and  C_23
REMARK    6  A    between atoms: C_23  and  C_24
REMARK    7  A    between atoms: C_27  and  O_28
REMARK    8  A    between atoms: O_28  and  C_29
REMARK                            x       y       z     vdW  Elec       q    Type
REMARK                         _______ _______ _______ _____ _____    ______ ____
ROOT
ATOM      1  N   UNL     1       2.268   6.858  18.051  0.00  0.00    +0.000 N 
ATOM      2  H   UNL     1       1.383   6.568  17.634  0.00  0.00    +0.000 HD
ENDROOT
BRANCH   1  11
ATOM      3  C   UNL     1       4.375   5.612  18.425  0.00  0.00    +0.000 A 
ATOM      4  C   UNL     1       5.067   4.538  18.992  0.00  0.00    +0.000 A 
ATOM      5  N   UNL     1       4.540   3.582  19.776  0.00  0.00    +0.000 NA
ATOM      6  C   UNL     1       3.230   3.769  19.997  0.00  0.00    +0.000 A 
ATOM      7  N   UNL     1       2.496   2.935  20.795  0.00  0.00    +0.000 N 
ATOM      8  C   UNL     1       1.213   3.386  20.885  0.00  0.00    +0.000 A 
ATOM      9  C   UNL     1       1.132   4.537  20.122  0.00  0.00    +0.000 A 
ATOM     10  C   UNL     1       2.397   4.786  19.501  0.00  0.00    +0.000 A 
ATOM     11  C   UNL     1       2.964   5.761  18.622  0.00  0.00    +0.000 A 
ATOM     12  H   UNL     1       2.889   2.125  21.252  0.00  0.00    +0.000 HD
BRANCH   3  15
ATOM     13  C   UNL     1       7.455   7.453  17.211  0.00  0.00    +0.000 C 
ATOM     14  N   UNL     1       6.523   6.699  18.018  0.00  0.00    +0.000 N 
ATOM     15  C   UNL     1       5.227   6.500  17.592  0.00  0.00    +0.000 C 
ATOM     16  O   UNL     1       4.782   6.976  16.553  0.00  0.00    +0.000 OA
ATOM     17  H   UNL     1       6.885   6.071  18.727  0.00  0.00    +0.000 HD
ENDBRANCH   3  15
ENDBRANCH   1  11
BRANCH   1  18
ATOM     18  C   UNL     1       2.132   8.155  18.756  0.00  0.00    +0.000 C 
ATOM     19  C   UNL     1       1.324   9.128  17.879  0.00  0.00    +0.000 C 
ATOM     20  C   UNL     1       0.639  10.241  18.689  0.00  0.00    +0.000 C 
ATOM     21  C   UNL     1      -0.709   9.831  19.330  0.00  0.00    +0.000 C 
ATOM     22  C   UNL     1      -0.381   9.520  20.793  0.00  0.00    +0.000 C 
ATOM     23  C   UNL     1       1.138   9.422  20.767  0.00  0.00    +0.000 C 
ATOM     24  C   UNL     1       1.529   8.026  20.162  0.00  0.00    +0.000 C 
ATOM     25  N   UNL     1       1.518  10.527  19.845  0.00  0.00    +0.000 NA
BRANCH  25  26
ATOM     26  C   UNL     1       1.237  11.905  20.305  0.00  0.00    +0.000 C 
BRANCH  26  27
ATOM     27  C   UNL     1       2.231  12.957  19.890  0.00  0.00    +0.000 A 
ATOM     28  C   UNL     1       2.928  13.705  20.844  0.00  0.00    +0.000 A 
ATOM     29  C   UNL     1       3.892  14.630  20.441  0.00  0.00    +0.000 A 
ATOM     30  C   UNL     1       4.181  14.814  19.082  0.00  0.00    +0.000 A 
ATOM     31  C   UNL     1       3.471  14.089  18.128  0.00  0.00    +0.000 A 
ATOM     32  C   UNL     1       2.507  13.167  18.530  0.00  0.00    +0.000 A 
BRANCH  30  33
ATOM     33  O   UNL     1       5.150  15.733  18.806  0.00  0.00    +0.000 OA
ATOM     34  C   UNL     1       6.321  15.203  18.195  0.00  0.00    +0.000 C 
ENDBRANCH  30  33
ENDBRANCH  26  27
ENDBRANCH  25  26
ENDBRANCH   1  18
TORSDOF 6
ENDMDL
MODEL 5
REMARK VINA RESULT:      -7.5      3.361      6.195
REMARK  Name = 
REMARK  8 active torsions:
REMARK  status: ('A' for Active; 'I' for Inactive)
REMARK    1  A    between atoms: C_1  and  N_2
REMARK    2  A    between atoms: C_3  and  C_5
REMARK    3  A    between atoms: C_13  and  N_14
REMARK    4  A    between atoms: N_14  and  C_15
REMARK    5  A    between atoms: N_22  and  C_23
REMARK    6  A    between atoms: C_23  and  C_24
REMARK    7  A    between atoms: C_27  and  O_28
REMARK    8  A    between atoms: O_28  and  C_29
REMARK                            x       y       z     vdW  Elec       q    Type
REMARK                         _______ _______ _______ _____ _____    ______ ____
ROOT
ATOM      1  N   UNL     1       5.190   3.391  16.489  0.00  0.00    +0.000 N 
ATOM      2  H   UNL     1       5.647   2.577  16.900  0.00  0.00    +0.000 HD
ENDROOT
BRANCH   1  11
ATOM      3  C   UNL     1       7.149   4.719  15.762  0.00  0.00    +0.000 A 
ATOM      4  C   UNL     1       7.926   5.280  14.746  0.00  0.00    +0.000 A 
ATOM      5  N   UNL     1       7.705   5.166  13.425  0.00  0.00    +0.000 NA
ATOM      6  C   UNL     1       6.631   4.410  13.152  0.00  0.00    +0.000 A 
ATOM      7  N   UNL     1       6.237   4.132  11.872  0.00  0.00    +0.000 N 
ATOM      8  C   UNL     1       5.154   3.305  11.886  0.00  0.00    +0.000 A 
ATOM      9  C   UNL     1       4.851   3.055  13.213  0.00  0.00    +0.000 A 
ATOM     10  C   UNL     1       5.751   3.785  14.052  0.00  0.00    +0.000 A 
ATOM     11  C   UNL     1       5.970   3.966  15.454  0.00  0.00    +0.000 A 
ATOM     12  H   UNL     1       6.720   4.487  11.059  0.00  0.00    +0.000 HD
BRANCH   3  15
ATOM     13  C   UNL     1       7.992   6.740  18.854  0.00  0.00    +0.000 C 
ATOM     14  N   UNL     1       7.641   6.357  17.506  0.00  0.00    +0.000 N 
ATOM     15  C   UNL     1       7.639   5.031  17.130  0.00  0.00    +0.000 C 
ATOM     16  O   UNL     1       7.971   4.120  17.883  0.00  0.00    +0.000 OA
ATOM     17  H   UNL     1       7.112   7.006  16.933  0.00  0.00    +0.000 HD
ENDBRANCH   3  15
ENDBRANCH   1  11
BRANCH   1  18
ATOM     18  C   UNL     1       4.530   4.219  17.527  0.00  0.00    +0.000 C 
ATOM     19  C   UNL     1       3.050   4.418  17.154  0.00  0.00    +0.000 C 
ATOM     20  C   UNL     1       2.160   4.733  18.367  0.00  0.00    +0.000 C 
ATOM     21  C   UNL     1       1.704   3.490  19.169  0.00  0.00    +0.000 C 
ATOM     22  C   UNL     1       2.641   3.423  20.378  0.00  0.00    +0.000 C 
ATOM     23  C   UNL     1       3.750   4.386  19.977  0.00  0.00    +0.000 C 
ATOM     24  C   UNL     1       4.684   3.655  18.948  0.00  0.00    +0.000 C 
ATOM     25  N   UNL     1       2.999   5.492  19.323  0.00  0.00    +0.000 NA
BRANCH  25  26
ATOM     26  C   UNL     1       2.101   6.291  20.187  0.00  0.00    +0.000 C 
BRANCH  26  27
ATOM     27  C   UNL     1       1.785   7.682  19.707  0.00  0.00    +0.000 A 
ATOM     28  C   UNL     1       1.138   8.601  20.539  0.00  0.00    +0.000 A 
ATOM     29  C   UNL     1       0.911   9.905  20.097  0.00  0.00    +0.000 A 
ATOM     30  C   UNL     1       1.335  10.313  18.826  0.00  0.00    +0.000 A 
ATOM     31  C   UNL     1       1.959   9.394  17.986  0.00  0.00    +0.000 A 
ATOM     32  C   UNL     1       2.183   8.090  18.425  0.00  0.00    +0.000 A 
BRANCH  30  33
ATOM     33  O   UNL     1       1.074  11.613  18.508  0.00  0.00    +0.000 OA
ATOM     34  C   UNL     1       2.223  12.446  18.397  0.00  0.00    +0.000 C 
ENDBRANCH  30  33
ENDBRANCH  26  27
ENDBRANCH  25  26
ENDBRANCH   1  18
TORSDOF 6
ENDMDL
MODEL 6
REMARK VINA RESULT:      -7.4      3.022      5.401
REMARK  Name = 
REMARK  8 active torsions:
REMARK  status: ('A' for Active; 'I' for Inactive)
REMARK    1  A    between atoms: C_1  and  N_2
REMARK    2  A    between atoms: C_3  and  C_5
REMARK    3  A    between atoms: C_13  and  N_14
REMARK    4  A    between atoms: N_14  and  C_15
REMARK    5  A    between atoms: N_22  and  C_23
REMARK    6  A    between atoms: C_23  and  C_24
REMARK    7  A    between atoms: C_27  and  O_28
REMARK    8  A    between atoms: O_28  and  C_29
REMARK                            x       y       z     vdW  Elec       q    Type
REMARK                         _______ _______ _______ _____ _____    ______ ____
ROOT
ATOM      1  N   UNL     1       2.517   6.970  17.978  0.00  0.00    +0.000 N 
ATOM      2  H   UNL     1       1.660   6.423  17.889  0.00  0.00    +0.000 HD
ENDROOT
BRANCH   1  11
ATOM      3  C   UNL     1       3.437   4.865  18.901  0.00  0.00    +0.000 A 
ATOM      4  C   UNL     1       4.529   4.053  19.219  0.00  0.00    +0.000 A 
ATOM      5  N   UNL     1       5.822   4.340  18.992  0.00  0.00    +0.000 NA
ATOM      6  C   UNL     1       5.981   5.525  18.383  0.00  0.00    +0.000 A 
ATOM      7  N   UNL     1       7.211   6.006  18.026  0.00  0.00    +0.000 N 
ATOM      8  C   UNL     1       7.076   7.199  17.381  0.00  0.00    +0.000 A 
ATOM      9  C   UNL     1       5.723   7.483  17.330  0.00  0.00    +0.000 A 
ATOM     10  C   UNL     1       4.996   6.452  18.005  0.00  0.00    +0.000 A 
ATOM     11  C   UNL     1       3.629   6.154  18.306  0.00  0.00    +0.000 A 
ATOM     12  H   UNL     1       8.070   5.508  18.209  0.00  0.00    +0.000 HD
BRANCH   3  15
ATOM     13  C   UNL     1       0.521   2.448  18.997  0.00  0.00    +0.000 C 
ATOM     14  N   UNL     1       1.724   3.148  18.610  0.00  0.00    +0.000 N 
ATOM     15  C   UNL     1       2.126   4.280  19.286  0.00  0.00    +0.000 C 
ATOM     16  O   UNL     1       1.480   4.779  20.202  0.00  0.00    +0.000 OA
ATOM     17  H   UNL     1       2.424   2.657  18.063  0.00  0.00    +0.000 HD
ENDBRANCH   3  15
ENDBRANCH   1  11
BRANCH   1  18
ATOM     18  C   UNL     1       2.262   8.262  18.658  0.00  0.00    +0.000 C 
ATOM     19  C   UNL     1       1.390   9.150  17.753  0.00  0.00    +0.000 C 
ATOM     20  C   UNL     1       0.602  10.215  18.533  0.00  0.00    +0.000 C 
ATOM     21  C   UNL     1      -0.717   9.704  19.161  0.00  0.00    +0.000 C 
ATOM     22  C   UNL     1      -0.388   9.445  20.634  0.00  0.00    +0.000 C 
ATOM     23  C   UNL     1       1.134   9.474  20.632  0.00  0.00    +0.000 C 
ATOM     24  C   UNL     1       1.649   8.105  20.057  0.00  0.00    +0.000 C 
ATOM     25  N   UNL     1       1.435  10.591  19.697  0.00  0.00    +0.000 NA
BRANCH  25  26
ATOM     26  C   UNL     1       1.034  11.949  20.129  0.00  0.00    +0.000 C 
BRANCH  26  27
ATOM     27  C   UNL     1       1.644  13.095  19.366  0.00  0.00    +0.000 A 
ATOM     28  C   UNL     1       1.071  14.369  19.401  0.00  0.00    +0.000 A 
ATOM     29  C   UNL     1       1.688  15.432  18.739  0.00  0.00    +0.000 A 
ATOM     30  C   UNL     1       2.888  15.240  18.043  0.00  0.00    +0.000 A 
ATOM     31  C   UNL     1       3.449  13.967  17.986  0.00  0.00    +0.000 A 
ATOM     32  C   UNL     1       2.832  12.904  18.644  0.00  0.00    +0.000 A 
BRANCH  30  33
ATOM     33  O   UNL     1       3.407  16.353  17.448  0.00  0.00    +0.000 OA
ATOM     34  C   UNL     1       2.443  17.316  17.035  0.00  0.00    +0.000 C 
ENDBRANCH  30  33
ENDBRANCH  26  27
ENDBRANCH  25  26
ENDBRANCH   1  18
TORSDOF 6
ENDMDL
MODEL 7
REMARK VINA RESULT:      -7.4      3.277      6.122
REMARK  Name = 
REMARK  8 active torsions:
REMARK  status: ('A' for Active; 'I' for Inactive)
REMARK    1  A    between atoms: C_1  and  N_2
REMARK    2  A    between atoms: C_3  and  C_5
REMARK    3  A    between atoms: C_13  and  N_14
REMARK    4  A    between atoms: N_14  and  C_15
REMARK    5  A    between atoms: N_22  and  C_23
REMARK    6  A    between atoms: C_23  and  C_24
REMARK    7  A    between atoms: C_27  and  O_28
REMARK    8  A    between atoms: O_28  and  C_29
REMARK                            x       y       z     vdW  Elec       q    Type
REMARK                         _______ _______ _______ _____ _____    ______ ____
ROOT
ATOM      1  N   UNL     1       5.126   3.505  16.590  0.00  0.00    +0.000 N 
ATOM      2  H   UNL     1       5.539   2.638  16.936  0.00  0.00    +0.000 HD
ENDROOT
BRANCH   1  11
ATOM      3  C   UNL     1       6.916   5.136  16.073  0.00  0.00    +0.000 A 
ATOM      4  C   UNL     1       7.755   5.767  15.151  0.00  0.00    +0.000 A 
ATOM      5  N   UNL     1       7.807   5.522  13.830  0.00  0.00    +0.000 NA
ATOM      6  C   UNL     1       6.954   4.555  13.458  0.00  0.00    +0.000 A 
ATOM      7  N   UNL     1       6.860   4.119  12.165  0.00  0.00    +0.000 N 
ATOM      8  C   UNL     1       5.958   3.101  12.080  0.00  0.00    +0.000 A 
ATOM      9  C   UNL     1       5.466   2.887  13.355  0.00  0.00    +0.000 A 
ATOM     10  C   UNL     1       6.049   3.834  14.255  0.00  0.00    +0.000 A 
ATOM     11  C   UNL     1       5.969   4.149  15.649  0.00  0.00    +0.000 A 
ATOM     12  H   UNL     1       7.413   4.504  11.413  0.00  0.00    +0.000 HD
BRANCH   3  15
ATOM     13  C   UNL     1       8.116   5.291  19.664  0.00  0.00    +0.000 C 
ATOM     14  N   UNL     1       7.809   4.837  18.327  0.00  0.00    +0.000 N 
ATOM     15  C   UNL     1       7.081   5.629  17.465  0.00  0.00    +0.000 C 
ATOM     16  O   UNL     1       6.621   6.721  17.785  0.00  0.00    +0.000 OA
ATOM     17  H   UNL     1       8.368   4.094  17.920  0.00  0.00    +0.000 HD
ENDBRANCH   3  15
ENDBRANCH   1  11
BRANCH   1  18
ATOM     18  C   UNL     1       4.451   4.251  17.679  0.00  0.00    +0.000 C 
ATOM     19  C   UNL     1       3.015   4.595  17.244  0.00  0.00    +0.000 C 
ATOM     20  C   UNL     1       2.067   4.829  18.431  0.00  0.00    +0.000 C 
ATOM     21  C   UNL     1       1.481   3.536  19.050  0.00  0.00    +0.000 C 
ATOM     22  C   UNL     1       2.328   3.266  20.296  0.00  0.00    +0.000 C 
ATOM     23  C   UNL     1       3.519   4.190  20.080  0.00  0.00    +0.000 C 
ATOM     24  C   UNL     1       4.474   3.518  19.028  0.00  0.00    +0.000 C 
ATOM     25  N   UNL     1       2.884   5.412  19.519  0.00  0.00    +0.000 NA
BRANCH  25  26
ATOM     26  C   UNL     1       1.982   6.167  20.417  0.00  0.00    +0.000 C 
BRANCH  26  27
ATOM     27  C   UNL     1       1.701   7.594  20.028  0.00  0.00    +0.000 A 
ATOM     28  C   UNL     1       2.072   8.084  18.772  0.00  0.00    +0.000 A 
ATOM     29  C   UNL     1       1.746   9.391  18.407  0.00  0.00    +0.000 A 
ATOM     30  C   UNL     1       1.036  10.222  19.283  0.00  0.00    +0.000 A 
ATOM     31  C   UNL     1       0.685   9.745  20.544  0.00  0.00    +0.000 A 
ATOM     32  C   UNL     1       1.013   8.441  20.911  0.00  0.00    +0.000 A 
BRANCH  30  33
ATOM     33  O   UNL     1       0.760  11.472  18.814  0.00  0.00    +0.000 OA
ATOM     34  C   UNL     1       1.847  12.389  18.876  0.00  0.00    +0.000 C 
ENDBRANCH  30  33
ENDBRANCH  26  27
ENDBRANCH  25  26
ENDBRANCH   1  18
TORSDOF 6
ENDMDL
MODEL 8
REMARK VINA RESULT:      -7.3      2.930      4.225
REMARK  Name = 
REMARK  8 active torsions:
REMARK  status: ('A' for Active; 'I' for Inactive)
REMARK    1  A    between atoms: C_1  and  N_2
REMARK    2  A    between atoms: C_3  and  C_5
REMARK    3  A    between atoms: C_13  and  N_14
REMARK    4  A    between atoms: N_14  and  C_15
REMARK    5  A    between atoms: N_22  and  C_23
REMARK    6  A    between atoms: C_23  and  C_24
REMARK    7  A    between atoms: C_27  and  O_28
REMARK    8  A    between atoms: O_28  and  C_29
REMARK                            x       y       z     vdW  Elec       q    Type
REMARK                         _______ _______ _______ _____ _____    ______ ____
ROOT
ATOM      1  N   UNL     1       2.280   6.916  18.115  0.00  0.00    +0.000 N 
ATOM      2  H   UNL     1       1.406   6.650  17.661  0.00  0.00    +0.000 HD
ENDROOT
BRANCH   1  11
ATOM      3  C   UNL     1       4.370   5.624  18.416  0.00  0.00    +0.000 A 
ATOM      4  C   UNL     1       5.051   4.519  18.935  0.00  0.00    +0.000 A 
ATOM      5  N   UNL     1       4.518   3.545  19.693  0.00  0.00    +0.000 NA
ATOM      6  C   UNL     1       3.215   3.745  19.938  0.00  0.00    +0.000 A 
ATOM      7  N   UNL     1       2.476   2.895  20.715  0.00  0.00    +0.000 N 
ATOM      8  C   UNL     1       1.203   3.364  20.839  0.00  0.00    +0.000 A 
ATOM      9  C   UNL     1       1.132   4.543  20.118  0.00  0.00    +0.000 A 
ATOM     10  C   UNL     1       2.392   4.792  19.489  0.00  0.00    +0.000 A 
ATOM     11  C   UNL     1       2.964   5.789  18.637  0.00  0.00    +0.000 A 
ATOM     12  H   UNL     1       2.861   2.064  21.138  0.00  0.00    +0.000 HD
BRANCH   3  15
ATOM     13  C   UNL     1       7.463   7.463  17.232  0.00  0.00    +0.000 C 
ATOM     14  N   UNL     1       6.529   6.696  18.023  0.00  0.00    +0.000 N 
ATOM     15  C   UNL     1       5.227   6.526  17.604  0.00  0.00    +0.000 C 
ATOM     16  O   UNL     1       4.778   7.041  16.584  0.00  0.00    +0.000 OA
ATOM     17  H   UNL     1       6.888   6.040  18.709  0.00  0.00    +0.000 HD
ENDBRANCH   3  15
ENDBRANCH   1  11
BRANCH   1  18
ATOM     18  C   UNL     1       2.124   8.170  18.890  0.00  0.00    +0.000 C 
ATOM     19  C   UNL     1       1.233   9.147  18.104  0.00  0.00    +0.000 C 
ATOM     20  C   UNL     1       0.542  10.187  19.001  0.00  0.00    +0.000 C 
ATOM     21  C   UNL     1      -0.753   9.686  19.684  0.00  0.00    +0.000 C 
ATOM     22  C   UNL     1      -0.340   9.319  21.112  0.00  0.00    +0.000 C 
ATOM     23  C   UNL     1       1.179   9.291  21.008  0.00  0.00    +0.000 C 
ATOM     24  C   UNL     1       1.598   7.945  20.316  0.00  0.00    +0.000 C 
ATOM     25  N   UNL     1       1.465  10.456  20.127  0.00  0.00    +0.000 NA
BRANCH  25  26
ATOM     26  C   UNL     1       1.149  11.796  20.670  0.00  0.00    +0.000 C 
BRANCH  26  27
ATOM     27  C   UNL     1       1.541  12.968  19.809  0.00  0.00    +0.000 A 
ATOM     28  C   UNL     1       0.827  14.169  19.861  0.00  0.00    +0.000 A 
ATOM     29  C   UNL     1       1.245  15.264  19.103  0.00  0.00    +0.000 A 
ATOM     30  C   UNL     1       2.385  15.180  18.293  0.00  0.00    +0.000 A 
ATOM     31  C   UNL     1       3.084  13.977  18.221  0.00  0.00    +0.000 A 
ATOM     32  C   UNL     1       2.666  12.882  18.975  0.00  0.00    +0.000 A 
BRANCH  30  33
ATOM     33  O   UNL     1       2.707  16.316  17.610  0.00  0.00    +0.000 OA
ATOM     34  C   UNL     1       1.820  17.410  17.816  0.00  0.00    +0.000 C 
ENDBRANCH  30  33
ENDBRANCH  26  27
ENDBRANCH  25  26
ENDBRANCH   1  18
TORSDOF 6
ENDMDL
MODEL 9
REMARK VINA RESULT:      -7.3      3.147      8.775
REMARK  Name = 
REMARK  8 active torsions:
REMARK  status: ('A' for Active; 'I' for Inactive)
REMARK    1  A    between atoms: C_1  and  N_2
REMARK    2  A    between atoms: C_3  and  C_5
REMARK    3  A    between atoms: C_13  and  N_14
REMARK    4  A    between atoms: N_14  and  C_15
REMARK    5  A    between atoms: N_22  and  C_23
REMARK    6  A    between atoms: C_23  and  C_24
REMARK    7  A    between atoms: C_27  and  O_28
REMARK    8  A    between atoms: O_28  and  C_29
REMARK                            x       y       z     vdW  Elec       q    Type
REMARK                         _______ _______ _______ _____ _____    ______ ____
ROOT
ATOM      1  N   UNL     1      -1.264  11.963  19.183  0.00  0.00    +0.000 N 
ATOM      2  H   UNL     1      -1.087  12.701  19.866  0.00  0.00    +0.000 HD
ENDROOT
BRANCH   1  11
ATOM      3  C   UNL     1      -3.647  12.434  19.659  0.00  0.00    +0.000 A 
ATOM      4  C   UNL     1      -4.991  12.406  19.275  0.00  0.00    +0.000 A 
ATOM      5  N   UNL     1      -5.471  11.958  18.103  0.00  0.00    +0.000 NA
ATOM      6  C   UNL     1      -4.497  11.538  17.281  0.00  0.00    +0.000 A 
ATOM      7  N   UNL     1      -4.752  11.070  16.021  0.00  0.00    +0.000 N 
ATOM      8  C   UNL     1      -3.583  10.763  15.392  0.00  0.00    +0.000 A 
ATOM      9  C   UNL     1      -2.559  11.041  16.279  0.00  0.00    +0.000 A 
ATOM     10  C   UNL     1      -3.113  11.496  17.517  0.00  0.00    +0.000 A 
ATOM     11  C   UNL     1      -2.627  11.924  18.793  0.00  0.00    +0.000 A 
ATOM     12  H   UNL     1      -5.684  11.000  15.639  0.00  0.00    +0.000 HD
BRANCH   3  15
ATOM     13  C   UNL     1      -3.999  12.858  23.407  0.00  0.00    +0.000 C 
ATOM     14  N   UNL     1      -4.221  12.472  22.033  0.00  0.00    +0.000 N 
ATOM     15  C   UNL     1      -3.427  12.976  21.024  0.00  0.00    +0.000 C 
ATOM     16  O   UNL     1      -2.537  13.797  21.220  0.00  0.00    +0.000 OA
ATOM     17  H   UNL     1      -4.740  11.622  21.838  0.00  0.00    +0.000 HD
ENDBRANCH   3  15
ENDBRANCH   1  11
BRANCH   1  18
ATOM     18  C   UNL     1      -0.505  10.733  19.512  0.00  0.00    +0.000 C 
ATOM     19  C   UNL     1       0.790  11.116  20.251  0.00  0.00    +0.000 C 
ATOM     20  C   UNL     1       1.344   9.978  21.124  0.00  0.00    +0.000 C 
ATOM     21  C   UNL     1       0.682   9.859  22.518  0.00  0.00    +0.000 C 
ATOM     22  C   UNL     1      -0.335   8.722  22.386  0.00  0.00    +0.000 C 
ATOM     23  C   UNL     1      -0.426   8.548  20.876  0.00  0.00    +0.000 C 
ATOM     24  C   UNL     1      -1.325   9.703  20.304  0.00  0.00    +0.000 C 
ATOM     25  N   UNL     1       0.989   8.711  20.445  0.00  0.00    +0.000 NA
BRANCH  25  26
ATOM     26  C   UNL     1       1.944   7.671  20.887  0.00  0.00    +0.000 C 
BRANCH  26  27
ATOM     27  C   UNL     1       1.947   6.393  20.091  0.00  0.00    +0.000 A 
ATOM     28  C   UNL     1       1.449   5.205  20.635  0.00  0.00    +0.000 A 
ATOM     29  C   UNL     1       1.401   4.046  19.859  0.00  0.00    +0.000 A 
ATOM     30  C   UNL     1       1.839   4.058  18.528  0.00  0.00    +0.000 A 
ATOM     31  C   UNL     1       2.357   5.234  17.991  0.00  0.00    +0.000 A 
ATOM     32  C   UNL     1       2.408   6.391  18.766  0.00  0.00    +0.000 A 
BRANCH  30  33
ATOM     33  O   UNL     1       1.731   2.873  17.862  0.00  0.00    +0.000 OA
ATOM     34  C   UNL     1       2.917   2.085  17.848  0.00  0.00    +0.000 C 
ENDBRANCH  30  33
ENDBRANCH  26  27
ENDBRANCH  25  26
ENDBRANCH   1  18
TORSDOF 6
ENDMDL
