MODEL 1
REMARK VINA RESULT:      -8.2      0.000      0.000
REMARK  Name = 
REMARK  4 active torsions:
REMARK  status: ('A' for Active; 'I' for Inactive)
REMARK    1  A    between atoms: C_2  and  C_5
REMARK    2  A    between atoms: N_3  and  O_4
REMARK    3  A    between atoms: N_15  and  C_16
REMARK    4  A    between atoms: C_16  and  C_17
REMARK                            x       y       z     vdW  Elec       q    Type
REMARK                         _______ _______ _______ _____ _____    ______ ____
ROOT
ATOM      1  C   UNL     1       2.868   3.993  18.942  0.00  0.00    +0.000 A 
ATOM      2  C   UNL     1       3.658   5.083  18.570  0.00  0.00    +0.000 A 
ATOM      3  N   UNL     1       3.312   6.331  18.950  0.00  0.00    +0.000 NA
ATOM      4  C   UNL     1       2.239   6.565  19.751  0.00  0.00    +0.000 A 
ATOM      5  N   UNL     1       1.880   7.910  20.043  0.00  0.00    +0.000 N 
ATOM      6  C   UNL     1       2.153   8.936  19.055  0.00  0.00    +0.000 C 
ATOM      7  C   UNL     1       0.822   9.589  18.661  0.00  0.00    +0.000 C 
ATOM      8  C   UNL     1       0.102  10.194  19.907  0.00  0.00    +0.000 C 
ATOM      9  C   UNL     1      -1.225  10.872  19.492  0.00  0.00    +0.000 C 
ATOM     10  C   UNL     1      -1.114  12.303  20.022  0.00  0.00    +0.000 C 
ATOM     11  N   UNL     1       0.318  12.634  20.029  0.00  0.00    +0.000 NA
ATOM     12  C   UNL     1       0.900  11.378  20.532  0.00  0.00    +0.000 C 
ATOM     13  C   UNL     1      -0.132   9.024  20.910  0.00  0.00    +0.000 C 
ATOM     14  C   UNL     1       1.182   8.305  21.261  0.00  0.00    +0.000 C 
ATOM     15  N   UNL     1       1.488   5.518  20.187  0.00  0.00    +0.000 NA
ATOM     16  C   UNL     1       1.765   4.247  19.782  0.00  0.00    +0.000 A 
ENDROOT
BRANCH   1  18
ATOM     17  O   UNL     1       2.585   2.204  17.455  0.00  0.00    +0.000 OA
ATOM     18  C   UNL     1       3.212   2.645  18.408  0.00  0.00    +0.000 C 
ATOM     19  N   UNL     1       4.162   1.868  18.990  0.00  0.00    +0.000 N 
ATOM     20  H   UNL     1       4.661   2.181  19.833  0.00  0.00    +0.000 HD
BRANCH  19  21
ATOM     21  O   UNL     1       4.394   0.629  18.532  0.00  0.00    +0.000 OA
ATOM     22  H   UNL     1       3.522   0.317  18.180  0.00  0.00    +0.000 HD
ENDBRANCH  19  21
ENDBRANCH   1  18
BRANCH  11  23
ATOM     23  C   UNL     1       0.802  13.058  18.695  0.00  0.00    +0.000 C 
BRANCH  23  24
ATOM     24  C   UNL     1       1.957  14.034  18.777  0.00  0.00    +0.000 A 
ATOM     25  C   UNL     1       1.750  15.329  19.273  0.00  0.00    +0.000 A 
ATOM     26  N   UNL     1       2.768  16.228  19.301  0.00  0.00    +0.000 NA
ATOM     27  C   UNL     1       4.019  15.919  18.868  0.00  0.00    +0.000 A 
ATOM     28  C   UNL     1       5.034  16.879  18.893  0.00  0.00    +0.000 A 
ATOM     29  C   UNL     1       6.318  16.557  18.443  0.00  0.00    +0.000 A 
ATOM     30  C   UNL     1       6.593  15.273  17.967  0.00  0.00    +0.000 A 
ATOM     31  C   UNL     1       5.581  14.302  17.935  0.00  0.00    +0.000 A 
ATOM     32  C   UNL     1       4.288  14.620  18.377  0.00  0.00    +0.000 A 
ATOM     33  C   UNL     1       3.242  13.681  18.334  0.00  0.00    +0.000 A 
ENDBRANCH  23  24
ENDBRANCH  11  23
TORSDOF 4
ENDMDL
MODEL 2
REMARK VINA RESULT:      -8.2      3.363      6.658
REMARK  Name = 
REMARK  4 active torsions:
REMARK  status: ('A' for Active; 'I' for Inactive)
REMARK    1  A    between atoms: C_2  and  C_5
REMARK    2  A    between atoms: N_3  and  O_4
REMARK    3  A    between atoms: N_15  and  C_16
REMARK    4  A    between atoms: C_16  and  C_17
REMARK                            x       y       z     vdW  Elec       q    Type
REMARK                         _______ _______ _______ _____ _____    ______ ____
ROOT
ATOM      1  C   UNL     1       3.857   5.200  19.241  0.00  0.00    +0.000 A 
ATOM      2  C   UNL     1       2.694   5.212  20.014  0.00  0.00    +0.000 A 
ATOM      3  N   UNL     1       1.892   6.297  20.013  0.00  0.00    +0.000 NA
ATOM      4  C   UNL     1       2.144   7.375  19.225  0.00  0.00    +0.000 A 
ATOM      5  N   UNL     1       1.307   8.520  19.337  0.00  0.00    +0.000 N 
ATOM      6  C   UNL     1       0.700   8.817  20.620  0.00  0.00    +0.000 C 
ATOM      7  C   UNL     1       1.176  10.206  21.065  0.00  0.00    +0.000 C 
ATOM      8  C   UNL     1       0.804  11.294  20.009  0.00  0.00    +0.000 C 
ATOM      9  C   UNL     1       1.266  12.692  20.483  0.00  0.00    +0.000 C 
ATOM     10  C   UNL     1       0.003  13.554  20.444  0.00  0.00    +0.000 C 
ATOM     11  N   UNL     1      -1.128  12.645  20.684  0.00  0.00    +0.000 NA
ATOM     12  C   UNL     1      -0.737  11.481  19.871  0.00  0.00    +0.000 C 
ATOM     13  C   UNL     1       1.487  10.878  18.670  0.00  0.00    +0.000 C 
ATOM     14  C   UNL     1       1.083   9.458  18.243  0.00  0.00    +0.000 C 
ATOM     15  N   UNL     1       3.233   7.368  18.409  0.00  0.00    +0.000 NA
ATOM     16  C   UNL     1       4.102   6.319  18.419  0.00  0.00    +0.000 A 
ENDROOT
BRANCH   1  18
ATOM     17  O   UNL     1       5.931   4.147  18.957  0.00  0.00    +0.000 OA
ATOM     18  C   UNL     1       4.780   4.036  19.354  0.00  0.00    +0.000 C 
ATOM     19  N   UNL     1       4.360   2.836  19.832  0.00  0.00    +0.000 N 
ATOM     20  H   UNL     1       3.381   2.689  20.112  0.00  0.00    +0.000 HD
BRANCH  19  21
ATOM     21  O   UNL     1       5.195   1.786  19.850  0.00  0.00    +0.000 OA
ATOM     22  H   UNL     1       5.235   1.473  18.910  0.00  0.00    +0.000 HD
ENDBRANCH  19  21
ENDBRANCH   1  18
BRANCH  11  23
ATOM     23  C   UNL     1      -1.326  12.364  22.125  0.00  0.00    +0.000 C 
BRANCH  23  24
ATOM     24  C   UNL     1      -2.770  12.514  22.555  0.00  0.00    +0.000 A 
ATOM     25  C   UNL     1      -3.148  12.209  23.870  0.00  0.00    +0.000 A 
ATOM     26  N   UNL     1      -4.449  12.289  24.250  0.00  0.00    +0.000 NA
ATOM     27  C   UNL     1      -5.432  12.673  23.392  0.00  0.00    +0.000 A 
ATOM     28  C   UNL     1      -6.763  12.722  23.816  0.00  0.00    +0.000 A 
ATOM     29  C   UNL     1      -7.769  13.113  22.929  0.00  0.00    +0.000 A 
ATOM     30  C   UNL     1      -7.450  13.460  21.614  0.00  0.00    +0.000 A 
ATOM     31  C   UNL     1      -6.118  13.412  21.176  0.00  0.00    +0.000 A 
ATOM     32  C   UNL     1      -5.103  13.012  22.059  0.00  0.00    +0.000 A 
ATOM     33  C   UNL     1      -3.761  12.925  21.649  0.00  0.00    +0.000 A 
ENDBRANCH  23  24
ENDBRANCH  11  23
TORSDOF 4
ENDMDL
MODEL 3
REMARK VINA RESULT:      -8.1      3.607      6.847
REMARK  Name = 
REMARK  4 active torsions:
REMARK  status: ('A' for Active; 'I' for Inactive)
REMARK    1  A    between atoms: C_2  and  C_5
REMARK    2  A    between atoms: N_3  and  O_4
REMARK    3  A    between atoms: N_15  and  C_16
REMARK    4  A    between atoms: C_16  and  C_17
REMARK                            x       y       z     vdW  Elec       q    Type
REMARK                         _______ _______ _______ _____ _____    ______ ____
ROOT
ATOM      1  C   UNL     1       4.416   5.746  18.597  0.00  0.00    +0.000 A 
ATOM      2  C   UNL     1       3.312   5.588  19.437  0.00  0.00    +0.000 A 
ATOM      3  N   UNL     1       2.366   6.548  19.500  0.00  0.00    +0.000 NA
ATOM      4  C   UNL     1       2.415   7.656  18.714  0.00  0.00    +0.000 A 
ATOM      5  N   UNL     1       1.432   8.669  18.892  0.00  0.00    +0.000 N 
ATOM      6  C   UNL     1       0.868   8.869  20.213  0.00  0.00    +0.000 C 
ATOM      7  C   UNL     1       1.168  10.310  20.649  0.00  0.00    +0.000 C 
ATOM      8  C   UNL     1       0.583  11.339  19.632  0.00  0.00    +0.000 C 
ATOM      9  C   UNL     1       0.870  12.786  20.097  0.00  0.00    +0.000 C 
ATOM     10  C   UNL     1      -0.502  13.460  20.146  0.00  0.00    +0.000 C 
ATOM     11  N   UNL     1      -1.477  12.398  20.440  0.00  0.00    +0.000 NA
ATOM     12  C   UNL     1      -0.974  11.306  19.589  0.00  0.00    +0.000 C 
ATOM     13  C   UNL     1       1.235  11.033  18.249  0.00  0.00    +0.000 C 
ATOM     14  C   UNL     1       1.011   9.572  17.826  0.00  0.00    +0.000 C 
ATOM     15  N   UNL     1       3.441   7.809  17.834  0.00  0.00    +0.000 NA
ATOM     16  C   UNL     1       4.449   6.893  17.777  0.00  0.00    +0.000 A 
ENDROOT
BRANCH   1  18
ATOM     17  O   UNL     1       5.362   3.738  19.347  0.00  0.00    +0.000 OA
ATOM     18  C   UNL     1       5.500   4.725  18.638  0.00  0.00    +0.000 C 
ATOM     19  N   UNL     1       6.662   4.890  17.956  0.00  0.00    +0.000 N 
ATOM     20  H   UNL     1       6.838   5.740  17.404  0.00  0.00    +0.000 HD
BRANCH  19  21
ATOM     21  O   UNL     1       7.649   3.989  18.074  0.00  0.00    +0.000 OA
ATOM     22  H   UNL     1       7.370   3.398  18.820  0.00  0.00    +0.000 HD
ENDBRANCH  19  21
ENDBRANCH   1  18
BRANCH  11  23
ATOM     23  C   UNL     1      -1.544  12.084  21.886  0.00  0.00    +0.000 C 
BRANCH  23  24
ATOM     24  C   UNL     1      -2.913  12.349  22.476  0.00  0.00    +0.000 A 
ATOM     25  C   UNL     1      -3.138  12.157  23.846  0.00  0.00    +0.000 A 
ATOM     26  N   UNL     1      -4.375  12.341  24.375  0.00  0.00    +0.000 NA
ATOM     27  C   UNL     1      -5.437  12.725  23.617  0.00  0.00    +0.000 A 
ATOM     28  C   UNL     1      -6.700  12.882  24.195  0.00  0.00    +0.000 A 
ATOM     29  C   UNL     1      -7.789  13.272  23.410  0.00  0.00    +0.000 A 
ATOM     30  C   UNL     1      -7.620  13.510  22.043  0.00  0.00    +0.000 A 
ATOM     31  C   UNL     1      -6.357  13.352  21.452  0.00  0.00    +0.000 A 
ATOM     32  C   UNL     1      -5.262  12.951  22.232  0.00  0.00    +0.000 A 
ATOM     33  C   UNL     1      -3.988  12.756  21.669  0.00  0.00    +0.000 A 
ENDBRANCH  23  24
ENDBRANCH  11  23
TORSDOF 4
ENDMDL
MODEL 4
REMARK VINA RESULT:      -8.0      0.798      1.438
REMARK  Name = 
REMARK  4 active torsions:
REMARK  status: ('A' for Active; 'I' for Inactive)
REMARK    1  A    between atoms: C_2  and  C_5
REMARK    2  A    between atoms: N_3  and  O_4
REMARK    3  A    between atoms: N_15  and  C_16
REMARK    4  A    between atoms: C_16  and  C_17
REMARK                            x       y       z     vdW  Elec       q    Type
REMARK                         _______ _______ _______ _____ _____    ______ ____
ROOT
ATOM      1  C   UNL     1       2.806   3.955  19.073  0.00  0.00    +0.000 A 
ATOM      2  C   UNL     1       3.565   5.048  18.652  0.00  0.00    +0.000 A 
ATOM      3  N   UNL     1       3.229   6.296  19.041  0.00  0.00    +0.000 NA
ATOM      4  C   UNL     1       2.200   6.527  19.897  0.00  0.00    +0.000 A 
ATOM      5  N   UNL     1       1.845   7.871  20.200  0.00  0.00    +0.000 N 
ATOM      6  C   UNL     1       2.056   8.892  19.191  0.00  0.00    +0.000 C 
ATOM      7  C   UNL     1       0.699   9.531  18.866  0.00  0.00    +0.000 C 
ATOM      8  C   UNL     1       0.043  10.140  20.145  0.00  0.00    +0.000 C 
ATOM      9  C   UNL     1      -1.310  10.804  19.798  0.00  0.00    +0.000 C 
ATOM     10  C   UNL     1      -1.183  12.239  20.311  0.00  0.00    +0.000 C 
ATOM     11  N   UNL     1       0.245  12.583  20.238  0.00  0.00    +0.000 NA
ATOM     12  C   UNL     1       0.864  11.335  20.717  0.00  0.00    +0.000 C 
ATOM     13  C   UNL     1      -0.125   8.975  21.168  0.00  0.00    +0.000 C 
ATOM     14  C   UNL     1       1.211   8.270  21.451  0.00  0.00    +0.000 C 
ATOM     15  N   UNL     1       1.482   5.478  20.382  0.00  0.00    +0.000 NA
ATOM     16  C   UNL     1       1.748   4.206  19.971  0.00  0.00    +0.000 A 
ENDROOT
BRANCH   1  18
ATOM     17  O   UNL     1       2.412   2.120  17.670  0.00  0.00    +0.000 OA
ATOM     18  C   UNL     1       3.131   2.606  18.532  0.00  0.00    +0.000 C 
ATOM     19  N   UNL     1       4.170   1.875  19.012  0.00  0.00    +0.000 N 
ATOM     20  H   UNL     1       4.754   2.225  19.783  0.00  0.00    +0.000 HD
BRANCH  19  21
ATOM     21  O   UNL     1       4.390   0.632  18.556  0.00  0.00    +0.000 OA
ATOM     22  H   UNL     1       4.426   0.723  17.570  0.00  0.00    +0.000 HD
ENDBRANCH  19  21
ENDBRANCH   1  18
BRANCH  11  23
ATOM     23  C   UNL     1       0.651  13.000  18.876  0.00  0.00    +0.000 C 
BRANCH  23  24
ATOM     24  C   UNL     1       1.884  13.879  18.880  0.00  0.00    +0.000 A 
ATOM     25  C   UNL     1       3.014  13.509  18.136  0.00  0.00    +0.000 A 
ATOM     26  N   UNL     1       4.143  14.263  18.176  0.00  0.00    +0.000 NA
ATOM     27  C   UNL     1       4.229  15.401  18.916  0.00  0.00    +0.000 A 
ATOM     28  C   UNL     1       5.416  16.138  18.948  0.00  0.00    +0.000 A 
ATOM     29  C   UNL     1       5.499  17.304  19.714  0.00  0.00    +0.000 A 
ATOM     30  C   UNL     1       4.395  17.741  20.450  0.00  0.00    +0.000 A 
ATOM     31  C   UNL     1       3.200  17.007  20.428  0.00  0.00    +0.000 A 
ATOM     32  C   UNL     1       3.111  15.831  19.669  0.00  0.00    +0.000 A 
ATOM     33  C   UNL     1       1.938  15.055  19.645  0.00  0.00    +0.000 A 
ENDBRANCH  23  24
ENDBRANCH  11  23
TORSDOF 4
ENDMDL
MODEL 5
REMARK VINA RESULT:      -7.9      3.078      6.386
REMARK  Name = 
REMARK  4 active torsions:
REMARK  status: ('A' for Active; 'I' for Inactive)
REMARK    1  A    between atoms: C_2  and  C_5
REMARK    2  A    between atoms: N_3  and  O_4
REMARK    3  A    between atoms: N_15  and  C_16
REMARK    4  A    between atoms: C_16  and  C_17
REMARK                            x       y       z     vdW  Elec       q    Type
REMARK                         _______ _______ _______ _____ _____    ______ ____
ROOT
ATOM      1  C   UNL     1       4.011   5.153  19.130  0.00  0.00    +0.000 A 
ATOM      2  C   UNL     1       2.812   5.290  19.833  0.00  0.00    +0.000 A 
ATOM      3  N   UNL     1       2.075   6.413  19.702  0.00  0.00    +0.000 NA
ATOM      4  C   UNL     1       2.429   7.408  18.847  0.00  0.00    +0.000 A 
ATOM      5  N   UNL     1       1.655   8.601  18.821  0.00  0.00    +0.000 N 
ATOM      6  C   UNL     1       0.999   9.033  20.040  0.00  0.00    +0.000 C 
ATOM      7  C   UNL     1       1.531  10.427  20.401  0.00  0.00    +0.000 C 
ATOM      8  C   UNL     1       1.278  11.443  19.243  0.00  0.00    +0.000 C 
ATOM      9  C   UNL     1       1.794  12.849  19.630  0.00  0.00    +0.000 C 
ATOM     10  C   UNL     1       0.586  13.770  19.453  0.00  0.00    +0.000 C 
ATOM     11  N   UNL     1      -0.606  12.945  19.700  0.00  0.00    +0.000 NA
ATOM     12  C   UNL     1      -0.241  11.700  19.005  0.00  0.00    +0.000 C 
ATOM     13  C   UNL     1       2.004  10.883  17.982  0.00  0.00    +0.000 C 
ATOM     14  C   UNL     1       1.541   9.456  17.646  0.00  0.00    +0.000 C 
ATOM     15  N   UNL     1       3.556   7.276  18.096  0.00  0.00    +0.000 NA
ATOM     16  C   UNL     1       4.362   6.186  18.237  0.00  0.00    +0.000 A 
ENDROOT
BRANCH   1  18
ATOM     17  O   UNL     1       6.049   3.998  19.112  0.00  0.00    +0.000 OA
ATOM     18  C   UNL     1       4.858   3.955  19.386  0.00  0.00    +0.000 C 
ATOM     19  N   UNL     1       4.331   2.796  19.859  0.00  0.00    +0.000 N 
ATOM     20  H   UNL     1       3.322   2.705  20.037  0.00  0.00    +0.000 HD
BRANCH  19  21
ATOM     21  O   UNL     1       5.107   1.712  20.007  0.00  0.00    +0.000 OA
ATOM     22  H   UNL     1       5.990   1.976  19.644  0.00  0.00    +0.000 HD
ENDBRANCH  19  21
ENDBRANCH   1  18
BRANCH  11  23
ATOM     23  C   UNL     1      -0.894  12.794  21.145  0.00  0.00    +0.000 C 
BRANCH  23  24
ATOM     24  C   UNL     1      -2.378  12.759  21.443  0.00  0.00    +0.000 A 
ATOM     25  C   UNL     1      -3.307  12.871  20.399  0.00  0.00    +0.000 A 
ATOM     26  N   UNL     1      -4.640  12.893  20.662  0.00  0.00    +0.000 NA
ATOM     27  C   UNL     1      -5.131  12.798  21.927  0.00  0.00    +0.000 A 
ATOM     28  C   UNL     1      -6.509  12.847  22.157  0.00  0.00    +0.000 A 
ATOM     29  C   UNL     1      -7.007  12.752  23.459  0.00  0.00    +0.000 A 
ATOM     30  C   UNL     1      -6.131  12.607  24.538  0.00  0.00    +0.000 A 
ATOM     31  C   UNL     1      -4.746  12.559  24.318  0.00  0.00    +0.000 A 
ATOM     32  C   UNL     1      -4.237  12.662  23.014  0.00  0.00    +0.000 A 
ATOM     33  C   UNL     1      -2.855  12.646  22.759  0.00  0.00    +0.000 A 
ENDBRANCH  23  24
ENDBRANCH  11  23
TORSDOF 4
ENDMDL
MODEL 6
REMARK VINA RESULT:      -7.6      3.534      5.988
REMARK  Name = 
REMARK  4 active torsions:
REMARK  status: ('A' for Active; 'I' for Inactive)
REMARK    1  A    between atoms: C_2  and  C_5
REMARK    2  A    between atoms: N_3  and  O_4
REMARK    3  A    between atoms: N_15  and  C_16
REMARK    4  A    between atoms: C_16  and  C_17
REMARK                            x       y       z     vdW  Elec       q    Type
REMARK                         _______ _______ _______ _____ _____    ______ ____
ROOT
ATOM      1  C   UNL     1       4.662   5.689  18.536  0.00  0.00    +0.000 A 
ATOM      2  C   UNL     1       3.644   5.534  19.479  0.00  0.00    +0.000 A 
ATOM      3  N   UNL     1       2.647   6.440  19.553  0.00  0.00    +0.000 NA
ATOM      4  C   UNL     1       2.560   7.484  18.687  0.00  0.00    +0.000 A 
ATOM      5  N   UNL     1       1.533   8.450  18.876  0.00  0.00    +0.000 N 
ATOM      6  C   UNL     1       1.067   8.720  20.222  0.00  0.00    +0.000 C 
ATOM      7  C   UNL     1       1.311  10.205  20.524  0.00  0.00    +0.000 C 
ATOM      8  C   UNL     1       0.579  11.116  19.490  0.00  0.00    +0.000 C 
ATOM      9  C   UNL     1       0.810  12.610  19.821  0.00  0.00    +0.000 C 
ATOM     10  C   UNL     1      -0.593  13.205  19.940  0.00  0.00    +0.000 C 
ATOM     11  N   UNL     1      -1.470  12.115  20.395  0.00  0.00    +0.000 NA
ATOM     12  C   UNL     1      -0.971  10.991  19.585  0.00  0.00    +0.000 C 
ATOM     13  C   UNL     1       1.133  10.741  18.082  0.00  0.00    +0.000 C 
ATOM     14  C   UNL     1       0.968   9.241  17.788  0.00  0.00    +0.000 C 
ATOM     15  N   UNL     1       3.498   7.626  17.713  0.00  0.00    +0.000 NA
ATOM     16  C   UNL     1       4.555   6.768  17.635  0.00  0.00    +0.000 A 
ENDROOT
BRANCH   1  18
ATOM     17  O   UNL     1       5.803   3.816  19.361  0.00  0.00    +0.000 OA
ATOM     18  C   UNL     1       5.808   4.738  18.558  0.00  0.00    +0.000 C 
ATOM     19  N   UNL     1       6.888   4.903  17.750  0.00  0.00    +0.000 N 
ATOM     20  H   UNL     1       6.955   5.705  17.110  0.00  0.00    +0.000 HD
BRANCH  19  21
ATOM     21  O   UNL     1       7.937   4.072  17.847  0.00  0.00    +0.000 OA
ATOM     22  H   UNL     1       8.723   4.664  17.968  0.00  0.00    +0.000 HD
ENDBRANCH  19  21
ENDBRANCH   1  18
BRANCH  11  23
ATOM     23  C   UNL     1      -1.398  11.912  21.860  0.00  0.00    +0.000 C 
BRANCH  23  24
ATOM     24  C   UNL     1      -1.938  13.093  22.639  0.00  0.00    +0.000 A 
ATOM     25  C   UNL     1      -1.100  13.801  23.512  0.00  0.00    +0.000 A 
ATOM     26  N   UNL     1      -1.588  14.828  24.254  0.00  0.00    +0.000 NA
ATOM     27  C   UNL     1      -2.888  15.222  24.181  0.00  0.00    +0.000 A 
ATOM     28  C   UNL     1      -3.356  16.270  24.978  0.00  0.00    +0.000 A 
ATOM     29  C   UNL     1      -4.694  16.668  24.901  0.00  0.00    +0.000 A 
ATOM     30  C   UNL     1      -5.569  16.021  24.025  0.00  0.00    +0.000 A 
ATOM     31  C   UNL     1      -5.110  14.966  23.222  0.00  0.00    +0.000 A 
ATOM     32  C   UNL     1      -3.771  14.555  23.300  0.00  0.00    +0.000 A 
ATOM     33  C   UNL     1      -3.282  13.484  22.532  0.00  0.00    +0.000 A 
ENDBRANCH  23  24
ENDBRANCH  11  23
TORSDOF 4
ENDMDL
MODEL 7
REMARK VINA RESULT:      -7.6      3.488      5.924
REMARK  Name = 
REMARK  4 active torsions:
REMARK  status: ('A' for Active; 'I' for Inactive)
REMARK    1  A    between atoms: C_2  and  C_5
REMARK    2  A    between atoms: N_3  and  O_4
REMARK    3  A    between atoms: N_15  and  C_16
REMARK    4  A    between atoms: C_16  and  C_17
REMARK                            x       y       z     vdW  Elec       q    Type
REMARK                         _______ _______ _______ _____ _____    ______ ____
ROOT
ATOM      1  C   UNL     1       3.868   5.136  19.242  0.00  0.00    +0.000 A 
ATOM      2  C   UNL     1       2.753   5.185  20.081  0.00  0.00    +0.000 A 
ATOM      3  N   UNL     1       1.959   6.275  20.090  0.00  0.00    +0.000 NA
ATOM      4  C   UNL     1       2.169   7.322  19.250  0.00  0.00    +0.000 A 
ATOM      5  N   UNL     1       1.347   8.477  19.370  0.00  0.00    +0.000 N 
ATOM      6  C   UNL     1       0.818   8.824  20.675  0.00  0.00    +0.000 C 
ATOM      7  C   UNL     1       1.328  10.225  21.041  0.00  0.00    +0.000 C 
ATOM      8  C   UNL     1       0.900  11.277  19.969  0.00  0.00    +0.000 C 
ATOM      9  C   UNL     1       1.397  12.687  20.364  0.00  0.00    +0.000 C 
ATOM     10  C   UNL     1       0.139  13.557  20.370  0.00  0.00    +0.000 C 
ATOM     11  N   UNL     1      -0.981  12.666  20.709  0.00  0.00    +0.000 NA
ATOM     12  C   UNL     1      -0.645  11.471  19.917  0.00  0.00    +0.000 C 
ATOM     13  C   UNL     1       1.499  10.808  18.608  0.00  0.00    +0.000 C 
ATOM     14  C   UNL     1       1.062   9.377  18.258  0.00  0.00    +0.000 C 
ATOM     15  N   UNL     1       3.206   7.278  18.370  0.00  0.00    +0.000 NA
ATOM     16  C   UNL     1       4.069   6.223  18.366  0.00  0.00    +0.000 A 
ENDROOT
BRANCH   1  18
ATOM     17  O   UNL     1       5.912   4.055  18.864  0.00  0.00    +0.000 OA
ATOM     18  C   UNL     1       4.789   3.970  19.342  0.00  0.00    +0.000 C 
ATOM     19  N   UNL     1       4.395   2.794  19.896  0.00  0.00    +0.000 N 
ATOM     20  H   UNL     1       3.436   2.668  20.246  0.00  0.00    +0.000 HD
BRANCH  19  21
ATOM     21  O   UNL     1       5.223   1.739  19.902  0.00  0.00    +0.000 OA
ATOM     22  H   UNL     1       5.831   1.884  19.133  0.00  0.00    +0.000 HD
ENDBRANCH  19  21
ENDBRANCH   1  18
BRANCH  11  23
ATOM     23  C   UNL     1      -1.094  12.438  22.169  0.00  0.00    +0.000 C 
BRANCH  23  24
ATOM     24  C   UNL     1      -1.815  13.564  22.879  0.00  0.00    +0.000 A 
ATOM     25  C   UNL     1      -1.135  14.353  23.818  0.00  0.00    +0.000 A 
ATOM     26  N   UNL     1      -1.787  15.331  24.499  0.00  0.00    +0.000 NA
ATOM     27  C   UNL     1      -3.105  15.597  24.300  0.00  0.00    +0.000 A 
ATOM     28  C   UNL     1      -3.746  16.597  25.037  0.00  0.00    +0.000 A 
ATOM     29  C   UNL     1      -5.102  16.863  24.831  0.00  0.00    +0.000 A 
ATOM     30  C   UNL     1      -5.825  16.131  23.885  0.00  0.00    +0.000 A 
ATOM     31  C   UNL     1      -5.193  15.123  23.142  0.00  0.00    +0.000 A 
ATOM     32  C   UNL     1      -3.834  14.844  23.349  0.00  0.00    +0.000 A 
ATOM     33  C   UNL     1      -3.174  13.823  22.643  0.00  0.00    +0.000 A 
ENDBRANCH  23  24
ENDBRANCH  11  23
TORSDOF 4
ENDMDL
MODEL 8
REMARK VINA RESULT:      -7.5      5.806     10.349
REMARK  Name = 
REMARK  4 active torsions:
REMARK  status: ('A' for Active; 'I' for Inactive)
REMARK    1  A    between atoms: C_2  and  C_5
REMARK    2  A    between atoms: N_3  and  O_4
REMARK    3  A    between atoms: N_15  and  C_16
REMARK    4  A    between atoms: C_16  and  C_17
REMARK                            x       y       z     vdW  Elec       q    Type
REMARK                         _______ _______ _______ _____ _____    ______ ____
ROOT
ATOM      1  C   UNL     1      -4.875  13.799  22.873  0.00  0.00    +0.000 A 
ATOM      2  C   UNL     1      -3.796  13.230  23.554  0.00  0.00    +0.000 A 
ATOM      3  N   UNL     1      -2.721  12.788  22.869  0.00  0.00    +0.000 NA
ATOM      4  C   UNL     1      -2.617  12.937  21.523  0.00  0.00    +0.000 A 
ATOM      5  N   UNL     1      -1.497  12.372  20.852  0.00  0.00    +0.000 N 
ATOM      6  C   UNL     1      -0.895  11.168  21.392  0.00  0.00    +0.000 C 
ATOM      7  C   UNL     1      -0.979  10.070  20.324  0.00  0.00    +0.000 C 
ATOM      8  C   UNL     1      -0.262  10.508  19.008  0.00  0.00    +0.000 C 
ATOM      9  C   UNL     1      -0.332   9.382  17.950  0.00  0.00    +0.000 C 
ATOM     10  C   UNL     1       1.124   9.125  17.558  0.00  0.00    +0.000 C 
ATOM     11  N   UNL     1       1.937   9.458  18.737  0.00  0.00    +0.000 NA
ATOM     12  C   UNL     1       1.273  10.686  19.204  0.00  0.00    +0.000 C 
ATOM     13  C   UNL     1      -0.967  11.810  18.519  0.00  0.00    +0.000 C 
ATOM     14  C   UNL     1      -0.961  12.901  19.603  0.00  0.00    +0.000 C 
ATOM     15  N   UNL     1      -3.620  13.549  20.837  0.00  0.00    +0.000 NA
ATOM     16  C   UNL     1      -4.751  13.959  21.478  0.00  0.00    +0.000 A 
ENDROOT
BRANCH   1  18
ATOM     17  O   UNL     1      -6.417  15.345  23.722  0.00  0.00    +0.000 OA
ATOM     18  C   UNL     1      -6.094  14.168  23.645  0.00  0.00    +0.000 C 
ATOM     19  N   UNL     1      -6.822  13.239  24.316  0.00  0.00    +0.000 N 
ATOM     20  H   UNL     1      -6.540  12.250  24.328  0.00  0.00    +0.000 HD
BRANCH  19  21
ATOM     21  O   UNL     1      -7.871  13.613  25.065  0.00  0.00    +0.000 OA
ATOM     22  H   UNL     1      -8.125  14.508  24.722  0.00  0.00    +0.000 HD
ENDBRANCH  19  21
ENDBRANCH   1  18
BRANCH  11  23
ATOM     23  C   UNL     1       1.975   8.352  19.723  0.00  0.00    +0.000 C 
BRANCH  23  24
ATOM     24  C   UNL     1       2.406   7.038  19.107  0.00  0.00    +0.000 A 
ATOM     25  C   UNL     1       3.384   7.019  18.102  0.00  0.00    +0.000 A 
ATOM     26  N   UNL     1       3.739   5.851  17.507  0.00  0.00    +0.000 NA
ATOM     27  C   UNL     1       3.182   4.661  17.858  0.00  0.00    +0.000 A 
ATOM     28  C   UNL     1       3.559   3.483  17.206  0.00  0.00    +0.000 A 
ATOM     29  C   UNL     1       2.981   2.263  17.568  0.00  0.00    +0.000 A 
ATOM     30  C   UNL     1       2.024   2.215  18.585  0.00  0.00    +0.000 A 
ATOM     31  C   UNL     1       1.636   3.391  19.244  0.00  0.00    +0.000 A 
ATOM     32  C   UNL     1       2.206   4.620  18.880  0.00  0.00    +0.000 A 
ATOM     33  C   UNL     1       1.822   5.823  19.499  0.00  0.00    +0.000 A 
ENDBRANCH  23  24
ENDBRANCH  11  23
TORSDOF 4
ENDMDL
MODEL 9
REMARK VINA RESULT:      -7.5      0.910      1.007
REMARK  Name = 
REMARK  4 active torsions:
REMARK  status: ('A' for Active; 'I' for Inactive)
REMARK    1  A    between atoms: C_2  and  C_5
REMARK    2  A    between atoms: N_3  and  O_4
REMARK    3  A    between atoms: N_15  and  C_16
REMARK    4  A    between atoms: C_16  and  C_17
REMARK                            x       y       z     vdW  Elec       q    Type
REMARK                         _______ _______ _______ _____ _____    ______ ____
ROOT
ATOM      1  C   UNL     1       2.682   3.964  18.888  0.00  0.00    +0.000 A 
ATOM      2  C   UNL     1       3.496   5.040  18.529  0.00  0.00    +0.000 A 
ATOM      3  N   UNL     1       3.205   6.284  18.965  0.00  0.00    +0.000 NA
ATOM      4  C   UNL     1       2.167   6.524  19.808  0.00  0.00    +0.000 A 
ATOM      5  N   UNL     1       1.863   7.868  20.161  0.00  0.00    +0.000 N 
ATOM      6  C   UNL     1       2.139   8.920  19.202  0.00  0.00    +0.000 C 
ATOM      7  C   UNL     1       0.819   9.630  18.876  0.00  0.00    +0.000 C 
ATOM      8  C   UNL     1       0.161  10.213  20.166  0.00  0.00    +0.000 C 
ATOM      9  C   UNL     1      -1.155  10.949  19.820  0.00  0.00    +0.000 C 
ATOM     10  C   UNL     1      -0.979  12.355  20.396  0.00  0.00    +0.000 C 
ATOM     11  N   UNL     1       0.464  12.638  20.368  0.00  0.00    +0.000 NA
ATOM     12  C   UNL     1       1.017  11.346  20.806  0.00  0.00    +0.000 C 
ATOM     13  C   UNL     1      -0.081   9.015  21.134  0.00  0.00    +0.000 C 
ATOM     14  C   UNL     1       1.218   8.241  21.415  0.00  0.00    +0.000 C 
ATOM     15  N   UNL     1       1.394   5.487  20.232  0.00  0.00    +0.000 NA
ATOM     16  C   UNL     1       1.615   4.223  19.773  0.00  0.00    +0.000 A 
ENDROOT
BRANCH   1  18
ATOM     17  O   UNL     1       2.223   2.195  17.421  0.00  0.00    +0.000 OA
ATOM     18  C   UNL     1       2.961   2.626  18.295  0.00  0.00    +0.000 C 
ATOM     19  N   UNL     1       3.979   1.846  18.743  0.00  0.00    +0.000 N 
ATOM     20  H   UNL     1       4.577   2.149  19.523  0.00  0.00    +0.000 HD
BRANCH  19  21
ATOM     21  O   UNL     1       4.158   0.615  18.241  0.00  0.00    +0.000 OA
ATOM     22  H   UNL     1       3.806   0.661  17.315  0.00  0.00    +0.000 HD
ENDBRANCH  19  21
ENDBRANCH   1  18
BRANCH  11  23
ATOM     23  C   UNL     1       0.918  13.095  19.034  0.00  0.00    +0.000 C 
BRANCH  23  24
ATOM     24  C   UNL     1       2.025  14.125  19.117  0.00  0.00    +0.000 A 
ATOM     25  C   UNL     1       2.030  15.224  18.246  0.00  0.00    +0.000 A 
ATOM     26  N   UNL     1       3.046  16.124  18.278  0.00  0.00    +0.000 NA
ATOM     27  C   UNL     1       4.085  16.014  19.148  0.00  0.00    +0.000 A 
ATOM     28  C   UNL     1       5.124  16.950  19.134  0.00  0.00    +0.000 A 
ATOM     29  C   UNL     1       6.191  16.829  20.028  0.00  0.00    +0.000 A 
ATOM     30  C   UNL     1       6.225  15.772  20.942  0.00  0.00    +0.000 A 
ATOM     31  C   UNL     1       5.190  14.825  20.963  0.00  0.00    +0.000 A 
ATOM     32  C   UNL     1       4.119  14.935  20.062  0.00  0.00    +0.000 A 
ATOM     33  C   UNL     1       3.078  13.990  20.035  0.00  0.00    +0.000 A 
ENDBRANCH  23  24
ENDBRANCH  11  23
TORSDOF 4
ENDMDL
