MODEL 1
REMARK VINA RESULT:      -7.7      0.000      0.000
REMARK  Name = 
REMARK  5 active torsions:
REMARK  status: ('A' for Active; 'I' for Inactive)
REMARK    1  A    between atoms: C_2  and  C_3
REMARK    2  A    between atoms: C_2  and  C_11
REMARK    3  A    between atoms: C_3  and  C_4
REMARK    4  A    between atoms: C_14  and  O_15
REMARK    5  A    between atoms: C_16  and  O_17
REMARK                            x       y       z     vdW  Elec       q    Type
REMARK                         _______ _______ _______ _____ _____    ______ ____
ROOT
ATOM      1  O   UNL     1       4.635   3.433  16.582  0.00  0.00    +0.000 OA
ATOM      2  C   UNL     1       4.419   4.441  17.254  0.00  0.00    +0.000 C 
ENDROOT
BRANCH   2   3
ATOM      3  C   UNL     1       5.574   5.258  17.722  0.00  0.00    +0.000 A 
ATOM      4  C   UNL     1       5.985   6.349  16.937  0.00  0.00    +0.000 A 
ATOM      5  C   UNL     1       7.056   7.153  17.340  0.00  0.00    +0.000 A 
ATOM      6  C   UNL     1       7.718   6.851  18.523  0.00  0.00    +0.000 A 
ATOM      7  C   UNL     1       7.319   5.764  19.293  0.00  0.00    +0.000 A 
ATOM      8  C   UNL     1       6.256   4.961  18.905  0.00  0.00    +0.000 A 
BRANCH   6   9
ATOM      9  O   UNL     1       8.774   7.591  18.974  0.00  0.00    +0.000 OA
ATOM     10  H   UNL     1       9.532   6.996  19.103  0.00  0.00    +0.000 HD
ENDBRANCH   6   9
BRANCH   7  11
ATOM     11  O   UNL     1       7.981   5.465  20.450  0.00  0.00    +0.000 OA
ATOM     12  H   UNL     1       8.903   5.294  20.171  0.00  0.00    +0.000 HD
ENDBRANCH   7  11
ENDBRANCH   2   3
BRANCH   2  13
ATOM     13  C   UNL     1       3.008   4.902  17.573  0.00  0.00    +0.000 C 
BRANCH  13  14
ATOM     14  C   UNL     1       2.421   4.268  18.810  0.00  0.00    +0.000 A 
ATOM     15  C   UNL     1       2.696   4.804  20.079  0.00  0.00    +0.000 A 
ATOM     16  C   UNL     1       2.182   4.201  21.228  0.00  0.00    +0.000 A 
ATOM     17  C   UNL     1       1.375   3.078  21.109  0.00  0.00    +0.000 A 
ATOM     18  F   UNL     1       0.885   2.499  22.213  0.00  0.00    +0.000 F 
ATOM     19  C   UNL     1       1.067   2.548  19.862  0.00  0.00    +0.000 A 
ATOM     20  C   UNL     1       1.588   3.143  18.712  0.00  0.00    +0.000 A 
ENDBRANCH  13  14
ENDBRANCH   2  13
TORSDOF 5
ENDMDL
MODEL 2
REMARK VINA RESULT:      -7.7      1.588      2.225
REMARK  Name = 
REMARK  5 active torsions:
REMARK  status: ('A' for Active; 'I' for Inactive)
REMARK    1  A    between atoms: C_2  and  C_3
REMARK    2  A    between atoms: C_2  and  C_11
REMARK    3  A    between atoms: C_3  and  C_4
REMARK    4  A    between atoms: C_14  and  O_15
REMARK    5  A    between atoms: C_16  and  O_17
REMARK                            x       y       z     vdW  Elec       q    Type
REMARK                         _______ _______ _______ _____ _____    ______ ____
ROOT
ATOM      1  O   UNL     1       3.032   7.553  17.936  0.00  0.00    +0.000 OA
ATOM      2  C   UNL     1       3.146   6.331  17.841  0.00  0.00    +0.000 C 
ENDROOT
BRANCH   2   3
ATOM      3  C   UNL     1       4.510   5.731  17.833  0.00  0.00    +0.000 A 
ATOM      4  C   UNL     1       4.945   5.072  16.671  0.00  0.00    +0.000 A 
ATOM      5  C   UNL     1       6.221   4.503  16.609  0.00  0.00    +0.000 A 
ATOM      6  C   UNL     1       7.052   4.590  17.719  0.00  0.00    +0.000 A 
ATOM      7  C   UNL     1       6.617   5.232  18.873  0.00  0.00    +0.000 A 
ATOM      8  C   UNL     1       5.354   5.803  18.945  0.00  0.00    +0.000 A 
BRANCH   6   9
ATOM      9  O   UNL     1       8.309   4.055  17.729  0.00  0.00    +0.000 OA
ATOM     10  H   UNL     1       8.952   4.784  17.695  0.00  0.00    +0.000 HD
ENDBRANCH   6   9
BRANCH   7  11
ATOM     11  O   UNL     1       7.434   5.304  19.966  0.00  0.00    +0.000 OA
ATOM     12  H   UNL     1       8.291   4.947  19.658  0.00  0.00    +0.000 HD
ENDBRANCH   7  11
ENDBRANCH   2   3
BRANCH   2  13
ATOM     13  C   UNL     1       1.935   5.417  17.786  0.00  0.00    +0.000 C 
BRANCH  13  14
ATOM     14  C   UNL     1       1.822   4.476  18.960  0.00  0.00    +0.000 A 
ATOM     15  C   UNL     1       1.428   3.142  18.764  0.00  0.00    +0.000 A 
ATOM     16  C   UNL     1       1.290   2.278  19.850  0.00  0.00    +0.000 A 
ATOM     17  C   UNL     1       1.569   2.738  21.130  0.00  0.00    +0.000 A 
ATOM     18  F   UNL     1       1.433   1.908  22.173  0.00  0.00    +0.000 F 
ATOM     19  C   UNL     1       1.986   4.046  21.345  0.00  0.00    +0.000 A 
ATOM     20  C   UNL     1       2.115   4.916  20.260  0.00  0.00    +0.000 A 
ENDBRANCH  13  14
ENDBRANCH   2  13
TORSDOF 5
ENDMDL
MODEL 3
REMARK VINA RESULT:      -7.5      1.687      1.966
REMARK  Name = 
REMARK  5 active torsions:
REMARK  status: ('A' for Active; 'I' for Inactive)
REMARK    1  A    between atoms: C_2  and  C_3
REMARK    2  A    between atoms: C_2  and  C_11
REMARK    3  A    between atoms: C_3  and  C_4
REMARK    4  A    between atoms: C_14  and  O_15
REMARK    5  A    between atoms: C_16  and  O_17
REMARK                            x       y       z     vdW  Elec       q    Type
REMARK                         _______ _______ _______ _____ _____    ______ ____
ROOT
ATOM      1  O   UNL     1       3.219   7.848  17.843  0.00  0.00    +0.000 OA
ATOM      2  C   UNL     1       3.261   6.617  17.829  0.00  0.00    +0.000 C 
ENDROOT
BRANCH   2   3
ATOM      3  C   UNL     1       4.588   5.940  17.820  0.00  0.00    +0.000 A 
ATOM      4  C   UNL     1       5.014   5.315  16.636  0.00  0.00    +0.000 A 
ATOM      5  C   UNL     1       6.257   4.677  16.574  0.00  0.00    +0.000 A 
ATOM      6  C   UNL     1       7.063   4.658  17.705  0.00  0.00    +0.000 A 
ATOM      7  C   UNL     1       6.635   5.266  18.881  0.00  0.00    +0.000 A 
ATOM      8  C   UNL     1       5.406   5.906  18.954  0.00  0.00    +0.000 A 
BRANCH   6   9
ATOM      9  O   UNL     1       8.285   4.051  17.717  0.00  0.00    +0.000 OA
ATOM     10  H   UNL     1       8.709   4.201  16.854  0.00  0.00    +0.000 HD
ENDBRANCH   6   9
BRANCH   7  11
ATOM     11  O   UNL     1       7.427   5.235  19.994  0.00  0.00    +0.000 OA
ATOM     12  H   UNL     1       8.027   6.001  19.893  0.00  0.00    +0.000 HD
ENDBRANCH   7  11
ENDBRANCH   2   3
BRANCH   2  13
ATOM     13  C   UNL     1       1.999   5.775  17.872  0.00  0.00    +0.000 C 
BRANCH  13  14
ATOM     14  C   UNL     1       1.983   4.751  18.982  0.00  0.00    +0.000 A 
ATOM     15  C   UNL     1       2.063   5.160  20.323  0.00  0.00    +0.000 A 
ATOM     16  C   UNL     1       2.082   4.216  21.350  0.00  0.00    +0.000 A 
ATOM     17  C   UNL     1       1.996   2.865  21.040  0.00  0.00    +0.000 A 
ATOM     18  F   UNL     1       2.017   1.960  22.027  0.00  0.00    +0.000 F 
ATOM     19  C   UNL     1       1.888   2.440  19.721  0.00  0.00    +0.000 A 
ATOM     20  C   UNL     1       1.879   3.382  18.691  0.00  0.00    +0.000 A 
ENDBRANCH  13  14
ENDBRANCH   2  13
TORSDOF 5
ENDMDL
MODEL 4
REMARK VINA RESULT:      -7.5      0.355      1.117
REMARK  Name = 
REMARK  5 active torsions:
REMARK  status: ('A' for Active; 'I' for Inactive)
REMARK    1  A    between atoms: C_2  and  C_3
REMARK    2  A    between atoms: C_2  and  C_11
REMARK    3  A    between atoms: C_3  and  C_4
REMARK    4  A    between atoms: C_14  and  O_15
REMARK    5  A    between atoms: C_16  and  O_17
REMARK                            x       y       z     vdW  Elec       q    Type
REMARK                         _______ _______ _______ _____ _____    ______ ____
ROOT
ATOM      1  O   UNL     1       4.902   3.326  16.513  0.00  0.00    +0.000 OA
ATOM      2  C   UNL     1       4.630   4.329  17.174  0.00  0.00    +0.000 C 
ENDROOT
BRANCH   2   3
ATOM      3  C   UNL     1       5.742   5.178  17.687  0.00  0.00    +0.000 A 
ATOM      4  C   UNL     1       6.180   6.256  16.898  0.00  0.00    +0.000 A 
ATOM      5  C   UNL     1       7.212   7.089  17.340  0.00  0.00    +0.000 A 
ATOM      6  C   UNL     1       7.807   6.832  18.569  0.00  0.00    +0.000 A 
ATOM      7  C   UNL     1       7.382   5.758  19.344  0.00  0.00    +0.000 A 
ATOM      8  C   UNL     1       6.356   4.926  18.917  0.00  0.00    +0.000 A 
BRANCH   6   9
ATOM      9  O   UNL     1       8.821   7.603  19.061  0.00  0.00    +0.000 OA
ATOM     10  H   UNL     1       8.977   7.350  19.987  0.00  0.00    +0.000 HD
ENDBRANCH   6   9
BRANCH   7  11
ATOM     11  O   UNL     1       7.978   5.502  20.546  0.00  0.00    +0.000 OA
ATOM     12  H   UNL     1       8.756   4.952  20.324  0.00  0.00    +0.000 HD
ENDBRANCH   7  11
ENDBRANCH   2   3
BRANCH   2  13
ATOM     13  C   UNL     1       3.195   4.749  17.436  0.00  0.00    +0.000 C 
BRANCH  13  14
ATOM     14  C   UNL     1       2.602   4.157  18.691  0.00  0.00    +0.000 A 
ATOM     15  C   UNL     1       2.325   2.782  18.764  0.00  0.00    +0.000 A 
ATOM     16  C   UNL     1       1.746   2.236  19.910  0.00  0.00    +0.000 A 
ATOM     17  C   UNL     1       1.466   3.059  20.993  0.00  0.00    +0.000 A 
ATOM     18  F   UNL     1       0.907   2.534  22.092  0.00  0.00    +0.000 F 
ATOM     19  C   UNL     1       1.756   4.417  20.953  0.00  0.00    +0.000 A 
ATOM     20  C   UNL     1       2.326   4.967  19.803  0.00  0.00    +0.000 A 
ENDBRANCH  13  14
ENDBRANCH   2  13
TORSDOF 5
ENDMDL
MODEL 5
REMARK VINA RESULT:      -7.4      1.798      2.765
REMARK  Name = 
REMARK  5 active torsions:
REMARK  status: ('A' for Active; 'I' for Inactive)
REMARK    1  A    between atoms: C_2  and  C_3
REMARK    2  A    between atoms: C_2  and  C_11
REMARK    3  A    between atoms: C_3  and  C_4
REMARK    4  A    between atoms: C_14  and  O_15
REMARK    5  A    between atoms: C_16  and  O_17
REMARK                            x       y       z     vdW  Elec       q    Type
REMARK                         _______ _______ _______ _____ _____    ______ ____
ROOT
ATOM      1  O   UNL     1       3.166   7.716  18.077  0.00  0.00    +0.000 OA
ATOM      2  C   UNL     1       3.226   6.501  17.891  0.00  0.00    +0.000 C 
ENDROOT
BRANCH   2   3
ATOM      3  C   UNL     1       4.562   5.860  17.728  0.00  0.00    +0.000 A 
ATOM      4  C   UNL     1       5.372   5.702  18.865  0.00  0.00    +0.000 A 
ATOM      5  C   UNL     1       6.628   5.095  18.766  0.00  0.00    +0.000 A 
ATOM      6  C   UNL     1       7.071   4.661  17.523  0.00  0.00    +0.000 A 
ATOM      7  C   UNL     1       6.274   4.830  16.396  0.00  0.00    +0.000 A 
ATOM      8  C   UNL     1       5.025   5.426  16.482  0.00  0.00    +0.000 A 
BRANCH   6   9
ATOM      9  O   UNL     1       8.288   4.064  17.354  0.00  0.00    +0.000 OA
ATOM     10  H   UNL     1       8.575   3.706  18.211  0.00  0.00    +0.000 HD
ENDBRANCH   6   9
BRANCH   7  11
ATOM     11  O   UNL     1       6.720   4.411  15.174  0.00  0.00    +0.000 OA
ATOM     12  H   UNL     1       7.083   3.517  15.336  0.00  0.00    +0.000 HD
ENDBRANCH   7  11
ENDBRANCH   2   3
BRANCH   2  13
ATOM     13  C   UNL     1       1.981   5.633  17.874  0.00  0.00    +0.000 C 
BRANCH  13  14
ATOM     14  C   UNL     1       1.905   4.647  19.015  0.00  0.00    +0.000 A 
ATOM     15  C   UNL     1       1.628   3.293  18.764  0.00  0.00    +0.000 A 
ATOM     16  C   UNL     1       1.524   2.385  19.817  0.00  0.00    +0.000 A 
ATOM     17  C   UNL     1       1.721   2.823  21.120  0.00  0.00    +0.000 A 
ATOM     18  F   UNL     1       1.618   1.950  22.131  0.00  0.00    +0.000 F 
ATOM     19  C   UNL     1       2.023   4.152  21.390  0.00  0.00    +0.000 A 
ATOM     20  C   UNL     1       2.117   5.065  20.337  0.00  0.00    +0.000 A 
ENDBRANCH  13  14
ENDBRANCH   2  13
TORSDOF 5
ENDMDL
MODEL 6
REMARK VINA RESULT:      -7.2      2.173      2.986
REMARK  Name = 
REMARK  5 active torsions:
REMARK  status: ('A' for Active; 'I' for Inactive)
REMARK    1  A    between atoms: C_2  and  C_3
REMARK    2  A    between atoms: C_2  and  C_11
REMARK    3  A    between atoms: C_3  and  C_4
REMARK    4  A    between atoms: C_14  and  O_15
REMARK    5  A    between atoms: C_16  and  O_17
REMARK                            x       y       z     vdW  Elec       q    Type
REMARK                         _______ _______ _______ _____ _____    ______ ____
ROOT
ATOM      1  O   UNL     1       3.276   8.038  17.409  0.00  0.00    +0.000 OA
ATOM      2  C   UNL     1       3.535   7.078  18.135  0.00  0.00    +0.000 C 
ENDROOT
BRANCH   2   3
ATOM      3  C   UNL     1       4.787   6.307  17.892  0.00  0.00    +0.000 A 
ATOM      4  C   UNL     1       5.307   5.527  18.938  0.00  0.00    +0.000 A 
ATOM      5  C   UNL     1       6.472   4.776  18.756  0.00  0.00    +0.000 A 
ATOM      6  C   UNL     1       7.118   4.820  17.526  0.00  0.00    +0.000 A 
ATOM      7  C   UNL     1       6.610   5.602  16.495  0.00  0.00    +0.000 A 
ATOM      8  C   UNL     1       5.452   6.349  16.663  0.00  0.00    +0.000 A 
BRANCH   6   9
ATOM      9  O   UNL     1       8.261   4.115  17.280  0.00  0.00    +0.000 OA
ATOM     10  H   UNL     1       8.226   3.288  17.791  0.00  0.00    +0.000 HD
ENDBRANCH   6   9
BRANCH   7  11
ATOM     11  O   UNL     1       7.254   5.651  15.291  0.00  0.00    +0.000 OA
ATOM     12  H   UNL     1       7.842   4.868  15.293  0.00  0.00    +0.000 HD
ENDBRANCH   7  11
ENDBRANCH   2   3
BRANCH   2  13
ATOM     13  C   UNL     1       2.642   6.694  19.300  0.00  0.00    +0.000 C 
BRANCH  13  14
ATOM     14  C   UNL     1       2.032   5.318  19.178  0.00  0.00    +0.000 A 
ATOM     15  C   UNL     1       1.898   4.713  17.917  0.00  0.00    +0.000 A 
ATOM     16  C   UNL     1       1.305   3.456  17.795  0.00  0.00    +0.000 A 
ATOM     17  C   UNL     1       0.868   2.793  18.934  0.00  0.00    +0.000 A 
ATOM     18  F   UNL     1       0.296   1.587  18.815  0.00  0.00    +0.000 F 
ATOM     19  C   UNL     1       1.016   3.360  20.193  0.00  0.00    +0.000 A 
ATOM     20  C   UNL     1       1.600   4.622  20.317  0.00  0.00    +0.000 A 
ENDBRANCH  13  14
ENDBRANCH   2  13
TORSDOF 5
ENDMDL
MODEL 7
REMARK VINA RESULT:      -7.2      0.701      1.594
REMARK  Name = 
REMARK  5 active torsions:
REMARK  status: ('A' for Active; 'I' for Inactive)
REMARK    1  A    between atoms: C_2  and  C_3
REMARK    2  A    between atoms: C_2  and  C_11
REMARK    3  A    between atoms: C_3  and  C_4
REMARK    4  A    between atoms: C_14  and  O_15
REMARK    5  A    between atoms: C_16  and  O_17
REMARK                            x       y       z     vdW  Elec       q    Type
REMARK                         _______ _______ _______ _____ _____    ______ ____
ROOT
ATOM      1  O   UNL     1       4.038   3.965  16.353  0.00  0.00    +0.000 OA
ATOM      2  C   UNL     1       3.973   4.822  17.235  0.00  0.00    +0.000 C 
ENDROOT
BRANCH   2   3
ATOM      3  C   UNL     1       5.231   5.451  17.724  0.00  0.00    +0.000 A 
ATOM      4  C   UNL     1       5.832   4.934  18.885  0.00  0.00    +0.000 A 
ATOM      5  C   UNL     1       7.020   5.481  19.377  0.00  0.00    +0.000 A 
ATOM      6  C   UNL     1       7.596   6.554  18.709  0.00  0.00    +0.000 A 
ATOM      7  C   UNL     1       6.995   7.074  17.567  0.00  0.00    +0.000 A 
ATOM      8  C   UNL     1       5.818   6.537  17.067  0.00  0.00    +0.000 A 
BRANCH   6   9
ATOM      9  O   UNL     1       8.753   7.140  19.135  0.00  0.00    +0.000 OA
ATOM     10  H   UNL     1       8.536   7.763  19.850  0.00  0.00    +0.000 HD
ENDBRANCH   6   9
BRANCH   7  11
ATOM     11  O   UNL     1       7.560   8.137  16.920  0.00  0.00    +0.000 OA
ATOM     12  H   UNL     1       6.947   8.881  17.084  0.00  0.00    +0.000 HD
ENDBRANCH   7  11
ENDBRANCH   2   3
BRANCH   2  13
ATOM     13  C   UNL     1       2.642   5.291  17.796  0.00  0.00    +0.000 C 
BRANCH  13  14
ATOM     14  C   UNL     1       2.170   4.501  18.994  0.00  0.00    +0.000 A 
ATOM     15  C   UNL     1       2.516   4.910  20.292  0.00  0.00    +0.000 A 
ATOM     16  C   UNL     1       2.109   4.165  21.400  0.00  0.00    +0.000 A 
ATOM     17  C   UNL     1       1.338   3.026  21.212  0.00  0.00    +0.000 A 
ATOM     18  F   UNL     1       0.951   2.310  22.277  0.00  0.00    +0.000 F 
ATOM     19  C   UNL     1       0.961   2.619  19.939  0.00  0.00    +0.000 A 
ATOM     20  C   UNL     1       1.375   3.357  18.828  0.00  0.00    +0.000 A 
ENDBRANCH  13  14
ENDBRANCH   2  13
TORSDOF 5
ENDMDL
MODEL 8
REMARK VINA RESULT:      -7.1      2.136      2.608
REMARK  Name = 
REMARK  5 active torsions:
REMARK  status: ('A' for Active; 'I' for Inactive)
REMARK    1  A    between atoms: C_2  and  C_3
REMARK    2  A    between atoms: C_2  and  C_11
REMARK    3  A    between atoms: C_3  and  C_4
REMARK    4  A    between atoms: C_14  and  O_15
REMARK    5  A    between atoms: C_16  and  O_17
REMARK                            x       y       z     vdW  Elec       q    Type
REMARK                         _______ _______ _______ _____ _____    ______ ____
ROOT
ATOM      1  O   UNL     1       2.985   8.190  17.594  0.00  0.00    +0.000 OA
ATOM      2  C   UNL     1       3.384   7.160  18.138  0.00  0.00    +0.000 C 
ENDROOT
BRANCH   2   3
ATOM      3  C   UNL     1       4.565   6.453  17.567  0.00  0.00    +0.000 A 
ATOM      4  C   UNL     1       4.806   6.559  16.186  0.00  0.00    +0.000 A 
ATOM      5  C   UNL     1       5.908   5.925  15.604  0.00  0.00    +0.000 A 
ATOM      6  C   UNL     1       6.758   5.176  16.409  0.00  0.00    +0.000 A 
ATOM      7  C   UNL     1       6.512   5.061  17.773  0.00  0.00    +0.000 A 
ATOM      8  C   UNL     1       5.424   5.689  18.362  0.00  0.00    +0.000 A 
BRANCH   6   9
ATOM      9  O   UNL     1       7.849   4.528  15.907  0.00  0.00    +0.000 OA
ATOM     10  H   UNL     1       8.337   5.146  15.336  0.00  0.00    +0.000 HD
ENDBRANCH   6   9
BRANCH   7  11
ATOM     11  O   UNL     1       7.344   4.315  18.558  0.00  0.00    +0.000 OA
ATOM     12  H   UNL     1       7.159   3.388  18.305  0.00  0.00    +0.000 HD
ENDBRANCH   7  11
ENDBRANCH   2   3
BRANCH   2  13
ATOM     13  C   UNL     1       2.739   6.622  19.402  0.00  0.00    +0.000 C 
BRANCH  13  14
ATOM     14  C   UNL     1       2.084   5.273  19.231  0.00  0.00    +0.000 A 
ATOM     15  C   UNL     1       1.654   4.546  20.353  0.00  0.00    +0.000 A 
ATOM     16  C   UNL     1       1.079   3.284  20.201  0.00  0.00    +0.000 A 
ATOM     17  C   UNL     1       0.910   2.759  18.927  0.00  0.00    +0.000 A 
ATOM     18  F   UNL     1       0.359   1.546  18.783  0.00  0.00    +0.000 F 
ATOM     19  C   UNL     1       1.301   3.472  17.801  0.00  0.00    +0.000 A 
ATOM     20  C   UNL     1       1.887   4.730  17.952  0.00  0.00    +0.000 A 
ENDBRANCH  13  14
ENDBRANCH   2  13
TORSDOF 5
ENDMDL
MODEL 9
REMARK VINA RESULT:      -7.0      1.928      2.565
REMARK  Name = 
REMARK  5 active torsions:
REMARK  status: ('A' for Active; 'I' for Inactive)
REMARK    1  A    between atoms: C_2  and  C_3
REMARK    2  A    between atoms: C_2  and  C_11
REMARK    3  A    between atoms: C_3  and  C_4
REMARK    4  A    between atoms: C_14  and  O_15
REMARK    5  A    between atoms: C_16  and  O_17
REMARK                            x       y       z     vdW  Elec       q    Type
REMARK                         _______ _______ _______ _____ _____    ______ ____
ROOT
ATOM      1  O   UNL     1       2.962   7.493  18.417  0.00  0.00    +0.000 OA
ATOM      2  C   UNL     1       3.014   6.367  17.922  0.00  0.00    +0.000 C 
ENDROOT
BRANCH   2   3
ATOM      3  C   UNL     1       4.313   5.875  17.381  0.00  0.00    +0.000 A 
ATOM      4  C   UNL     1       5.422   6.738  17.414  0.00  0.00    +0.000 A 
ATOM      5  C   UNL     1       6.665   6.320  16.929  0.00  0.00    +0.000 A 
ATOM      6  C   UNL     1       6.788   5.039  16.404  0.00  0.00    +0.000 A 
ATOM      7  C   UNL     1       5.687   4.190  16.360  0.00  0.00    +0.000 A 
ATOM      8  C   UNL     1       4.449   4.593  16.841  0.00  0.00    +0.000 A 
BRANCH   6   9
ATOM      9  O   UNL     1       7.970   4.567  15.911  0.00  0.00    +0.000 OA
ATOM     10  H   UNL     1       8.401   4.038  16.604  0.00  0.00    +0.000 HD
ENDBRANCH   6   9
BRANCH   7  11
ATOM     11  O   UNL     1       5.811   2.936  15.832  0.00  0.00    +0.000 OA
ATOM     12  H   UNL     1       6.727   2.900  15.493  0.00  0.00    +0.000 HD
ENDBRANCH   7  11
ENDBRANCH   2   3
BRANCH   2  13
ATOM     13  C   UNL     1       1.805   5.449  17.896  0.00  0.00    +0.000 C 
BRANCH  13  14
ATOM     14  C   UNL     1       1.726   4.505  19.072  0.00  0.00    +0.000 A 
ATOM     15  C   UNL     1       2.175   4.913  20.339  0.00  0.00    +0.000 A 
ATOM     16  C   UNL     1       2.135   4.033  21.421  0.00  0.00    +0.000 A 
ATOM     17  C   UNL     1       1.623   2.755  21.244  0.00  0.00    +0.000 A 
ATOM     18  F   UNL     1       1.588   1.910  22.283  0.00  0.00    +0.000 F 
ATOM     19  C   UNL     1       1.148   2.339  20.007  0.00  0.00    +0.000 A 
ATOM     20  C   UNL     1       1.197   3.215  18.920  0.00  0.00    +0.000 A 
ENDBRANCH  13  14
ENDBRANCH   2  13
TORSDOF 5
ENDMDL
