MODEL 1
REMARK VINA RESULT:      -7.6      0.000      0.000
REMARK  Name = 
REMARK  14 active torsions:
REMARK  status: ('A' for Active; 'I' for Inactive)
REMARK    1  A    between atoms: C_1  and  N_2
REMARK    2  A    between atoms: N_2  and  C_3
REMARK    3  A    between atoms: C_3  and  C_4
REMARK    4  A    between atoms: C_4  and  C_5
REMARK    5  A    between atoms: C_11  and  C_13
REMARK    6  A    between atoms: C_20  and  C_21
REMARK    7  A    between atoms: C_21  and  C_22
REMARK    8  A    between atoms: C_22  and  O_24
REMARK    9  A    between atoms: N_27  and  C_28
REMARK   10  A    between atoms: C_28  and  C_29
REMARK   11  A    between atoms: C_29  and  C_30
REMARK   12  A    between atoms: C_30  and  C_31
REMARK   13  A    between atoms: C_30  and  C_32
REMARK   14  A    between atoms: C_30  and  C_33
REMARK                            x       y       z     vdW  Elec       q    Type
REMARK                         _______ _______ _______ _____ _____    ______ ____
ROOT
ATOM      1  C   UNL     1       2.129   9.136  18.028  0.00  0.00    +0.000 A 
ATOM      2  C   UNL     1       1.205   8.142  18.379  0.00  0.00    +0.000 A 
ATOM      3  C   UNL     1       1.534   6.792  18.249  0.00  0.00    +0.000 A 
ATOM      4  C   UNL     1       2.780   6.420  17.732  0.00  0.00    +0.000 A 
ATOM      5  C   UNL     1       3.708   7.411  17.372  0.00  0.00    +0.000 A 
ATOM      6  C   UNL     1       3.403   8.761  17.596  0.00  0.00    +0.000 A 
ATOM      7  C   UNL     1       5.041   7.021  16.775  0.00  0.00    +0.000 C 
ATOM      8  C   UNL     1       5.934   6.366  17.828  0.00  0.00    +0.000 C 
ATOM      9  C   UNL     1       5.585   4.887  18.065  0.00  0.00    +0.000 C 
ATOM     10  O   UNL     1       6.462   4.022  18.129  0.00  0.00    +0.000 OA
ATOM     11  N   UNL     1       4.278   4.597  18.429  0.00  0.00    +0.000 N 
ATOM     12  C   UNL     1       3.149   4.970  17.589  0.00  0.00    +0.000 C 
ENDROOT
BRANCH   1  15
ATOM     13  C   UNL     1       0.058  12.305  18.504  0.00  0.00    +0.000 C 
ATOM     14  N   UNL     1       0.341  10.880  18.386  0.00  0.00    +0.000 N 
ATOM     15  C   UNL     1       1.678  10.550  18.121  0.00  0.00    +0.000 C 
ATOM     16  O   UNL     1       2.552  11.415  18.026  0.00  0.00    +0.000 OA
BRANCH  14  17
ATOM     17  C   UNL     1      -0.779   9.961  18.622  0.00  0.00    +0.000 C 
BRANCH  17  18
ATOM     18  C   UNL     1      -2.166  10.605  18.560  0.00  0.00    +0.000 C 
BRANCH  18  19
ATOM     19  C   UNL     1      -3.168   9.760  17.746  0.00  0.00    +0.000 C 
ATOM     20  C   UNL     1      -2.771   9.616  16.269  0.00  0.00    +0.000 C 
ATOM     21  C   UNL     1      -2.892  10.946  15.527  0.00  0.00    +0.000 C 
ATOM     22  N   UNL     1      -4.248  11.488  15.621  0.00  0.00    +0.000 NA
ATOM     23  C   UNL     1      -4.671  11.673  17.012  0.00  0.00    +0.000 C 
ATOM     24  C   UNL     1      -4.578  10.371  17.814  0.00  0.00    +0.000 C 
ATOM     25  H   UNL     1      -4.892  10.841  15.168  0.00  0.00    +0.000 HD
ENDBRANCH  18  19
ENDBRANCH  17  18
ENDBRANCH  14  17
ENDBRANCH   1  15
BRANCH   8  26
ATOM     26  C   UNL     1       7.425   6.474  17.458  0.00  0.00    +0.000 C 
BRANCH  26  27
ATOM     27  C   UNL     1       8.075   7.748  17.941  0.00  0.00    +0.000 C 
ATOM     28  O   UNL     1       8.053   8.821  17.359  0.00  0.00    +0.000 OA
BRANCH  27  29
ATOM     29  O   UNL     1       8.723   7.580  19.117  0.00  0.00    +0.000 OA
ATOM     30  H   UNL     1       9.271   6.772  19.152  0.00  0.00    +0.000 HD
ENDBRANCH  27  29
ENDBRANCH  26  27
ENDBRANCH   8  26
BRANCH  11  31
ATOM     31  C   UNL     1       4.042   4.303  19.839  0.00  0.00    +0.000 C 
BRANCH  31  32
ATOM     32  C   UNL     1       3.198   3.044  20.065  0.00  0.00    +0.000 C 
BRANCH  32  33
ATOM     33  C   UNL     1       1.745   3.298  20.554  0.00  0.00    +0.000 C 
ATOM     34  C   UNL     1       0.717   2.880  19.489  0.00  0.00    +0.000 C 
ATOM     35  C   UNL     1       1.508   2.444  21.816  0.00  0.00    +0.000 C 
ATOM     36  C   UNL     1       1.529   4.776  20.917  0.00  0.00    +0.000 C 
ENDBRANCH  32  33
ENDBRANCH  31  32
ENDBRANCH  11  31
TORSDOF 10
ENDMDL
MODEL 2
REMARK VINA RESULT:      -7.5      1.459      1.865
REMARK  Name = 
REMARK  14 active torsions:
REMARK  status: ('A' for Active; 'I' for Inactive)
REMARK    1  A    between atoms: C_1  and  N_2
REMARK    2  A    between atoms: N_2  and  C_3
REMARK    3  A    between atoms: C_3  and  C_4
REMARK    4  A    between atoms: C_4  and  C_5
REMARK    5  A    between atoms: C_11  and  C_13
REMARK    6  A    between atoms: C_20  and  C_21
REMARK    7  A    between atoms: C_21  and  C_22
REMARK    8  A    between atoms: C_22  and  O_24
REMARK    9  A    between atoms: N_27  and  C_28
REMARK   10  A    between atoms: C_28  and  C_29
REMARK   11  A    between atoms: C_29  and  C_30
REMARK   12  A    between atoms: C_30  and  C_31
REMARK   13  A    between atoms: C_30  and  C_32
REMARK   14  A    between atoms: C_30  and  C_33
REMARK                            x       y       z     vdW  Elec       q    Type
REMARK                         _______ _______ _______ _____ _____    ______ ____
ROOT
ATOM      1  C   UNL     1       2.069   7.701  19.249  0.00  0.00    +0.000 A 
ATOM      2  C   UNL     1       1.526   6.411  19.191  0.00  0.00    +0.000 A 
ATOM      3  C   UNL     1       2.127   5.426  18.405  0.00  0.00    +0.000 A 
ATOM      4  C   UNL     1       3.258   5.730  17.639  0.00  0.00    +0.000 A 
ATOM      5  C   UNL     1       3.803   7.024  17.688  0.00  0.00    +0.000 A 
ATOM      6  C   UNL     1       3.248   7.978  18.553  0.00  0.00    +0.000 A 
ATOM      7  C   UNL     1       4.999   7.375  16.834  0.00  0.00    +0.000 C 
ATOM      8  C   UNL     1       6.255   6.672  17.349  0.00  0.00    +0.000 C 
ATOM      9  C   UNL     1       6.340   5.204  16.898  0.00  0.00    +0.000 C 
ATOM     10  O   UNL     1       7.386   4.729  16.450  0.00  0.00    +0.000 OA
ATOM     11  N   UNL     1       5.273   4.381  17.226  0.00  0.00    +0.000 N 
ATOM     12  C   UNL     1       3.915   4.679  16.790  0.00  0.00    +0.000 C 
ENDROOT
BRANCH   1  15
ATOM     13  C   UNL     1      -0.262  10.511  20.360  0.00  0.00    +0.000 C 
ATOM     14  N   UNL     1       0.430   9.608  19.447  0.00  0.00    +0.000 N 
ATOM     15  C   UNL     1       1.331   8.717  20.046  0.00  0.00    +0.000 C 
ATOM     16  O   UNL     1       1.497   8.687  21.268  0.00  0.00    +0.000 OA
BRANCH  14  17
ATOM     17  C   UNL     1       0.059   9.690  18.029  0.00  0.00    +0.000 C 
BRANCH  17  18
ATOM     18  C   UNL     1      -1.253  10.426  17.747  0.00  0.00    +0.000 C 
BRANCH  18  19
ATOM     19  C   UNL     1      -2.298   9.519  17.063  0.00  0.00    +0.000 C 
ATOM     20  C   UNL     1      -2.593   9.932  15.613  0.00  0.00    +0.000 C 
ATOM     21  C   UNL     1      -3.332  11.268  15.553  0.00  0.00    +0.000 C 
ATOM     22  N   UNL     1      -4.580  11.223  16.315  0.00  0.00    +0.000 NA
ATOM     23  C   UNL     1      -4.355  10.860  17.717  0.00  0.00    +0.000 C 
ATOM     24  C   UNL     1      -3.620   9.522  17.849  0.00  0.00    +0.000 C 
ATOM     25  H   UNL     1      -5.196  10.528  15.894  0.00  0.00    +0.000 HD
ENDBRANCH  18  19
ENDBRANCH  17  18
ENDBRANCH  14  17
ENDBRANCH   1  15
BRANCH   8  26
ATOM     26  C   UNL     1       7.538   7.404  16.910  0.00  0.00    +0.000 C 
BRANCH  26  27
ATOM     27  C   UNL     1       8.101   8.320  17.970  0.00  0.00    +0.000 C 
ATOM     28  O   UNL     1       8.076   9.540  17.939  0.00  0.00    +0.000 OA
BRANCH  27  29
ATOM     29  O   UNL     1       8.673   7.637  18.988  0.00  0.00    +0.000 OA
ATOM     30  H   UNL     1       9.600   7.382  18.819  0.00  0.00    +0.000 HD
ENDBRANCH  27  29
ENDBRANCH  26  27
ENDBRANCH   8  26
BRANCH  11  31
ATOM     31  C   UNL     1       5.470   3.468  18.348  0.00  0.00    +0.000 C 
BRANCH  31  32
ATOM     32  C   UNL     1       4.525   3.737  19.524  0.00  0.00    +0.000 C 
BRANCH  32  33
ATOM     33  C   UNL     1       3.731   2.503  20.032  0.00  0.00    +0.000 C 
ATOM     34  C   UNL     1       4.645   1.524  20.789  0.00  0.00    +0.000 C 
ATOM     35  C   UNL     1       2.643   3.000  21.005  0.00  0.00    +0.000 C 
ATOM     36  C   UNL     1       3.046   1.763  18.872  0.00  0.00    +0.000 C 
ENDBRANCH  32  33
ENDBRANCH  31  32
ENDBRANCH  11  31
TORSDOF 10
ENDMDL
MODEL 3
REMARK VINA RESULT:      -7.4      3.463      9.512
REMARK  Name = 
REMARK  14 active torsions:
REMARK  status: ('A' for Active; 'I' for Inactive)
REMARK    1  A    between atoms: C_1  and  N_2
REMARK    2  A    between atoms: N_2  and  C_3
REMARK    3  A    between atoms: C_3  and  C_4
REMARK    4  A    between atoms: C_4  and  C_5
REMARK    5  A    between atoms: C_11  and  C_13
REMARK    6  A    between atoms: C_20  and  C_21
REMARK    7  A    between atoms: C_21  and  C_22
REMARK    8  A    between atoms: C_22  and  O_24
REMARK    9  A    between atoms: N_27  and  C_28
REMARK   10  A    between atoms: C_28  and  C_29
REMARK   11  A    between atoms: C_29  and  C_30
REMARK   12  A    between atoms: C_30  and  C_31
REMARK   13  A    between atoms: C_30  and  C_32
REMARK   14  A    between atoms: C_30  and  C_33
REMARK                            x       y       z     vdW  Elec       q    Type
REMARK                         _______ _______ _______ _____ _____    ______ ____
ROOT
ATOM      1  C   UNL     1       1.828   7.629  19.601  0.00  0.00    +0.000 A 
ATOM      2  C   UNL     1       2.368   8.098  18.397  0.00  0.00    +0.000 A 
ATOM      3  C   UNL     1       2.035   9.366  17.919  0.00  0.00    +0.000 A 
ATOM      4  C   UNL     1       1.127  10.166  18.622  0.00  0.00    +0.000 A 
ATOM      5  C   UNL     1       0.577   9.699  19.827  0.00  0.00    +0.000 A 
ATOM      6  C   UNL     1       0.992   8.464  20.346  0.00  0.00    +0.000 A 
ATOM      7  C   UNL     1      -0.435  10.537  20.574  0.00  0.00    +0.000 C 
ATOM      8  C   UNL     1       0.232  11.767  21.190  0.00  0.00    +0.000 C 
ATOM      9  C   UNL     1       0.447  12.898  20.171  0.00  0.00    +0.000 C 
ATOM     10  O   UNL     1       0.165  14.068  20.441  0.00  0.00    +0.000 OA
ATOM     11  N   UNL     1       1.176  12.592  19.032  0.00  0.00    +0.000 N 
ATOM     12  C   UNL     1       0.761  11.535  18.120  0.00  0.00    +0.000 C 
ENDROOT
BRANCH   1  15
ATOM     13  C   UNL     1       3.540   4.246  20.031  0.00  0.00    +0.000 C 
ATOM     14  N   UNL     1       3.301   5.583  19.502  0.00  0.00    +0.000 N 
ATOM     15  C   UNL     1       2.169   6.239  20.007  0.00  0.00    +0.000 C 
ATOM     16  O   UNL     1       1.449   5.721  20.864  0.00  0.00    +0.000 OA
BRANCH  14  17
ATOM     17  C   UNL     1       4.297   6.110  18.561  0.00  0.00    +0.000 C 
BRANCH  17  18
ATOM     18  C   UNL     1       4.280   5.463  17.174  0.00  0.00    +0.000 C 
BRANCH  18  19
ATOM     19  C   UNL     1       5.286   6.124  16.207  0.00  0.00    +0.000 C 
ATOM     20  C   UNL     1       5.674   5.215  15.032  0.00  0.00    +0.000 C 
ATOM     21  C   UNL     1       6.509   4.024  15.501  0.00  0.00    +0.000 C 
ATOM     22  N   UNL     1       7.716   4.463  16.203  0.00  0.00    +0.000 NA
ATOM     23  C   UNL     1       7.404   5.314  17.354  0.00  0.00    +0.000 C 
ATOM     24  C   UNL     1       6.568   6.533  16.951  0.00  0.00    +0.000 C 
ATOM     25  H   UNL     1       8.298   4.992  15.555  0.00  0.00    +0.000 HD
ENDBRANCH  18  19
ENDBRANCH  17  18
ENDBRANCH  14  17
ENDBRANCH   1  15
BRANCH   8  26
ATOM     26  C   UNL     1      -0.574  12.315  22.383  0.00  0.00    +0.000 C 
BRANCH  26  27
ATOM     27  C   UNL     1      -1.244  11.239  23.203  0.00  0.00    +0.000 C 
ATOM     28  O   UNL     1      -0.706  10.225  23.618  0.00  0.00    +0.000 OA
BRANCH  27  29
ATOM     29  O   UNL     1      -2.551  11.505  23.430  0.00  0.00    +0.000 OA
ATOM     30  H   UNL     1      -3.148  11.164  22.736  0.00  0.00    +0.000 HD
ENDBRANCH  27  29
ENDBRANCH  26  27
ENDBRANCH   8  26
BRANCH  11  31
ATOM     31  C   UNL     1       2.561  13.050  18.997  0.00  0.00    +0.000 C 
BRANCH  31  32
ATOM     32  C   UNL     1       2.820  14.126  17.937  0.00  0.00    +0.000 C 
BRANCH  32  33
ATOM     33  C   UNL     1       3.797  15.256  18.364  0.00  0.00    +0.000 C 
ATOM     34  C   UNL     1       3.818  15.428  19.893  0.00  0.00    +0.000 C 
ATOM     35  C   UNL     1       5.215  14.862  17.903  0.00  0.00    +0.000 C 
ATOM     36  C   UNL     1       3.424  16.594  17.707  0.00  0.00    +0.000 C 
ENDBRANCH  32  33
ENDBRANCH  31  32
ENDBRANCH  11  31
TORSDOF 10
ENDMDL
MODEL 4
REMARK VINA RESULT:      -7.4      3.326      9.309
REMARK  Name = 
REMARK  14 active torsions:
REMARK  status: ('A' for Active; 'I' for Inactive)
REMARK    1  A    between atoms: C_1  and  N_2
REMARK    2  A    between atoms: N_2  and  C_3
REMARK    3  A    between atoms: C_3  and  C_4
REMARK    4  A    between atoms: C_4  and  C_5
REMARK    5  A    between atoms: C_11  and  C_13
REMARK    6  A    between atoms: C_20  and  C_21
REMARK    7  A    between atoms: C_21  and  C_22
REMARK    8  A    between atoms: C_22  and  O_24
REMARK    9  A    between atoms: N_27  and  C_28
REMARK   10  A    between atoms: C_28  and  C_29
REMARK   11  A    between atoms: C_29  and  C_30
REMARK   12  A    between atoms: C_30  and  C_31
REMARK   13  A    between atoms: C_30  and  C_32
REMARK   14  A    between atoms: C_30  and  C_33
REMARK                            x       y       z     vdW  Elec       q    Type
REMARK                         _______ _______ _______ _____ _____    ______ ____
ROOT
ATOM      1  C   UNL     1       1.946   7.434  19.582  0.00  0.00    +0.000 A 
ATOM      2  C   UNL     1       2.472   7.864  18.357  0.00  0.00    +0.000 A 
ATOM      3  C   UNL     1       2.125   9.113  17.838  0.00  0.00    +0.000 A 
ATOM      4  C   UNL     1       1.218   9.930  18.521  0.00  0.00    +0.000 A 
ATOM      5  C   UNL     1       0.682   9.502  19.747  0.00  0.00    +0.000 A 
ATOM      6  C   UNL     1       1.111   8.289  20.304  0.00  0.00    +0.000 A 
ATOM      7  C   UNL     1      -0.329  10.358  20.473  0.00  0.00    +0.000 C 
ATOM      8  C   UNL     1       0.335  11.613  21.040  0.00  0.00    +0.000 C 
ATOM      9  C   UNL     1       0.532  12.710  19.980  0.00  0.00    +0.000 C 
ATOM     10  O   UNL     1       0.245  13.887  20.212  0.00  0.00    +0.000 OA
ATOM     11  N   UNL     1       1.253  12.369  18.845  0.00  0.00    +0.000 N 
ATOM     12  C   UNL     1       0.838  11.278  17.975  0.00  0.00    +0.000 C 
ENDROOT
BRANCH   1  15
ATOM     13  C   UNL     1       3.225   3.843  19.756  0.00  0.00    +0.000 C 
ATOM     14  N   UNL     1       2.880   5.128  19.161  0.00  0.00    +0.000 N 
ATOM     15  C   UNL     1       2.301   6.062  20.033  0.00  0.00    +0.000 C 
ATOM     16  O   UNL     1       2.127   5.811  21.228  0.00  0.00    +0.000 OA
BRANCH  14  17
ATOM     17  C   UNL     1       3.236   5.321  17.750  0.00  0.00    +0.000 C 
BRANCH  17  18
ATOM     18  C   UNL     1       4.287   4.346  17.211  0.00  0.00    +0.000 C 
BRANCH  18  19
ATOM     19  C   UNL     1       4.957   4.863  15.920  0.00  0.00    +0.000 C 
ATOM     20  C   UNL     1       6.336   4.235  15.668  0.00  0.00    +0.000 C 
ATOM     21  C   UNL     1       7.360   4.707  16.698  0.00  0.00    +0.000 C 
ATOM     22  N   UNL     1       7.478   6.165  16.704  0.00  0.00    +0.000 NA
ATOM     23  C   UNL     1       6.194   6.820  16.969  0.00  0.00    +0.000 C 
ATOM     24  C   UNL     1       5.119   6.392  15.964  0.00  0.00    +0.000 C 
ATOM     25  H   UNL     1       7.817   6.471  15.793  0.00  0.00    +0.000 HD
ENDBRANCH  18  19
ENDBRANCH  17  18
ENDBRANCH  14  17
ENDBRANCH   1  15
BRANCH   8  26
ATOM     26  C   UNL     1      -0.465  12.198  22.220  0.00  0.00    +0.000 C 
BRANCH  26  27
ATOM     27  C   UNL     1      -1.069  11.145  23.118  0.00  0.00    +0.000 C 
ATOM     28  O   UNL     1      -2.245  11.075  23.438  0.00  0.00    +0.000 OA
BRANCH  27  29
ATOM     29  O   UNL     1      -0.147  10.262  23.566  0.00  0.00    +0.000 OA
ATOM     30  H   UNL     1       0.553  10.061  22.915  0.00  0.00    +0.000 HD
ENDBRANCH  27  29
ENDBRANCH  26  27
ENDBRANCH   8  26
BRANCH  11  31
ATOM     31  C   UNL     1       2.635  12.836  18.782  0.00  0.00    +0.000 C 
BRANCH  31  32
ATOM     32  C   UNL     1       2.836  14.014  17.823  0.00  0.00    +0.000 C 
BRANCH  32  33
ATOM     33  C   UNL     1       3.779  15.135  18.339  0.00  0.00    +0.000 C 
ATOM     34  C   UNL     1       3.331  16.517  17.834  0.00  0.00    +0.000 C 
ATOM     35  C   UNL     1       3.719  15.141  19.880  0.00  0.00    +0.000 C 
ATOM     36  C   UNL     1       5.233  14.884  17.909  0.00  0.00    +0.000 C 
ENDBRANCH  32  33
ENDBRANCH  31  32
ENDBRANCH  11  31
TORSDOF 10
ENDMDL
MODEL 5
REMARK VINA RESULT:      -7.4      2.603      4.724
REMARK  Name = 
REMARK  14 active torsions:
REMARK  status: ('A' for Active; 'I' for Inactive)
REMARK    1  A    between atoms: C_1  and  N_2
REMARK    2  A    between atoms: N_2  and  C_3
REMARK    3  A    between atoms: C_3  and  C_4
REMARK    4  A    between atoms: C_4  and  C_5
REMARK    5  A    between atoms: C_11  and  C_13
REMARK    6  A    between atoms: C_20  and  C_21
REMARK    7  A    between atoms: C_21  and  C_22
REMARK    8  A    between atoms: C_22  and  O_24
REMARK    9  A    between atoms: N_27  and  C_28
REMARK   10  A    between atoms: C_28  and  C_29
REMARK   11  A    between atoms: C_29  and  C_30
REMARK   12  A    between atoms: C_30  and  C_31
REMARK   13  A    between atoms: C_30  and  C_32
REMARK   14  A    between atoms: C_30  and  C_33
REMARK                            x       y       z     vdW  Elec       q    Type
REMARK                         _______ _______ _______ _____ _____    ______ ____
ROOT
ATOM      1  C   UNL     1       1.636   8.440  19.706  0.00  0.00    +0.000 A 
ATOM      2  C   UNL     1       2.671   8.692  18.795  0.00  0.00    +0.000 A 
ATOM      3  C   UNL     1       3.578   7.687  18.459  0.00  0.00    +0.000 A 
ATOM      4  C   UNL     1       3.484   6.426  19.060  0.00  0.00    +0.000 A 
ATOM      5  C   UNL     1       2.453   6.169  19.979  0.00  0.00    +0.000 A 
ATOM      6  C   UNL     1       1.491   7.156  20.236  0.00  0.00    +0.000 A 
ATOM      7  C   UNL     1       2.366   4.824  20.664  0.00  0.00    +0.000 C 
ATOM      8  C   UNL     1       1.946   3.740  19.672  0.00  0.00    +0.000 C 
ATOM      9  C   UNL     1       3.115   3.244  18.804  0.00  0.00    +0.000 C 
ATOM     10  O   UNL     1       3.306   2.041  18.610  0.00  0.00    +0.000 OA
ATOM     11  N   UNL     1       3.803   4.197  18.068  0.00  0.00    +0.000 N 
ATOM     12  C   UNL     1       4.454   5.333  18.706  0.00  0.00    +0.000 C 
ENDROOT
BRANCH   1  15
ATOM     13  C   UNL     1      -1.014  11.185  19.686  0.00  0.00    +0.000 C 
ATOM     14  N   UNL     1      -0.182  10.104  19.170  0.00  0.00    +0.000 N 
ATOM     15  C   UNL     1       0.756   9.581  20.072  0.00  0.00    +0.000 C 
ATOM     16  O   UNL     1       0.841   9.995  21.231  0.00  0.00    +0.000 OA
BRANCH  14  17
ATOM     17  C   UNL     1      -0.463   9.647  17.804  0.00  0.00    +0.000 C 
BRANCH  17  18
ATOM     18  C   UNL     1      -1.538  10.449  17.064  0.00  0.00    +0.000 C 
BRANCH  18  19
ATOM     19  C   UNL     1      -2.755   9.581  16.680  0.00  0.00    +0.000 C 
ATOM     20  C   UNL     1      -3.454  10.062  15.400  0.00  0.00    +0.000 C 
ATOM     21  C   UNL     1      -4.152  11.403  15.616  0.00  0.00    +0.000 C 
ATOM     22  N   UNL     1      -5.123  11.330  16.709  0.00  0.00    +0.000 NA
ATOM     23  C   UNL     1      -4.503  10.901  17.967  0.00  0.00    +0.000 C 
ATOM     24  C   UNL     1      -3.788   9.555  17.819  0.00  0.00    +0.000 C 
ATOM     25  H   UNL     1      -5.848  10.660  16.459  0.00  0.00    +0.000 HD
ENDBRANCH  18  19
ENDBRANCH  17  18
ENDBRANCH  14  17
ENDBRANCH   1  15
BRANCH   8  26
ATOM     26  C   UNL     1       1.306   2.532  20.384  0.00  0.00    +0.000 C 
BRANCH  26  27
ATOM     27  C   UNL     1       1.780   2.352  21.806  0.00  0.00    +0.000 C 
ATOM     28  O   UNL     1       2.935   2.158  22.150  0.00  0.00    +0.000 OA
BRANCH  27  29
ATOM     29  O   UNL     1       0.764   2.411  22.697  0.00  0.00    +0.000 OA
ATOM     30  H   UNL     1       0.401   1.537  22.938  0.00  0.00    +0.000 HD
ENDBRANCH  27  29
ENDBRANCH  26  27
ENDBRANCH   8  26
BRANCH  11  31
ATOM     31  C   UNL     1       3.502   4.266  16.642  0.00  0.00    +0.000 C 
BRANCH  31  32
ATOM     32  C   UNL     1       4.561   3.593  15.763  0.00  0.00    +0.000 C 
BRANCH  32  33
ATOM     33  C   UNL     1       5.678   4.533  15.233  0.00  0.00    +0.000 C 
ATOM     34  C   UNL     1       5.223   6.003  15.245  0.00  0.00    +0.000 C 
ATOM     35  C   UNL     1       6.900   4.398  16.164  0.00  0.00    +0.000 C 
ATOM     36  C   UNL     1       6.105   4.145  13.808  0.00  0.00    +0.000 C 
ENDBRANCH  32  33
ENDBRANCH  31  32
ENDBRANCH  11  31
TORSDOF 10
ENDMDL
MODEL 6
REMARK VINA RESULT:      -7.4      2.924      5.767
REMARK  Name = 
REMARK  14 active torsions:
REMARK  status: ('A' for Active; 'I' for Inactive)
REMARK    1  A    between atoms: C_1  and  N_2
REMARK    2  A    between atoms: N_2  and  C_3
REMARK    3  A    between atoms: C_3  and  C_4
REMARK    4  A    between atoms: C_4  and  C_5
REMARK    5  A    between atoms: C_11  and  C_13
REMARK    6  A    between atoms: C_20  and  C_21
REMARK    7  A    between atoms: C_21  and  C_22
REMARK    8  A    between atoms: C_22  and  O_24
REMARK    9  A    between atoms: N_27  and  C_28
REMARK   10  A    between atoms: C_28  and  C_29
REMARK   11  A    between atoms: C_29  and  C_30
REMARK   12  A    between atoms: C_30  and  C_31
REMARK   13  A    between atoms: C_30  and  C_32
REMARK   14  A    between atoms: C_30  and  C_33
REMARK                            x       y       z     vdW  Elec       q    Type
REMARK                         _______ _______ _______ _____ _____    ______ ____
ROOT
ATOM      1  C   UNL     1       1.005   9.175  18.573  0.00  0.00    +0.000 A 
ATOM      2  C   UNL     1       1.905   9.255  17.502  0.00  0.00    +0.000 A 
ATOM      3  C   UNL     1       3.013   8.409  17.445  0.00  0.00    +0.000 A 
ATOM      4  C   UNL     1       3.255   7.497  18.478  0.00  0.00    +0.000 A 
ATOM      5  C   UNL     1       2.359   7.416  19.558  0.00  0.00    +0.000 A 
ATOM      6  C   UNL     1       1.200   8.203  19.557  0.00  0.00    +0.000 A 
ATOM      7  C   UNL     1       2.632   6.463  20.699  0.00  0.00    +0.000 C 
ATOM      8  C   UNL     1       2.444   5.014  20.249  0.00  0.00    +0.000 C 
ATOM      9  C   UNL     1       3.658   4.469  19.478  0.00  0.00    +0.000 C 
ATOM     10  O   UNL     1       4.126   3.355  19.721  0.00  0.00    +0.000 OA
ATOM     11  N   UNL     1       4.060   5.175  18.354  0.00  0.00    +0.000 N 
ATOM     12  C   UNL     1       4.444   6.578  18.429  0.00  0.00    +0.000 C 
ENDROOT
BRANCH   1  15
ATOM     13  C   UNL     1      -1.128  12.288  19.137  0.00  0.00    +0.000 C 
ATOM     14  N   UNL     1       0.027  11.404  19.235  0.00  0.00    +0.000 N 
ATOM     15  C   UNL     1      -0.109  10.160  18.603  0.00  0.00    +0.000 C 
ATOM     16  O   UNL     1      -1.132   9.856  17.984  0.00  0.00    +0.000 OA
BRANCH  14  17
ATOM     17  C   UNL     1       1.212  11.937  19.918  0.00  0.00    +0.000 C 
BRANCH  17  18
ATOM     18  C   UNL     1       2.161  12.744  19.028  0.00  0.00    +0.000 C 
BRANCH  18  19
ATOM     19  C   UNL     1       2.770  13.954  19.767  0.00  0.00    +0.000 C 
ATOM     20  C   UNL     1       1.733  15.036  20.102  0.00  0.00    +0.000 C 
ATOM     21  C   UNL     1       1.226  15.732  18.840  0.00  0.00    +0.000 C 
ATOM     22  N   UNL     1       2.327  16.325  18.079  0.00  0.00    +0.000 NA
ATOM     23  C   UNL     1       3.336  15.330  17.707  0.00  0.00    +0.000 C 
ATOM     24  C   UNL     1       3.891  14.596  18.932  0.00  0.00    +0.000 C 
ATOM     25  H   UNL     1       2.772  17.042  18.651  0.00  0.00    +0.000 HD
ENDBRANCH  18  19
ENDBRANCH  17  18
ENDBRANCH  14  17
ENDBRANCH   1  15
BRANCH   8  26
ATOM     26  C   UNL     1       2.149   4.081  21.439  0.00  0.00    +0.000 C 
BRANCH  26  27
ATOM     27  C   UNL     1       1.157   2.990  21.117  0.00  0.00    +0.000 C 
ATOM     28  O   UNL     1       0.668   2.777  20.019  0.00  0.00    +0.000 OA
BRANCH  27  29
ATOM     29  O   UNL     1       0.835   2.251  22.204  0.00  0.00    +0.000 OA
ATOM     30  H   UNL     1       0.435   1.386  21.988  0.00  0.00    +0.000 HD
ENDBRANCH  27  29
ENDBRANCH  26  27
ENDBRANCH   8  26
BRANCH  11  31
ATOM     31  C   UNL     1       3.688   4.613  17.060  0.00  0.00    +0.000 C 
BRANCH  31  32
ATOM     32  C   UNL     1       4.789   3.756  16.428  0.00  0.00    +0.000 C 
BRANCH  32  33
ATOM     33  C   UNL     1       5.867   4.541  15.633  0.00  0.00    +0.000 C 
ATOM     34  C   UNL     1       6.222   3.826  14.317  0.00  0.00    +0.000 C 
ATOM     35  C   UNL     1       5.291   5.929  15.287  0.00  0.00    +0.000 C 
ATOM     36  C   UNL     1       7.144   4.736  16.465  0.00  0.00    +0.000 C 
ENDBRANCH  32  33
ENDBRANCH  31  32
ENDBRANCH  11  31
TORSDOF 10
ENDMDL
MODEL 7
REMARK VINA RESULT:      -7.3      5.595      8.454
REMARK  Name = 
REMARK  14 active torsions:
REMARK  status: ('A' for Active; 'I' for Inactive)
REMARK    1  A    between atoms: C_1  and  N_2
REMARK    2  A    between atoms: N_2  and  C_3
REMARK    3  A    between atoms: C_3  and  C_4
REMARK    4  A    between atoms: C_4  and  C_5
REMARK    5  A    between atoms: C_11  and  C_13
REMARK    6  A    between atoms: C_20  and  C_21
REMARK    7  A    between atoms: C_21  and  C_22
REMARK    8  A    between atoms: C_22  and  O_24
REMARK    9  A    between atoms: N_27  and  C_28
REMARK   10  A    between atoms: C_28  and  C_29
REMARK   11  A    between atoms: C_29  and  C_30
REMARK   12  A    between atoms: C_30  and  C_31
REMARK   13  A    between atoms: C_30  and  C_32
REMARK   14  A    between atoms: C_30  and  C_33
REMARK                            x       y       z     vdW  Elec       q    Type
REMARK                         _______ _______ _______ _____ _____    ______ ____
ROOT
ATOM      1  C   UNL     1      -0.113  15.723  21.938  0.00  0.00    +0.000 A 
ATOM      2  C   UNL     1      -0.627  16.154  20.708  0.00  0.00    +0.000 A 
ATOM      3  C   UNL     1      -0.527  15.344  19.576  0.00  0.00    +0.000 A 
ATOM      4  C   UNL     1       0.123  14.107  19.653  0.00  0.00    +0.000 A 
ATOM      5  C   UNL     1       0.646  13.671  20.882  0.00  0.00    +0.000 A 
ATOM      6  C   UNL     1       0.456  14.450  22.032  0.00  0.00    +0.000 A 
ATOM      7  C   UNL     1       1.385  12.356  20.968  0.00  0.00    +0.000 C 
ATOM      8  C   UNL     1       0.420  11.182  20.801  0.00  0.00    +0.000 C 
ATOM      9  C   UNL     1       0.066  10.910  19.329  0.00  0.00    +0.000 C 
ATOM     10  O   UNL     1       0.068   9.766  18.869  0.00  0.00    +0.000 OA
ATOM     11  N   UNL     1      -0.474  11.962  18.605  0.00  0.00    +0.000 N 
ATOM     12  C   UNL     1       0.236  13.223  18.442  0.00  0.00    +0.000 C 
ENDROOT
BRANCH   1  15
ATOM     13  C   UNL     1      -0.774  17.337  25.332  0.00  0.00    +0.000 C 
ATOM     14  N   UNL     1      -0.826  16.328  24.281  0.00  0.00    +0.000 N 
ATOM     15  C   UNL     1      -0.189  16.672  23.080  0.00  0.00    +0.000 C 
ATOM     16  O   UNL     1       0.399  17.748  22.944  0.00  0.00    +0.000 OA
BRANCH  14  17
ATOM     17  C   UNL     1      -1.474  15.054  24.619  0.00  0.00    +0.000 C 
BRANCH  17  18
ATOM     18  C   UNL     1      -2.703  14.712  23.772  0.00  0.00    +0.000 C 
BRANCH  18  19
ATOM     19  C   UNL     1      -2.703  13.240  23.309  0.00  0.00    +0.000 C 
ATOM     20  C   UNL     1      -3.025  13.082  21.815  0.00  0.00    +0.000 C 
ATOM     21  C   UNL     1      -4.478  13.447  21.516  0.00  0.00    +0.000 C 
ATOM     22  N   UNL     1      -5.406  12.638  22.307  0.00  0.00    +0.000 NA
ATOM     23  C   UNL     1      -5.162  12.772  23.746  0.00  0.00    +0.000 C 
ATOM     24  C   UNL     1      -3.719  12.414  24.116  0.00  0.00    +0.000 C 
ATOM     25  H   UNL     1      -5.290  11.659  22.047  0.00  0.00    +0.000 HD
ENDBRANCH  18  19
ENDBRANCH  17  18
ENDBRANCH  14  17
ENDBRANCH   1  15
BRANCH   8  26
ATOM     26  C   UNL     1       0.979   9.891  21.427  0.00  0.00    +0.000 C 
BRANCH  26  27
ATOM     27  C   UNL     1       0.148   9.369  22.574  0.00  0.00    +0.000 C 
ATOM     28  O   UNL     1       0.236   9.730  23.737  0.00  0.00    +0.000 OA
BRANCH  27  29
ATOM     29  O   UNL     1      -0.727   8.414  22.182  0.00  0.00    +0.000 OA
ATOM     30  H   UNL     1      -0.813   8.334  21.212  0.00  0.00    +0.000 HD
ENDBRANCH  27  29
ENDBRANCH  26  27
ENDBRANCH   8  26
BRANCH  11  31
ATOM     31  C   UNL     1      -1.916  11.931  18.379  0.00  0.00    +0.000 C 
BRANCH  31  32
ATOM     32  C   UNL     1      -2.298  11.672  16.918  0.00  0.00    +0.000 C 
BRANCH  32  33
ATOM     33  C   UNL     1      -3.451  10.653  16.704  0.00  0.00    +0.000 C 
ATOM     34  C   UNL     1      -4.825  11.312  16.918  0.00  0.00    +0.000 C 
ATOM     35  C   UNL     1      -3.379  10.147  15.250  0.00  0.00    +0.000 C 
ATOM     36  C   UNL     1      -3.314   9.448  17.648  0.00  0.00    +0.000 C 
ENDBRANCH  32  33
ENDBRANCH  31  32
ENDBRANCH  11  31
TORSDOF 10
ENDMDL
MODEL 8
REMARK VINA RESULT:      -7.3      2.807      5.552
REMARK  Name = 
REMARK  14 active torsions:
REMARK  status: ('A' for Active; 'I' for Inactive)
REMARK    1  A    between atoms: C_1  and  N_2
REMARK    2  A    between atoms: N_2  and  C_3
REMARK    3  A    between atoms: C_3  and  C_4
REMARK    4  A    between atoms: C_4  and  C_5
REMARK    5  A    between atoms: C_11  and  C_13
REMARK    6  A    between atoms: C_20  and  C_21
REMARK    7  A    between atoms: C_21  and  C_22
REMARK    8  A    between atoms: C_22  and  O_24
REMARK    9  A    between atoms: N_27  and  C_28
REMARK   10  A    between atoms: C_28  and  C_29
REMARK   11  A    between atoms: C_29  and  C_30
REMARK   12  A    between atoms: C_30  and  C_31
REMARK   13  A    between atoms: C_30  and  C_32
REMARK   14  A    between atoms: C_30  and  C_33
REMARK                            x       y       z     vdW  Elec       q    Type
REMARK                         _______ _______ _______ _____ _____    ______ ____
ROOT
ATOM      1  C   UNL     1       0.651   9.211  18.785  0.00  0.00    +0.000 A 
ATOM      2  C   UNL     1       1.503   9.367  17.684  0.00  0.00    +0.000 A 
ATOM      3  C   UNL     1       2.661   8.597  17.570  0.00  0.00    +0.000 A 
ATOM      4  C   UNL     1       3.001   7.687  18.577  0.00  0.00    +0.000 A 
ATOM      5  C   UNL     1       2.155   7.530  19.688  0.00  0.00    +0.000 A 
ATOM      6  C   UNL     1       0.947   8.240  19.744  0.00  0.00    +0.000 A 
ATOM      7  C   UNL     1       2.532   6.581  20.801  0.00  0.00    +0.000 C 
ATOM      8  C   UNL     1       2.422   5.129  20.333  0.00  0.00    +0.000 C 
ATOM      9  C   UNL     1       3.639   4.678  19.508  0.00  0.00    +0.000 C 
ATOM     10  O   UNL     1       4.188   3.593  19.714  0.00  0.00    +0.000 OA
ATOM     11  N   UNL     1       3.951   5.426  18.382  0.00  0.00    +0.000 N 
ATOM     12  C   UNL     1       4.245   6.850  18.467  0.00  0.00    +0.000 C 
ENDROOT
BRANCH   1  15
ATOM     13  C   UNL     1      -1.766  12.001  19.753  0.00  0.00    +0.000 C 
ATOM     14  N   UNL     1      -0.580  11.156  19.819  0.00  0.00    +0.000 N 
ATOM     15  C   UNL     1      -0.523  10.120  18.875  0.00  0.00    +0.000 C 
ATOM     16  O   UNL     1      -1.408   9.963  18.031  0.00  0.00    +0.000 OA
BRANCH  14  17
ATOM     17  C   UNL     1       0.439  11.522  20.810  0.00  0.00    +0.000 C 
BRANCH  17  18
ATOM     18  C   UNL     1       1.617  12.328  20.255  0.00  0.00    +0.000 C 
BRANCH  18  19
ATOM     19  C   UNL     1       1.223  13.168  19.021  0.00  0.00    +0.000 C 
ATOM     20  C   UNL     1       2.349  13.272  17.982  0.00  0.00    +0.000 C 
ATOM     21  C   UNL     1       3.513  14.112  18.504  0.00  0.00    +0.000 C 
ATOM     22  N   UNL     1       3.073  15.454  18.890  0.00  0.00    +0.000 NA
ATOM     23  C   UNL     1       2.015  15.415  19.903  0.00  0.00    +0.000 C 
ATOM     24  C   UNL     1       0.811  14.589  19.438  0.00  0.00    +0.000 C 
ATOM     25  H   UNL     1       2.715  15.931  18.063  0.00  0.00    +0.000 HD
ENDBRANCH  18  19
ENDBRANCH  17  18
ENDBRANCH  14  17
ENDBRANCH   1  15
BRANCH   8  26
ATOM     26  C   UNL     1       2.235   4.161  21.516  0.00  0.00    +0.000 C 
BRANCH  26  27
ATOM     27  C   UNL     1       1.312   3.006  21.209  0.00  0.00    +0.000 C 
ATOM     28  O   UNL     1       0.755   2.808  20.141  0.00  0.00    +0.000 OA
BRANCH  27  29
ATOM     29  O   UNL     1       1.139   2.189  22.274  0.00  0.00    +0.000 OA
ATOM     30  H   UNL     1       0.210   1.930  22.423  0.00  0.00    +0.000 HD
ENDBRANCH  27  29
ENDBRANCH  26  27
ENDBRANCH   8  26
BRANCH  11  31
ATOM     31  C   UNL     1       3.566   4.860  17.093  0.00  0.00    +0.000 C 
BRANCH  31  32
ATOM     32  C   UNL     1       4.629   3.934  16.493  0.00  0.00    +0.000 C 
BRANCH  32  33
ATOM     33  C   UNL     1       5.748   4.644  15.682  0.00  0.00    +0.000 C 
ATOM     34  C   UNL     1       5.337   6.077  15.302  0.00  0.00    +0.000 C 
ATOM     35  C   UNL     1       7.007   4.722  16.569  0.00  0.00    +0.000 C 
ATOM     36  C   UNL     1       6.096   3.861  14.407  0.00  0.00    +0.000 C 
ENDBRANCH  32  33
ENDBRANCH  31  32
ENDBRANCH  11  31
TORSDOF 10
ENDMDL
MODEL 9
REMARK VINA RESULT:      -7.3      1.110      1.708
REMARK  Name = 
REMARK  14 active torsions:
REMARK  status: ('A' for Active; 'I' for Inactive)
REMARK    1  A    between atoms: C_1  and  N_2
REMARK    2  A    between atoms: N_2  and  C_3
REMARK    3  A    between atoms: C_3  and  C_4
REMARK    4  A    between atoms: C_4  and  C_5
REMARK    5  A    between atoms: C_11  and  C_13
REMARK    6  A    between atoms: C_20  and  C_21
REMARK    7  A    between atoms: C_21  and  C_22
REMARK    8  A    between atoms: C_22  and  O_24
REMARK    9  A    between atoms: N_27  and  C_28
REMARK   10  A    between atoms: C_28  and  C_29
REMARK   11  A    between atoms: C_29  and  C_30
REMARK   12  A    between atoms: C_30  and  C_31
REMARK   13  A    between atoms: C_30  and  C_32
REMARK   14  A    between atoms: C_30  and  C_33
REMARK                            x       y       z     vdW  Elec       q    Type
REMARK                         _______ _______ _______ _____ _____    ______ ____
ROOT
ATOM      1  C   UNL     1       1.770  10.481  18.597  0.00  0.00    +0.000 A 
ATOM      2  C   UNL     1       0.867   9.734  19.365  0.00  0.00    +0.000 A 
ATOM      3  C   UNL     1       0.854   8.341  19.285  0.00  0.00    +0.000 A 
ATOM      4  C   UNL     1       1.720   7.680  18.406  0.00  0.00    +0.000 A 
ATOM      5  C   UNL     1       2.623   8.424  17.628  0.00  0.00    +0.000 A 
ATOM      6  C   UNL     1       2.692   9.815  17.788  0.00  0.00    +0.000 A 
ATOM      7  C   UNL     1       3.534   7.724  16.646  0.00  0.00    +0.000 C 
ATOM      8  C   UNL     1       4.607   6.923  17.383  0.00  0.00    +0.000 C 
ATOM      9  C   UNL     1       4.089   5.569  17.897  0.00  0.00    +0.000 C 
ATOM     10  O   UNL     1       4.740   4.533  17.746  0.00  0.00    +0.000 OA
ATOM     11  N   UNL     1       2.982   5.594  18.732  0.00  0.00    +0.000 N 
ATOM     12  C   UNL     1       1.718   6.180  18.310  0.00  0.00    +0.000 C 
ENDROOT
BRANCH   1  15
ATOM     13  C   UNL     1       0.516  14.059  19.031  0.00  0.00    +0.000 C 
ATOM     14  N   UNL     1       0.450  12.607  18.921  0.00  0.00    +0.000 N 
ATOM     15  C   UNL     1       1.672  11.963  18.680  0.00  0.00    +0.000 C 
ATOM     16  O   UNL     1       2.730  12.592  18.598  0.00  0.00    +0.000 OA
BRANCH  14  17
ATOM     17  C   UNL     1      -0.862  11.986  19.140  0.00  0.00    +0.000 C 
BRANCH  17  18
ATOM     18  C   UNL     1      -1.741  11.879  17.890  0.00  0.00    +0.000 C 
BRANCH  18  19
ATOM     19  C   UNL     1      -2.475  10.524  17.805  0.00  0.00    +0.000 C 
ATOM     20  C   UNL     1      -2.204   9.777  16.491  0.00  0.00    +0.000 C 
ATOM     21  C   UNL     1      -2.843  10.492  15.301  0.00  0.00    +0.000 C 
ATOM     22  N   UNL     1      -4.285  10.654  15.487  0.00  0.00    +0.000 NA
ATOM     23  C   UNL     1      -4.603  11.387  16.716  0.00  0.00    +0.000 C 
ATOM     24  C   UNL     1      -3.994  10.717  17.952  0.00  0.00    +0.000 C 
ATOM     25  H   UNL     1      -4.715   9.731  15.539  0.00  0.00    +0.000 HD
ENDBRANCH  18  19
ENDBRANCH  17  18
ENDBRANCH  14  17
ENDBRANCH   1  15
BRANCH   8  26
ATOM     26  C   UNL     1       5.845   6.680  16.498  0.00  0.00    +0.000 C 
BRANCH  26  27
ATOM     27  C   UNL     1       7.146   6.701  17.263  0.00  0.00    +0.000 C 
ATOM     28  O   UNL     1       7.685   7.697  17.719  0.00  0.00    +0.000 OA
BRANCH  27  29
ATOM     29  O   UNL     1       7.689   5.468  17.387  0.00  0.00    +0.000 OA
ATOM     30  H   UNL     1       8.542   5.366  16.920  0.00  0.00    +0.000 HD
ENDBRANCH  27  29
ENDBRANCH  26  27
ENDBRANCH   8  26
BRANCH  11  31
ATOM     31  C   UNL     1       3.234   5.411  20.159  0.00  0.00    +0.000 C 
BRANCH  31  32
ATOM     32  C   UNL     1       2.069   4.749  20.902  0.00  0.00    +0.000 C 
BRANCH  32  33
ATOM     33  C   UNL     1       1.967   3.208  20.738  0.00  0.00    +0.000 C 
ATOM     34  C   UNL     1       1.520   2.536  22.047  0.00  0.00    +0.000 C 
ATOM     35  C   UNL     1       0.908   2.911  19.656  0.00  0.00    +0.000 C 
ATOM     36  C   UNL     1       3.306   2.604  20.288  0.00  0.00    +0.000 C 
ENDBRANCH  32  33
ENDBRANCH  31  32
ENDBRANCH  11  31
TORSDOF 10
ENDMDL
