MODEL 1
REMARK VINA RESULT:      -6.8      0.000      0.000
REMARK  Name = 
REMARK  3 active torsions:
REMARK  status: ('A' for Active; 'I' for Inactive)
REMARK    1  A    between atoms: C_1  and  C_2
REMARK    2  A    between atoms: C_2  and  N_3
REMARK    3  A    between atoms: C_4  and  C_6
REMARK                            x       y       z     vdW  Elec       q    Type
REMARK                         _______ _______ _______ _____ _____    ______ ____
ROOT
ATOM      1  C   UNL     1       5.092   4.350  16.807  0.00  0.00    +0.000 A 
ATOM      2  C   UNL     1       4.179   5.339  17.127  0.00  0.00    +0.000 A 
ATOM      3  C   UNL     1       3.389   4.889  18.219  0.00  0.00    +0.000 A 
ATOM      4  C   UNL     1       2.341   5.463  18.962  0.00  0.00    +0.000 A 
ATOM      5  C   UNL     1       1.770   4.736  20.012  0.00  0.00    +0.000 A 
ATOM      6  C   UNL     1       2.226   3.453  20.310  0.00  0.00    +0.000 A 
ATOM      7 CL   UNL     1       1.506   2.585  21.613  0.00  0.00    +0.000 Cl
ATOM      8  C   UNL     1       3.259   2.856  19.579  0.00  0.00    +0.000 A 
ATOM      9  C   UNL     1       3.825   3.604  18.538  0.00  0.00    +0.000 A 
ATOM     10  N   UNL     1       4.839   3.296  17.661  0.00  0.00    +0.000 N 
ATOM     11  H   UNL     1       5.353   2.424  17.639  0.00  0.00    +0.000 HD
ENDROOT
BRANCH   1  13
ATOM     12  N   UNL     1       5.683   4.149  14.511  0.00  0.00    +0.000 N 
ATOM     13  C   UNL     1       6.134   4.288  15.804  0.00  0.00    +0.000 C 
ATOM     14  O   UNL     1       7.324   4.373  16.089  0.00  0.00    +0.000 OA
ATOM     15  H   UNL     1       4.697   4.259  14.332  0.00  0.00    +0.000 HD
BRANCH  12  17
ATOM     16  C   UNL     1       6.084   3.256  12.267  0.00  0.00    +0.000 C 
ATOM     17  C   UNL     1       6.594   4.139  13.389  0.00  0.00    +0.000 C 
ENDBRANCH  12  17
ENDBRANCH   1  13
TORSDOF 2
ENDMDL
MODEL 2
REMARK VINA RESULT:      -6.7      1.195      1.264
REMARK  Name = 
REMARK  3 active torsions:
REMARK  status: ('A' for Active; 'I' for Inactive)
REMARK    1  A    between atoms: C_1  and  C_2
REMARK    2  A    between atoms: C_2  and  N_3
REMARK    3  A    between atoms: C_4  and  C_6
REMARK                            x       y       z     vdW  Elec       q    Type
REMARK                         _______ _______ _______ _____ _____    ______ ____
ROOT
ATOM      1  C   UNL     1       4.452   5.482  16.980  0.00  0.00    +0.000 A 
ATOM      2  C   UNL     1       3.756   6.404  17.742  0.00  0.00    +0.000 A 
ATOM      3  C   UNL     1       3.100   5.716  18.797  0.00  0.00    +0.000 A 
ATOM      4  C   UNL     1       2.283   6.128  19.865  0.00  0.00    +0.000 A 
ATOM      5  C   UNL     1       1.793   5.171  20.760  0.00  0.00    +0.000 A 
ATOM      6  C   UNL     1       2.103   3.823  20.588  0.00  0.00    +0.000 A 
ATOM      7 CL   UNL     1       1.489   2.669  21.711  0.00  0.00    +0.000 Cl
ATOM      8  C   UNL     1       2.904   3.386  19.528  0.00  0.00    +0.000 A 
ATOM      9  C   UNL     1       3.393   4.362  18.648  0.00  0.00    +0.000 A 
ATOM     10  N   UNL     1       4.194   4.245  17.536  0.00  0.00    +0.000 N 
ATOM     11  H   UNL     1       4.567   3.379  17.167  0.00  0.00    +0.000 HD
ENDROOT
BRANCH   1  13
ATOM     12  N   UNL     1       5.891   4.473  15.376  0.00  0.00    +0.000 N 
ATOM     13  C   UNL     1       5.295   5.634  15.814  0.00  0.00    +0.000 C 
ATOM     14  O   UNL     1       5.448   6.714  15.252  0.00  0.00    +0.000 OA
ATOM     15  H   UNL     1       5.587   3.598  15.775  0.00  0.00    +0.000 HD
BRANCH  12  17
ATOM     16  C   UNL     1       6.026   3.688  13.061  0.00  0.00    +0.000 C 
ATOM     17  C   UNL     1       6.708   4.444  14.184  0.00  0.00    +0.000 C 
ENDBRANCH  12  17
ENDBRANCH   1  13
TORSDOF 2
ENDMDL
MODEL 3
REMARK VINA RESULT:      -6.7      0.993      1.045
REMARK  Name = 
REMARK  3 active torsions:
REMARK  status: ('A' for Active; 'I' for Inactive)
REMARK    1  A    between atoms: C_1  and  C_2
REMARK    2  A    between atoms: C_2  and  N_3
REMARK    3  A    between atoms: C_4  and  C_6
REMARK                            x       y       z     vdW  Elec       q    Type
REMARK                         _______ _______ _______ _____ _____    ______ ____
ROOT
ATOM      1  C   UNL     1       5.550   4.743  16.102  0.00  0.00    +0.000 A 
ATOM      2  C   UNL     1       4.907   5.820  16.688  0.00  0.00    +0.000 A 
ATOM      3  C   UNL     1       4.236   5.365  17.854  0.00  0.00    +0.000 A 
ATOM      4  C   UNL     1       3.453   6.002  18.835  0.00  0.00    +0.000 A 
ATOM      5  C   UNL     1       2.935   5.247  19.891  0.00  0.00    +0.000 A 
ATOM      6  C   UNL     1       3.181   3.877  19.965  0.00  0.00    +0.000 A 
ATOM      7 CL   UNL     1       2.531   2.975  21.282  0.00  0.00    +0.000 Cl
ATOM      8  C   UNL     1       3.946   3.219  18.998  0.00  0.00    +0.000 A 
ATOM      9  C   UNL     1       4.466   3.995  17.952  0.00  0.00    +0.000 A 
ATOM     10  N   UNL     1       5.244   3.641  16.874  0.00  0.00    +0.000 N 
ATOM     11  H   UNL     1       5.573   2.706  16.667  0.00  0.00    +0.000 HD
ENDROOT
BRANCH   1  13
ATOM     12  N   UNL     1       5.848   3.888  13.902  0.00  0.00    +0.000 N 
ATOM     13  C   UNL     1       6.382   4.643  14.922  0.00  0.00    +0.000 C 
ATOM     14  O   UNL     1       7.470   5.204  14.837  0.00  0.00    +0.000 OA
ATOM     15  H   UNL     1       4.884   3.602  13.971  0.00  0.00    +0.000 HD
BRANCH  12  17
ATOM     16  C   UNL     1       5.844   2.715  11.753  0.00  0.00    +0.000 C 
ATOM     17  C   UNL     1       6.525   3.746  12.633  0.00  0.00    +0.000 C 
ENDBRANCH  12  17
ENDBRANCH   1  13
TORSDOF 2
ENDMDL
MODEL 4
REMARK VINA RESULT:      -6.6      1.064      1.064
REMARK  Name = 
REMARK  3 active torsions:
REMARK  status: ('A' for Active; 'I' for Inactive)
REMARK    1  A    between atoms: C_1  and  C_2
REMARK    2  A    between atoms: C_2  and  N_3
REMARK    3  A    between atoms: C_4  and  C_6
REMARK                            x       y       z     vdW  Elec       q    Type
REMARK                         _______ _______ _______ _____ _____    ______ ____
ROOT
ATOM      1  C   UNL     1       5.496   4.130  16.795  0.00  0.00    +0.000 A 
ATOM      2  C   UNL     1       4.146   4.257  16.520  0.00  0.00    +0.000 A 
ATOM      3  C   UNL     1       3.412   3.888  17.679  0.00  0.00    +0.000 A 
ATOM      4  C   UNL     1       2.039   3.838  17.984  0.00  0.00    +0.000 A 
ATOM      5  C   UNL     1       1.638   3.429  19.259  0.00  0.00    +0.000 A 
ATOM      6  C   UNL     1       2.586   3.063  20.213  0.00  0.00    +0.000 A 
ATOM      7 CL   UNL     1       2.060   2.567  21.777  0.00  0.00    +0.000 Cl
ATOM      8  C   UNL     1       3.956   3.093  19.931  0.00  0.00    +0.000 A 
ATOM      9  C   UNL     1       4.339   3.516  18.650  0.00  0.00    +0.000 A 
ATOM     10  N   UNL     1       5.586   3.652  18.087  0.00  0.00    +0.000 N 
ATOM     11  H   UNL     1       6.466   3.450  18.548  0.00  0.00    +0.000 HD
ENDROOT
BRANCH   1  13
ATOM     12  N   UNL     1       6.425   4.588  14.653  0.00  0.00    +0.000 N 
ATOM     13  C   UNL     1       6.673   4.387  15.992  0.00  0.00    +0.000 C 
ATOM     14  O   UNL     1       7.798   4.441  16.476  0.00  0.00    +0.000 OA
ATOM     15  H   UNL     1       5.469   4.702  14.354  0.00  0.00    +0.000 HD
BRANCH  12  17
ATOM     16  C   UNL     1       7.214   4.362  12.346  0.00  0.00    +0.000 C 
ATOM     17  C   UNL     1       7.485   4.923  13.730  0.00  0.00    +0.000 C 
ENDBRANCH  12  17
ENDBRANCH   1  13
TORSDOF 2
ENDMDL
MODEL 5
REMARK VINA RESULT:      -6.4      2.379      3.199
REMARK  Name = 
REMARK  3 active torsions:
REMARK  status: ('A' for Active; 'I' for Inactive)
REMARK    1  A    between atoms: C_1  and  C_2
REMARK    2  A    between atoms: C_2  and  N_3
REMARK    3  A    between atoms: C_4  and  C_6
REMARK                            x       y       z     vdW  Elec       q    Type
REMARK                         _______ _______ _______ _____ _____    ______ ____
ROOT
ATOM      1  C   UNL     1       4.781   5.191  17.322  0.00  0.00    +0.000 A 
ATOM      2  C   UNL     1       4.135   4.073  16.824  0.00  0.00    +0.000 A 
ATOM      3  C   UNL     1       3.356   3.499  17.863  0.00  0.00    +0.000 A 
ATOM      4  C   UNL     1       2.497   2.387  17.933  0.00  0.00    +0.000 A 
ATOM      5  C   UNL     1       1.857   2.094  19.141  0.00  0.00    +0.000 A 
ATOM      6  C   UNL     1       2.076   2.887  20.266  0.00  0.00    +0.000 A 
ATOM      7 CL   UNL     1       1.267   2.502  21.738  0.00  0.00    +0.000 Cl
ATOM      8  C   UNL     1       2.933   3.992  20.225  0.00  0.00    +0.000 A 
ATOM      9  C   UNL     1       3.558   4.275  19.003  0.00  0.00    +0.000 A 
ATOM     10  N   UNL     1       4.435   5.277  18.655  0.00  0.00    +0.000 N 
ATOM     11  H   UNL     1       4.779   5.999  19.276  0.00  0.00    +0.000 HD
ENDROOT
BRANCH   1  13
ATOM     12  N   UNL     1       6.576   6.735  17.557  0.00  0.00    +0.000 N 
ATOM     13  C   UNL     1       5.672   6.148  16.701  0.00  0.00    +0.000 C 
ATOM     14  O   UNL     1       5.632   6.398  15.501  0.00  0.00    +0.000 OA
ATOM     15  H   UNL     1       6.669   6.359  18.488  0.00  0.00    +0.000 HD
BRANCH  12  17
ATOM     16  C   UNL     1       8.214   8.428  18.223  0.00  0.00    +0.000 C 
ATOM     17  C   UNL     1       7.578   7.660  17.080  0.00  0.00    +0.000 C 
ENDBRANCH  12  17
ENDBRANCH   1  13
TORSDOF 2
ENDMDL
MODEL 6
REMARK VINA RESULT:      -6.3      2.027      2.594
REMARK  Name = 
REMARK  3 active torsions:
REMARK  status: ('A' for Active; 'I' for Inactive)
REMARK    1  A    between atoms: C_1  and  C_2
REMARK    2  A    between atoms: C_2  and  N_3
REMARK    3  A    between atoms: C_4  and  C_6
REMARK                            x       y       z     vdW  Elec       q    Type
REMARK                         _______ _______ _______ _____ _____    ______ ____
ROOT
ATOM      1  C   UNL     1       5.496   4.959  15.911  0.00  0.00    +0.000 A 
ATOM      2  C   UNL     1       5.062   4.120  16.922  0.00  0.00    +0.000 A 
ATOM      3  C   UNL     1       4.226   4.863  17.798  0.00  0.00    +0.000 A 
ATOM      4  C   UNL     1       3.505   4.537  18.962  0.00  0.00    +0.000 A 
ATOM      5  C   UNL     1       2.750   5.528  19.597  0.00  0.00    +0.000 A 
ATOM      6  C   UNL     1       2.721   6.826  19.089  0.00  0.00    +0.000 A 
ATOM      7 CL   UNL     1       1.777   8.023  19.892  0.00  0.00    +0.000 Cl
ATOM      8  C   UNL     1       3.438   7.177  17.941  0.00  0.00    +0.000 A 
ATOM      9  C   UNL     1       4.180   6.168  17.313  0.00  0.00    +0.000 A 
ATOM     10  N   UNL     1       4.969   6.204  16.186  0.00  0.00    +0.000 N 
ATOM     11  H   UNL     1       5.139   7.021  15.613  0.00  0.00    +0.000 HD
ENDROOT
BRANCH   1  13
ATOM     12  N   UNL     1       5.781   3.925  13.787  0.00  0.00    +0.000 N 
ATOM     13  C   UNL     1       6.341   4.724  14.759  0.00  0.00    +0.000 C 
ATOM     14  O   UNL     1       7.459   5.216  14.655  0.00  0.00    +0.000 OA
ATOM     15  H   UNL     1       4.802   3.699  13.857  0.00  0.00    +0.000 HD
BRANCH  12  17
ATOM     16  C   UNL     1       5.727   2.621  11.716  0.00  0.00    +0.000 C 
ATOM     17  C   UNL     1       6.469   3.651  12.546  0.00  0.00    +0.000 C 
ENDBRANCH  12  17
ENDBRANCH   1  13
TORSDOF 2
ENDMDL
MODEL 7
REMARK VINA RESULT:      -6.2      4.142      5.329
REMARK  Name = 
REMARK  3 active torsions:
REMARK  status: ('A' for Active; 'I' for Inactive)
REMARK    1  A    between atoms: C_1  and  C_2
REMARK    2  A    between atoms: C_2  and  N_3
REMARK    3  A    between atoms: C_4  and  C_6
REMARK                            x       y       z     vdW  Elec       q    Type
REMARK                         _______ _______ _______ _____ _____    ______ ____
ROOT
ATOM      1  C   UNL     1       3.358   6.003  19.188  0.00  0.00    +0.000 A 
ATOM      2  C   UNL     1       3.168   6.835  18.099  0.00  0.00    +0.000 A 
ATOM      3  C   UNL     1       2.329   7.911  18.493  0.00  0.00    +0.000 A 
ATOM      4  C   UNL     1       1.823   9.043  17.827  0.00  0.00    +0.000 A 
ATOM      5  C   UNL     1       1.009   9.939  18.527  0.00  0.00    +0.000 A 
ATOM      6  C   UNL     1       0.695   9.709  19.865  0.00  0.00    +0.000 A 
ATOM      7 CL   UNL     1      -0.306  10.835  20.701  0.00  0.00    +0.000 Cl
ATOM      8  C   UNL     1       1.176   8.586  20.546  0.00  0.00    +0.000 A 
ATOM      9  C   UNL     1       1.998   7.704  19.831  0.00  0.00    +0.000 A 
ATOM     10  N   UNL     1       2.615   6.538  20.220  0.00  0.00    +0.000 N 
ATOM     11  H   UNL     1       2.557   6.120  21.141  0.00  0.00    +0.000 HD
ENDROOT
BRANCH   1  13
ATOM     12  N   UNL     1       3.378   3.653  19.564  0.00  0.00    +0.000 N 
ATOM     13  C   UNL     1       4.128   4.788  19.350  0.00  0.00    +0.000 C 
ATOM     14  O   UNL     1       5.353   4.773  19.283  0.00  0.00    +0.000 OA
ATOM     15  H   UNL     1       2.379   3.707  19.435  0.00  0.00    +0.000 HD
BRANCH  12  17
ATOM     16  C   UNL     1       3.616   1.454  18.514  0.00  0.00    +0.000 C 
ATOM     17  C   UNL     1       3.993   2.350  19.678  0.00  0.00    +0.000 C 
ENDBRANCH  12  17
ENDBRANCH   1  13
TORSDOF 2
ENDMDL
MODEL 8
REMARK VINA RESULT:      -6.1      3.449      6.173
REMARK  Name = 
REMARK  3 active torsions:
REMARK  status: ('A' for Active; 'I' for Inactive)
REMARK    1  A    between atoms: C_1  and  C_2
REMARK    2  A    between atoms: C_2  and  N_3
REMARK    3  A    between atoms: C_4  and  C_6
REMARK                            x       y       z     vdW  Elec       q    Type
REMARK                         _______ _______ _______ _____ _____    ______ ____
ROOT
ATOM      1  C   UNL     1       4.813   3.782  18.514  0.00  0.00    +0.000 A 
ATOM      2  C   UNL     1       5.819   4.709  18.313  0.00  0.00    +0.000 A 
ATOM      3  C   UNL     1       6.184   4.690  16.940  0.00  0.00    +0.000 A 
ATOM      4  C   UNL     1       7.115   5.413  16.172  0.00  0.00    +0.000 A 
ATOM      5  C   UNL     1       7.220   5.152  14.802  0.00  0.00    +0.000 A 
ATOM      6  C   UNL     1       6.419   4.178  14.207  0.00  0.00    +0.000 A 
ATOM      7 CL   UNL     1       6.569   3.883  12.516  0.00  0.00    +0.000 Cl
ATOM      8  C   UNL     1       5.494   3.438  14.951  0.00  0.00    +0.000 A 
ATOM      9  C   UNL     1       5.397   3.722  16.320  0.00  0.00    +0.000 A 
ATOM     10  N   UNL     1       4.592   3.176  17.294  0.00  0.00    +0.000 N 
ATOM     11  H   UNL     1       3.912   2.439  17.151  0.00  0.00    +0.000 HD
ENDROOT
BRANCH   1  13
ATOM     12  N   UNL     1       3.083   4.292  20.066  0.00  0.00    +0.000 N 
ATOM     13  C   UNL     1       4.070   3.406  19.698  0.00  0.00    +0.000 C 
ATOM     14  O   UNL     1       4.296   2.368  20.312  0.00  0.00    +0.000 OA
ATOM     15  H   UNL     1       2.837   5.030  19.424  0.00  0.00    +0.000 HD
BRANCH  12  17
ATOM     16  C   UNL     1       0.999   3.213  20.767  0.00  0.00    +0.000 C 
ATOM     17  C   UNL     1       2.208   4.028  21.186  0.00  0.00    +0.000 C 
ENDBRANCH  12  17
ENDBRANCH   1  13
TORSDOF 2
ENDMDL
MODEL 9
REMARK VINA RESULT:      -6.1      1.228      1.536
REMARK  Name = 
REMARK  3 active torsions:
REMARK  status: ('A' for Active; 'I' for Inactive)
REMARK    1  A    between atoms: C_1  and  C_2
REMARK    2  A    between atoms: C_2  and  N_3
REMARK    3  A    between atoms: C_4  and  C_6
REMARK                            x       y       z     vdW  Elec       q    Type
REMARK                         _______ _______ _______ _____ _____    ______ ____
ROOT
ATOM      1  C   UNL     1       5.412   4.953  15.940  0.00  0.00    +0.000 A 
ATOM      2  C   UNL     1       5.004   6.198  16.385  0.00  0.00    +0.000 A 
ATOM      3  C   UNL     1       4.018   6.017  17.392  0.00  0.00    +0.000 A 
ATOM      4  C   UNL     1       3.277   6.903  18.196  0.00  0.00    +0.000 A 
ATOM      5  C   UNL     1       2.370   6.385  19.125  0.00  0.00    +0.000 A 
ATOM      6  C   UNL     1       2.194   5.007  19.246  0.00  0.00    +0.000 A 
ATOM      7 CL   UNL     1       1.072   4.400  20.405  0.00  0.00    +0.000 Cl
ATOM      8  C   UNL     1       2.911   4.107  18.452  0.00  0.00    +0.000 A 
ATOM      9  C   UNL     1       3.823   4.645  17.533  0.00  0.00    +0.000 A 
ATOM     10  N   UNL     1       4.661   4.027  16.634  0.00  0.00    +0.000 N 
ATOM     11  H   UNL     1       4.741   3.026  16.496  0.00  0.00    +0.000 HD
ENDROOT
BRANCH   1  13
ATOM     12  N   UNL     1       5.865   4.013  13.802  0.00  0.00    +0.000 N 
ATOM     13  C   UNL     1       6.392   4.556  14.952  0.00  0.00    +0.000 C 
ATOM     14  O   UNL     1       7.597   4.711  15.124  0.00  0.00    +0.000 OA
ATOM     15  H   UNL     1       4.870   4.074  13.655  0.00  0.00    +0.000 HD
BRANCH  12  17
ATOM     16  C   UNL     1       7.264   4.842  11.972  0.00  0.00    +0.000 C 
ATOM     17  C   UNL     1       6.707   3.629  12.692  0.00  0.00    +0.000 C 
ENDBRANCH  12  17
ENDBRANCH   1  13
TORSDOF 2
ENDMDL
