MODEL 1
REMARK VINA RESULT:      -9.1      0.000      0.000
REMARK  Name = 
REMARK  13 active torsions:
REMARK  status: ('A' for Active; 'I' for Inactive)
REMARK    1  A    between atoms: C_2  and  O_27
REMARK    2  A    between atoms: N_3  and  C_4
REMARK    3  A    between atoms: C_4  and  C_5
REMARK    4  A    between atoms: C_4  and  C_12
REMARK    5  A    between atoms: C_5  and  C_6
REMARK    6  A    between atoms: N_14  and  C_15
REMARK    7  A    between atoms: C_15  and  C_16
REMARK    8  A    between atoms: C_15  and  C_23
REMARK    9  A    between atoms: C_16  and  C_17
REMARK   10  A    between atoms: C_23  and  C_25
REMARK   11  A    between atoms: C_25  and  O_26
REMARK   12  A    between atoms: O_27  and  C_28
REMARK   13  A    between atoms: C_28  and  C_29
REMARK                            x       y       z     vdW  Elec       q    Type
REMARK                         _______ _______ _______ _____ _____    ______ ____
ROOT
ATOM      1  C   UNL     1       2.875   6.496  18.349  0.00  0.00    +0.000 C 
ENDROOT
BRANCH   1   4
ATOM      2  O   UNL     1       1.621   8.594  19.950  0.00  0.00    +0.000 OA
ATOM      3  C   UNL     1       1.650   8.650  18.732  0.00  0.00    +0.000 C 
ATOM      4  N   UNL     1       2.321   7.787  17.924  0.00  0.00    +0.000 N 
ATOM      5  H   UNL     1       2.306   7.989  16.931  0.00  0.00    +0.000 HD
BRANCH   3   6
ATOM      6  O   UNL     1       0.962   9.523  17.962  0.00  0.00    +0.000 OA
BRANCH   6   7
ATOM      7  C   UNL     1       0.344  10.624  18.643  0.00  0.00    +0.000 C 
BRANCH   7   8
ATOM      8  C   UNL     1      -1.097  10.691  18.215  0.00  0.00    +0.000 A 
ATOM      9  C   UNL     1      -1.995  11.571  18.836  0.00  0.00    +0.000 A 
ATOM     10  C   UNL     1      -3.341  11.581  18.465  0.00  0.00    +0.000 A 
ATOM     11  C   UNL     1      -3.798  10.712  17.476  0.00  0.00    +0.000 A 
ATOM     12  C   UNL     1      -2.912   9.836  16.852  0.00  0.00    +0.000 A 
ATOM     13  C   UNL     1      -1.567   9.822  17.222  0.00  0.00    +0.000 A 
ENDBRANCH   7   8
ENDBRANCH   6   7
ENDBRANCH   3   6
ENDBRANCH   1   4
BRANCH   1  14
ATOM     14  C   UNL     1       4.268   6.352  17.656  0.00  0.00    +0.000 C 
ATOM     15  O   UNL     1       4.808   7.305  17.091  0.00  0.00    +0.000 OA
ATOM     16  N   UNL     1       4.873   5.118  17.726  0.00  0.00    +0.000 N 
ATOM     17  H   UNL     1       4.359   4.316  18.080  0.00  0.00    +0.000 HD
BRANCH  16  18
ATOM     18  C   UNL     1       6.067   4.762  16.947  0.00  0.00    +0.000 C 
BRANCH  18  19
ATOM     19  C   UNL     1       7.268   4.745  17.916  0.00  0.00    +0.000 C 
ATOM     20  O   UNL     1       8.320   4.148  17.649  0.00  0.00    +0.000 OA
BRANCH  19  21
ATOM     21  C   UNL     1       7.130   5.520  19.225  0.00  0.00    +0.000 C 
BRANCH  21  22
ATOM     22  O   UNL     1       8.371   5.982  19.733  0.00  0.00    +0.000 OA
ATOM     23  H   UNL     1       8.820   5.206  20.121  0.00  0.00    +0.000 HD
ENDBRANCH  21  22
ENDBRANCH  19  21
ENDBRANCH  18  19
BRANCH  18  24
ATOM     24  C   UNL     1       6.292   5.681  15.733  0.00  0.00    +0.000 C 
BRANCH  24  25
ATOM     25  C   UNL     1       6.504   4.897  14.456  0.00  0.00    +0.000 A 
ATOM     26  C   UNL     1       7.561   5.206  13.593  0.00  0.00    +0.000 A 
ATOM     27  C   UNL     1       7.620   4.641  12.321  0.00  0.00    +0.000 A 
ATOM     28  C   UNL     1       6.642   3.735  11.915  0.00  0.00    +0.000 A 
ATOM     29  C   UNL     1       5.629   3.361  12.793  0.00  0.00    +0.000 A 
ATOM     30  C   UNL     1       5.568   3.931  14.063  0.00  0.00    +0.000 A 
ENDBRANCH  24  25
ENDBRANCH  18  24
ENDBRANCH  16  18
ENDBRANCH   1  14
BRANCH   1  31
ATOM     31  C   UNL     1       1.945   5.297  18.031  0.00  0.00    +0.000 C 
BRANCH  31  32
ATOM     32  C   UNL     1       1.690   4.364  19.199  0.00  0.00    +0.000 A 
ATOM     33  C   UNL     1       2.090   4.744  20.482  0.00  0.00    +0.000 A 
ATOM     34  C   UNL     1       2.055   3.830  21.536  0.00  0.00    +0.000 A 
ATOM     35  C   UNL     1       1.605   2.527  21.321  0.00  0.00    +0.000 A 
ATOM     36  C   UNL     1       1.144   2.154  20.066  0.00  0.00    +0.000 A 
ATOM     37  C   UNL     1       1.152   3.075  19.023  0.00  0.00    +0.000 A 
ENDBRANCH  31  32
ENDBRANCH   1  31
TORSDOF 13
ENDMDL
MODEL 2
REMARK VINA RESULT:      -9.0      3.126      8.548
REMARK  Name = 
REMARK  13 active torsions:
REMARK  status: ('A' for Active; 'I' for Inactive)
REMARK    1  A    between atoms: C_2  and  O_27
REMARK    2  A    between atoms: N_3  and  C_4
REMARK    3  A    between atoms: C_4  and  C_5
REMARK    4  A    between atoms: C_4  and  C_12
REMARK    5  A    between atoms: C_5  and  C_6
REMARK    6  A    between atoms: N_14  and  C_15
REMARK    7  A    between atoms: C_15  and  C_16
REMARK    8  A    between atoms: C_15  and  C_23
REMARK    9  A    between atoms: C_16  and  C_17
REMARK   10  A    between atoms: C_23  and  C_25
REMARK   11  A    between atoms: C_25  and  O_26
REMARK   12  A    between atoms: O_27  and  C_28
REMARK   13  A    between atoms: C_28  and  C_29
REMARK                            x       y       z     vdW  Elec       q    Type
REMARK                         _______ _______ _______ _____ _____    ______ ____
ROOT
ATOM      1  C   UNL     1       6.301   6.402  16.499  0.00  0.00    +0.000 C 
ENDROOT
BRANCH   1   4
ATOM      2  O   UNL     1       8.150   5.961  18.720  0.00  0.00    +0.000 OA
ATOM      3  C   UNL     1       7.923   7.080  18.287  0.00  0.00    +0.000 C 
ATOM      4  N   UNL     1       7.182   7.357  17.183  0.00  0.00    +0.000 N 
ATOM      5  H   UNL     1       7.126   8.330  16.905  0.00  0.00    +0.000 HD
BRANCH   3   6
ATOM      6  O   UNL     1       8.297   8.243  18.866  0.00  0.00    +0.000 OA
BRANCH   6   7
ATOM      7  C   UNL     1       8.365   9.391  18.008  0.00  0.00    +0.000 C 
BRANCH   7   8
ATOM      8  C   UNL     1       9.302  10.388  18.632  0.00  0.00    +0.000 A 
ATOM      9  C   UNL     1       9.339  10.573  20.022  0.00  0.00    +0.000 A 
ATOM     10  C   UNL     1      10.174  11.542  20.582  0.00  0.00    +0.000 A 
ATOM     11  C   UNL     1      10.974  12.333  19.758  0.00  0.00    +0.000 A 
ATOM     12  C   UNL     1      10.946  12.154  18.376  0.00  0.00    +0.000 A 
ATOM     13  C   UNL     1      10.111  11.189  17.814  0.00  0.00    +0.000 A 
ENDBRANCH   7   8
ENDBRANCH   6   7
ENDBRANCH   3   6
ENDBRANCH   1   4
BRANCH   1  14
ATOM     14  C   UNL     1       5.154   6.049  17.498  0.00  0.00    +0.000 C 
ATOM     15  O   UNL     1       5.132   4.974  18.101  0.00  0.00    +0.000 OA
ATOM     16  N   UNL     1       4.181   7.003  17.691  0.00  0.00    +0.000 N 
ATOM     17  H   UNL     1       4.145   7.825  17.093  0.00  0.00    +0.000 HD
BRANCH  16  18
ATOM     18  C   UNL     1       2.932   6.744  18.419  0.00  0.00    +0.000 C 
BRANCH  18  19
ATOM     19  C   UNL     1       2.227   8.100  18.633  0.00  0.00    +0.000 C 
ATOM     20  O   UNL     1       1.685   8.397  19.707  0.00  0.00    +0.000 OA
BRANCH  19  21
ATOM     21  C   UNL     1       2.239   9.093  17.473  0.00  0.00    +0.000 C 
BRANCH  21  22
ATOM     22  O   UNL     1       1.634  10.336  17.795  0.00  0.00    +0.000 OA
ATOM     23  H   UNL     1       0.678  10.233  17.624  0.00  0.00    +0.000 HD
ENDBRANCH  21  22
ENDBRANCH  19  21
ENDBRANCH  18  19
BRANCH  18  24
ATOM     24  C   UNL     1       3.148   5.969  19.731  0.00  0.00    +0.000 C 
BRANCH  24  25
ATOM     25  C   UNL     1       2.247   4.758  19.834  0.00  0.00    +0.000 A 
ATOM     26  C   UNL     1       2.043   4.119  21.062  0.00  0.00    +0.000 A 
ATOM     27  C   UNL     1       1.402   2.883  21.114  0.00  0.00    +0.000 A 
ATOM     28  C   UNL     1       0.929   2.293  19.945  0.00  0.00    +0.000 A 
ATOM     29  C   UNL     1       1.058   2.956  18.727  0.00  0.00    +0.000 A 
ATOM     30  C   UNL     1       1.703   4.189  18.674  0.00  0.00    +0.000 A 
ENDBRANCH  24  25
ENDBRANCH  18  24
ENDBRANCH  16  18
ENDBRANCH   1  14
BRANCH   1  31
ATOM     31  C   UNL     1       7.043   5.136  16.001  0.00  0.00    +0.000 C 
BRANCH  31  32
ATOM     32  C   UNL     1       6.839   4.817  14.532  0.00  0.00    +0.000 A 
ATOM     33  C   UNL     1       5.853   3.902  14.158  0.00  0.00    +0.000 A 
ATOM     34  C   UNL     1       5.778   3.437  12.845  0.00  0.00    +0.000 A 
ATOM     35  C   UNL     1       6.681   3.894  11.885  0.00  0.00    +0.000 A 
ATOM     36  C   UNL     1       7.626   4.851  12.227  0.00  0.00    +0.000 A 
ATOM     37  C   UNL     1       7.682   5.336  13.530  0.00  0.00    +0.000 A 
ENDBRANCH  31  32
ENDBRANCH   1  31
TORSDOF 13
ENDMDL
MODEL 3
REMARK VINA RESULT:      -8.9      3.116      8.432
REMARK  Name = 
REMARK  13 active torsions:
REMARK  status: ('A' for Active; 'I' for Inactive)
REMARK    1  A    between atoms: C_2  and  O_27
REMARK    2  A    between atoms: N_3  and  C_4
REMARK    3  A    between atoms: C_4  and  C_5
REMARK    4  A    between atoms: C_4  and  C_12
REMARK    5  A    between atoms: C_5  and  C_6
REMARK    6  A    between atoms: N_14  and  C_15
REMARK    7  A    between atoms: C_15  and  C_16
REMARK    8  A    between atoms: C_15  and  C_23
REMARK    9  A    between atoms: C_16  and  C_17
REMARK   10  A    between atoms: C_23  and  C_25
REMARK   11  A    between atoms: C_25  and  O_26
REMARK   12  A    between atoms: O_27  and  C_28
REMARK   13  A    between atoms: C_28  and  C_29
REMARK                            x       y       z     vdW  Elec       q    Type
REMARK                         _______ _______ _______ _____ _____    ______ ____
ROOT
ATOM      1  C   UNL     1       6.364   6.335  16.339  0.00  0.00    +0.000 C 
ENDROOT
BRANCH   1   4
ATOM      2  O   UNL     1       8.067   5.958  18.684  0.00  0.00    +0.000 OA
ATOM      3  C   UNL     1       7.891   7.060  18.191  0.00  0.00    +0.000 C 
ATOM      4  N   UNL     1       7.223   7.302  17.034  0.00  0.00    +0.000 N 
ATOM      5  H   UNL     1       7.205   8.263  16.711  0.00  0.00    +0.000 HD
BRANCH   3   6
ATOM      6  O   UNL     1       8.254   8.241  18.741  0.00  0.00    +0.000 OA
BRANCH   6   7
ATOM      7  C   UNL     1       8.315   9.367  17.854  0.00  0.00    +0.000 C 
BRANCH   7   8
ATOM      8  C   UNL     1       9.057  10.474  18.553  0.00  0.00    +0.000 A 
ATOM      9  C   UNL     1       9.556  11.572  17.838  0.00  0.00    +0.000 A 
ATOM     10  C   UNL     1      10.291  12.563  18.491  0.00  0.00    +0.000 A 
ATOM     11  C   UNL     1      10.533  12.462  19.861  0.00  0.00    +0.000 A 
ATOM     12  C   UNL     1      10.038  11.376  20.579  0.00  0.00    +0.000 A 
ATOM     13  C   UNL     1       9.306  10.383  19.929  0.00  0.00    +0.000 A 
ENDBRANCH   7   8
ENDBRANCH   6   7
ENDBRANCH   3   6
ENDBRANCH   1   4
BRANCH   1  14
ATOM     14  C   UNL     1       5.247   5.916  17.347  0.00  0.00    +0.000 C 
ATOM     15  O   UNL     1       5.207   4.783  17.830  0.00  0.00    +0.000 OA
ATOM     16  N   UNL     1       4.323   6.878  17.687  0.00  0.00    +0.000 N 
ATOM     17  H   UNL     1       4.295   7.761  17.183  0.00  0.00    +0.000 HD
BRANCH  16  18
ATOM     18  C   UNL     1       3.097   6.585  18.441  0.00  0.00    +0.000 C 
BRANCH  18  19
ATOM     19  C   UNL     1       2.377   7.926  18.699  0.00  0.00    +0.000 C 
ATOM     20  O   UNL     1       1.754   8.147  19.747  0.00  0.00    +0.000 OA
BRANCH  19  21
ATOM     21  C   UNL     1       2.477   9.001  17.618  0.00  0.00    +0.000 C 
BRANCH  21  22
ATOM     22  O   UNL     1       1.269   9.720  17.432  0.00  0.00    +0.000 OA
ATOM     23  H   UNL     1       0.963   9.521  16.526  0.00  0.00    +0.000 HD
ENDBRANCH  21  22
ENDBRANCH  19  21
ENDBRANCH  18  19
BRANCH  18  24
ATOM     24  C   UNL     1       3.358   5.790  19.732  0.00  0.00    +0.000 C 
BRANCH  24  25
ATOM     25  C   UNL     1       2.543   4.515  19.791  0.00  0.00    +0.000 A 
ATOM     26  C   UNL     1       1.989   3.966  18.630  0.00  0.00    +0.000 A 
ATOM     27  C   UNL     1       1.060   2.931  18.716  0.00  0.00    +0.000 A 
ATOM     28  C   UNL     1       0.704   2.414  19.959  0.00  0.00    +0.000 A 
ATOM     29  C   UNL     1       1.307   2.901  21.116  0.00  0.00    +0.000 A 
ATOM     30  C   UNL     1       2.233   3.939  21.030  0.00  0.00    +0.000 A 
ENDBRANCH  24  25
ENDBRANCH  18  24
ENDBRANCH  16  18
ENDBRANCH   1  14
BRANCH   1  31
ATOM     31  C   UNL     1       7.141   5.109  15.795  0.00  0.00    +0.000 C 
BRANCH  31  32
ATOM     32  C   UNL     1       6.783   4.708  14.377  0.00  0.00    +0.000 A 
ATOM     33  C   UNL     1       5.645   3.929  14.150  0.00  0.00    +0.000 A 
ATOM     34  C   UNL     1       5.404   3.378  12.891  0.00  0.00    +0.000 A 
ATOM     35  C   UNL     1       6.291   3.610  11.840  0.00  0.00    +0.000 A 
ATOM     36  C   UNL     1       7.391   4.433  12.034  0.00  0.00    +0.000 A 
ATOM     37  C   UNL     1       7.615   5.008  13.282  0.00  0.00    +0.000 A 
ENDBRANCH  31  32
ENDBRANCH   1  31
TORSDOF 13
ENDMDL
MODEL 4
REMARK VINA RESULT:      -8.7      1.212      1.579
REMARK  Name = 
REMARK  13 active torsions:
REMARK  status: ('A' for Active; 'I' for Inactive)
REMARK    1  A    between atoms: C_2  and  O_27
REMARK    2  A    between atoms: N_3  and  C_4
REMARK    3  A    between atoms: C_4  and  C_5
REMARK    4  A    between atoms: C_4  and  C_12
REMARK    5  A    between atoms: C_5  and  C_6
REMARK    6  A    between atoms: N_14  and  C_15
REMARK    7  A    between atoms: C_15  and  C_16
REMARK    8  A    between atoms: C_15  and  C_23
REMARK    9  A    between atoms: C_16  and  C_17
REMARK   10  A    between atoms: C_23  and  C_25
REMARK   11  A    between atoms: C_25  and  O_26
REMARK   12  A    between atoms: O_27  and  C_28
REMARK   13  A    between atoms: C_28  and  C_29
REMARK                            x       y       z     vdW  Elec       q    Type
REMARK                         _______ _______ _______ _____ _____    ______ ____
ROOT
ATOM      1  C   UNL     1       3.084   6.393  19.377  0.00  0.00    +0.000 C 
ENDROOT
BRANCH   1   4
ATOM      2  O   UNL     1       1.535   8.183  21.090  0.00  0.00    +0.000 OA
ATOM      3  C   UNL     1       1.657   8.389  19.894  0.00  0.00    +0.000 C 
ATOM      4  N   UNL     1       2.460   7.682  19.056  0.00  0.00    +0.000 N 
ATOM      5  H   UNL     1       2.509   8.002  18.095  0.00  0.00    +0.000 HD
BRANCH   3   6
ATOM      6  O   UNL     1       0.963   9.297  19.171  0.00  0.00    +0.000 OA
BRANCH   6   7
ATOM      7  C   UNL     1      -0.068  10.012  19.866  0.00  0.00    +0.000 C 
BRANCH   7   8
ATOM      8  C   UNL     1      -1.143  10.366  18.874  0.00  0.00    +0.000 A 
ATOM      9  C   UNL     1      -1.196   9.748  17.616  0.00  0.00    +0.000 A 
ATOM     10  C   UNL     1      -2.166  10.127  16.686  0.00  0.00    +0.000 A 
ATOM     11  C   UNL     1      -3.084  11.127  17.005  0.00  0.00    +0.000 A 
ATOM     12  C   UNL     1      -3.040  11.744  18.253  0.00  0.00    +0.000 A 
ATOM     13  C   UNL     1      -2.071  11.369  19.184  0.00  0.00    +0.000 A 
ENDBRANCH   7   8
ENDBRANCH   6   7
ENDBRANCH   3   6
ENDBRANCH   1   4
BRANCH   1  14
ATOM     14  C   UNL     1       3.954   5.991  18.143  0.00  0.00    +0.000 C 
ATOM     15  O   UNL     1       3.468   5.900  17.014  0.00  0.00    +0.000 OA
ATOM     16  N   UNL     1       5.292   5.766  18.372  0.00  0.00    +0.000 N 
ATOM     17  H   UNL     1       5.647   5.719  19.324  0.00  0.00    +0.000 HD
BRANCH  16  18
ATOM     18  C   UNL     1       6.191   5.174  17.373  0.00  0.00    +0.000 C 
BRANCH  18  19
ATOM     19  C   UNL     1       7.567   4.976  18.044  0.00  0.00    +0.000 C 
ATOM     20  O   UNL     1       8.338   4.067  17.706  0.00  0.00    +0.000 OA
BRANCH  19  21
ATOM     21  C   UNL     1       7.969   5.964  19.137  0.00  0.00    +0.000 C 
BRANCH  21  22
ATOM     22  O   UNL     1       7.822   5.438  20.446  0.00  0.00    +0.000 OA
ATOM     23  H   UNL     1       8.054   6.159  21.063  0.00  0.00    +0.000 HD
ENDBRANCH  21  22
ENDBRANCH  19  21
ENDBRANCH  18  19
BRANCH  18  24
ATOM     24  C   UNL     1       6.273   5.994  16.073  0.00  0.00    +0.000 C 
BRANCH  24  25
ATOM     25  C   UNL     1       6.432   5.114  14.853  0.00  0.00    +0.000 A 
ATOM     26  C   UNL     1       7.486   5.318  13.955  0.00  0.00    +0.000 A 
ATOM     27  C   UNL     1       7.500   4.661  12.726  0.00  0.00    +0.000 A 
ATOM     28  C   UNL     1       6.481   3.770  12.399  0.00  0.00    +0.000 A 
ATOM     29  C   UNL     1       5.468   3.501  13.316  0.00  0.00    +0.000 A 
ATOM     30  C   UNL     1       5.451   4.161  14.543  0.00  0.00    +0.000 A 
ENDBRANCH  24  25
ENDBRANCH  18  24
ENDBRANCH  16  18
ENDBRANCH   1  14
BRANCH   1  31
ATOM     31  C   UNL     1       2.056   5.291  19.742  0.00  0.00    +0.000 C 
BRANCH  31  32
ATOM     32  C   UNL     1       2.462   3.886  19.343  0.00  0.00    +0.000 A 
ATOM     33  C   UNL     1       3.505   3.252  20.024  0.00  0.00    +0.000 A 
ATOM     34  C   UNL     1       4.033   2.050  19.551  0.00  0.00    +0.000 A 
ATOM     35  C   UNL     1       3.515   1.460  18.398  0.00  0.00    +0.000 A 
ATOM     36  C   UNL     1       2.438   2.045  17.747  0.00  0.00    +0.000 A 
ATOM     37  C   UNL     1       1.892   3.228  18.236  0.00  0.00    +0.000 A 
ENDBRANCH  31  32
ENDBRANCH   1  31
TORSDOF 13
ENDMDL
MODEL 5
REMARK VINA RESULT:      -8.6      2.749      8.369
REMARK  Name = 
REMARK  13 active torsions:
REMARK  status: ('A' for Active; 'I' for Inactive)
REMARK    1  A    between atoms: C_2  and  O_27
REMARK    2  A    between atoms: N_3  and  C_4
REMARK    3  A    between atoms: C_4  and  C_5
REMARK    4  A    between atoms: C_4  and  C_12
REMARK    5  A    between atoms: C_5  and  C_6
REMARK    6  A    between atoms: N_14  and  C_15
REMARK    7  A    between atoms: C_15  and  C_16
REMARK    8  A    between atoms: C_15  and  C_23
REMARK    9  A    between atoms: C_16  and  C_17
REMARK   10  A    between atoms: C_23  and  C_25
REMARK   11  A    between atoms: C_25  and  O_26
REMARK   12  A    between atoms: O_27  and  C_28
REMARK   13  A    between atoms: C_28  and  C_29
REMARK                            x       y       z     vdW  Elec       q    Type
REMARK                         _______ _______ _______ _____ _____    ______ ____
ROOT
ATOM      1  C   UNL     1       2.768   7.839  18.670  0.00  0.00    +0.000 C 
ENDROOT
BRANCH   1   4
ATOM      2  O   UNL     1       1.741   7.360  21.364  0.00  0.00    +0.000 OA
ATOM      3  C   UNL     1       1.600   6.542  20.470  0.00  0.00    +0.000 C 
ATOM      4  N   UNL     1       1.932   6.740  19.167  0.00  0.00    +0.000 N 
ATOM      5  H   UNL     1       1.703   5.994  18.521  0.00  0.00    +0.000 HD
BRANCH   3   6
ATOM      6  O   UNL     1       1.166   5.270  20.621  0.00  0.00    +0.000 OA
BRANCH   6   7
ATOM      7  C   UNL     1       2.102   4.338  21.180  0.00  0.00    +0.000 C 
BRANCH   7   8
ATOM      8  C   UNL     1       2.548   3.408  20.084  0.00  0.00    +0.000 A 
ATOM      9  C   UNL     1       3.691   2.609  20.235  0.00  0.00    +0.000 A 
ATOM     10  C   UNL     1       4.123   1.793  19.188  0.00  0.00    +0.000 A 
ATOM     11  C   UNL     1       3.419   1.773  17.984  0.00  0.00    +0.000 A 
ATOM     12  C   UNL     1       2.282   2.562  17.827  0.00  0.00    +0.000 A 
ATOM     13  C   UNL     1       1.849   3.380  18.870  0.00  0.00    +0.000 A 
ENDBRANCH   7   8
ENDBRANCH   6   7
ENDBRANCH   3   6
ENDBRANCH   1   4
BRANCH   1  14
ATOM     14  C   UNL     1       1.817   9.051  18.412  0.00  0.00    +0.000 C 
ATOM     15  O   UNL     1       1.764   9.605  17.312  0.00  0.00    +0.000 OA
ATOM     16  N   UNL     1       1.027   9.457  19.463  0.00  0.00    +0.000 N 
ATOM     17  H   UNL     1       1.177   9.074  20.393  0.00  0.00    +0.000 HD
BRANCH  16  18
ATOM     18  C   UNL     1       0.250  10.703  19.451  0.00  0.00    +0.000 C 
BRANCH  18  19
ATOM     19  C   UNL     1       0.844  11.633  20.531  0.00  0.00    +0.000 C 
ATOM     20  O   UNL     1       0.540  11.529  21.727  0.00  0.00    +0.000 OA
BRANCH  19  21
ATOM     21  C   UNL     1       1.854  12.686  20.078  0.00  0.00    +0.000 C 
BRANCH  21  22
ATOM     22  O   UNL     1       2.567  13.274  21.154  0.00  0.00    +0.000 OA
ATOM     23  H   UNL     1       2.818  12.545  21.753  0.00  0.00    +0.000 HD
ENDBRANCH  21  22
ENDBRANCH  19  21
ENDBRANCH  18  19
BRANCH  18  24
ATOM     24  C   UNL     1      -1.262  10.474  19.627  0.00  0.00    +0.000 C 
BRANCH  24  25
ATOM     25  C   UNL     1      -2.022  10.671  18.333  0.00  0.00    +0.000 A 
ATOM     26  C   UNL     1      -3.120  11.536  18.273  0.00  0.00    +0.000 A 
ATOM     27  C   UNL     1      -3.950  11.544  17.154  0.00  0.00    +0.000 A 
ATOM     28  C   UNL     1      -3.669  10.712  16.073  0.00  0.00    +0.000 A 
ATOM     29  C   UNL     1      -2.536   9.903  16.090  0.00  0.00    +0.000 A 
ATOM     30  C   UNL     1      -1.709   9.892  17.211  0.00  0.00    +0.000 A 
ENDBRANCH  24  25
ENDBRANCH  18  24
ENDBRANCH  16  18
ENDBRANCH   1  14
BRANCH   1  31
ATOM     31  C   UNL     1       3.582   7.463  17.406  0.00  0.00    +0.000 C 
BRANCH  31  32
ATOM     32  C   UNL     1       4.463   6.238  17.558  0.00  0.00    +0.000 A 
ATOM     33  C   UNL     1       5.160   6.037  18.752  0.00  0.00    +0.000 A 
ATOM     34  C   UNL     1       6.129   5.037  18.848  0.00  0.00    +0.000 A 
ATOM     35  C   UNL     1       6.403   4.217  17.753  0.00  0.00    +0.000 A 
ATOM     36  C   UNL     1       5.674   4.363  16.581  0.00  0.00    +0.000 A 
ATOM     37  C   UNL     1       4.687   5.341  16.496  0.00  0.00    +0.000 A 
ENDBRANCH  31  32
ENDBRANCH   1  31
TORSDOF 13
ENDMDL
MODEL 6
REMARK VINA RESULT:      -8.6      0.780      1.291
REMARK  Name = 
REMARK  13 active torsions:
REMARK  status: ('A' for Active; 'I' for Inactive)
REMARK    1  A    between atoms: C_2  and  O_27
REMARK    2  A    between atoms: N_3  and  C_4
REMARK    3  A    between atoms: C_4  and  C_5
REMARK    4  A    between atoms: C_4  and  C_12
REMARK    5  A    between atoms: C_5  and  C_6
REMARK    6  A    between atoms: N_14  and  C_15
REMARK    7  A    between atoms: C_15  and  C_16
REMARK    8  A    between atoms: C_15  and  C_23
REMARK    9  A    between atoms: C_16  and  C_17
REMARK   10  A    between atoms: C_23  and  C_25
REMARK   11  A    between atoms: C_25  and  O_26
REMARK   12  A    between atoms: O_27  and  C_28
REMARK   13  A    between atoms: C_28  and  C_29
REMARK                            x       y       z     vdW  Elec       q    Type
REMARK                         _______ _______ _______ _____ _____    ______ ____
ROOT
ATOM      1  C   UNL     1       3.091   6.454  18.480  0.00  0.00    +0.000 C 
ENDROOT
BRANCH   1   4
ATOM      2  O   UNL     1       1.580   7.947  20.488  0.00  0.00    +0.000 OA
ATOM      3  C   UNL     1       1.899   8.448  19.422  0.00  0.00    +0.000 C 
ATOM      4  N   UNL     1       2.705   7.870  18.494  0.00  0.00    +0.000 N 
ATOM      5  H   UNL     1       2.934   8.428  17.679  0.00  0.00    +0.000 HD
BRANCH   3   6
ATOM      6  O   UNL     1       1.448   9.627  18.935  0.00  0.00    +0.000 OA
BRANCH   6   7
ATOM      7  C   UNL     1       0.434   9.554  17.923  0.00  0.00    +0.000 C 
BRANCH   7   8
ATOM      8  C   UNL     1      -0.710  10.437  18.341  0.00  0.00    +0.000 A 
ATOM      9  C   UNL     1      -0.623  11.235  19.490  0.00  0.00    +0.000 A 
ATOM     10  C   UNL     1      -1.714  12.007  19.896  0.00  0.00    +0.000 A 
ATOM     11  C   UNL     1      -2.897  11.982  19.159  0.00  0.00    +0.000 A 
ATOM     12  C   UNL     1      -2.991  11.194  18.014  0.00  0.00    +0.000 A 
ATOM     13  C   UNL     1      -1.904  10.420  17.608  0.00  0.00    +0.000 A 
ENDBRANCH   7   8
ENDBRANCH   6   7
ENDBRANCH   3   6
ENDBRANCH   1   4
BRANCH   1  14
ATOM     14  C   UNL     1       4.409   6.352  17.648  0.00  0.00    +0.000 C 
ATOM     15  O   UNL     1       4.712   7.206  16.813  0.00  0.00    +0.000 OA
ATOM     16  N   UNL     1       5.228   5.277  17.908  0.00  0.00    +0.000 N 
ATOM     17  H   UNL     1       4.902   4.519  18.503  0.00  0.00    +0.000 HD
BRANCH  16  18
ATOM     18  C   UNL     1       6.380   4.921  17.070  0.00  0.00    +0.000 C 
BRANCH  18  19
ATOM     19  C   UNL     1       7.623   4.870  17.983  0.00  0.00    +0.000 C 
ATOM     20  O   UNL     1       8.509   4.015  17.841  0.00  0.00    +0.000 OA
BRANCH  19  21
ATOM     21  C   UNL     1       7.745   5.936  19.069  0.00  0.00    +0.000 C 
BRANCH  21  22
ATOM     22  O   UNL     1       7.892   5.392  20.371  0.00  0.00    +0.000 OA
ATOM     23  H   UNL     1       8.493   4.626  20.287  0.00  0.00    +0.000 HD
ENDBRANCH  21  22
ENDBRANCH  19  21
ENDBRANCH  18  19
BRANCH  18  24
ATOM     24  C   UNL     1       6.562   5.860  15.864  0.00  0.00    +0.000 C 
BRANCH  24  25
ATOM     25  C   UNL     1       6.399   5.135  14.546  0.00  0.00    +0.000 A 
ATOM     26  C   UNL     1       5.276   4.336  14.302  0.00  0.00    +0.000 A 
ATOM     27  C   UNL     1       5.238   3.497  13.191  0.00  0.00    +0.000 A 
ATOM     28  C   UNL     1       6.304   3.475  12.296  0.00  0.00    +0.000 A 
ATOM     29  C   UNL     1       7.393   4.322  12.487  0.00  0.00    +0.000 A 
ATOM     30  C   UNL     1       7.434   5.157  13.601  0.00  0.00    +0.000 A 
ENDBRANCH  24  25
ENDBRANCH  18  24
ENDBRANCH  16  18
ENDBRANCH   1  14
BRANCH   1  31
ATOM     31  C   UNL     1       1.983   5.525  17.922  0.00  0.00    +0.000 C 
BRANCH  31  32
ATOM     32  C   UNL     1       1.777   4.241  18.704  0.00  0.00    +0.000 A 
ATOM     33  C   UNL     1       1.149   4.290  19.951  0.00  0.00    +0.000 A 
ATOM     34  C   UNL     1       1.128   3.166  20.778  0.00  0.00    +0.000 A 
ATOM     35  C   UNL     1       1.724   1.976  20.362  0.00  0.00    +0.000 A 
ATOM     36  C   UNL     1       2.296   1.894  19.100  0.00  0.00    +0.000 A 
ATOM     37  C   UNL     1       2.290   3.006  18.263  0.00  0.00    +0.000 A 
ENDBRANCH  31  32
ENDBRANCH   1  31
TORSDOF 13
ENDMDL
MODEL 7
REMARK VINA RESULT:      -8.6      3.388      8.382
REMARK  Name = 
REMARK  13 active torsions:
REMARK  status: ('A' for Active; 'I' for Inactive)
REMARK    1  A    between atoms: C_2  and  O_27
REMARK    2  A    between atoms: N_3  and  C_4
REMARK    3  A    between atoms: C_4  and  C_5
REMARK    4  A    between atoms: C_4  and  C_12
REMARK    5  A    between atoms: C_5  and  C_6
REMARK    6  A    between atoms: N_14  and  C_15
REMARK    7  A    between atoms: C_15  and  C_16
REMARK    8  A    between atoms: C_15  and  C_23
REMARK    9  A    between atoms: C_16  and  C_17
REMARK   10  A    between atoms: C_23  and  C_25
REMARK   11  A    between atoms: C_25  and  O_26
REMARK   12  A    between atoms: O_27  and  C_28
REMARK   13  A    between atoms: C_28  and  C_29
REMARK                            x       y       z     vdW  Elec       q    Type
REMARK                         _______ _______ _______ _____ _____    ______ ____
ROOT
ATOM      1  C   UNL     1       6.624   6.385  16.307  0.00  0.00    +0.000 C 
ENDROOT
BRANCH   1   4
ATOM      2  O   UNL     1       7.648   6.088  19.028  0.00  0.00    +0.000 OA
ATOM      3  C   UNL     1       7.966   7.032  18.324  0.00  0.00    +0.000 C 
ATOM      4  N   UNL     1       7.638   7.176  17.013  0.00  0.00    +0.000 N 
ATOM      5  H   UNL     1       8.022   7.983  16.535  0.00  0.00    +0.000 HD
BRANCH   3   6
ATOM      6  O   UNL     1       8.627   8.138  18.733  0.00  0.00    +0.000 OA
BRANCH   6   7
ATOM      7  C   UNL     1       8.371   9.344  18.000  0.00  0.00    +0.000 C 
BRANCH   7   8
ATOM      8  C   UNL     1       9.153  10.458  18.641  0.00  0.00    +0.000 A 
ATOM      9  C   UNL     1       9.724  11.478  17.867  0.00  0.00    +0.000 A 
ATOM     10  C   UNL     1      10.493  12.474  18.471  0.00  0.00    +0.000 A 
ATOM     11  C   UNL     1      10.700  12.454  19.850  0.00  0.00    +0.000 A 
ATOM     12  C   UNL     1      10.134  11.446  20.627  0.00  0.00    +0.000 A 
ATOM     13  C   UNL     1       9.367  10.449  20.026  0.00  0.00    +0.000 A 
ENDBRANCH   7   8
ENDBRANCH   6   7
ENDBRANCH   3   6
ENDBRANCH   1   4
BRANCH   1  14
ATOM     14  C   UNL     1       5.331   6.420  17.184  0.00  0.00    +0.000 C 
ATOM     15  O   UNL     1       4.855   7.483  17.587  0.00  0.00    +0.000 OA
ATOM     16  N   UNL     1       4.738   5.211  17.467  0.00  0.00    +0.000 N 
ATOM     17  H   UNL     1       5.213   4.342  17.237  0.00  0.00    +0.000 HD
BRANCH  16  18
ATOM     18  C   UNL     1       3.657   5.055  18.449  0.00  0.00    +0.000 C 
BRANCH  18  19
ATOM     19  C   UNL     1       3.510   3.547  18.745  0.00  0.00    +0.000 C 
ATOM     20  O   UNL     1       2.856   2.794  18.011  0.00  0.00    +0.000 OA
BRANCH  19  21
ATOM     21  C   UNL     1       4.226   2.996  19.976  0.00  0.00    +0.000 C 
BRANCH  21  22
ATOM     22  O   UNL     1       5.048   1.876  19.689  0.00  0.00    +0.000 OA
ATOM     23  H   UNL     1       5.459   2.047  18.820  0.00  0.00    +0.000 HD
ENDBRANCH  21  22
ENDBRANCH  19  21
ENDBRANCH  18  19
BRANCH  18  24
ATOM     24  C   UNL     1       2.337   5.708  18.003  0.00  0.00    +0.000 C 
BRANCH  24  25
ATOM     25  C   UNL     1       2.054   6.992  18.751  0.00  0.00    +0.000 A 
ATOM     26  C   UNL     1       1.908   6.993  20.143  0.00  0.00    +0.000 A 
ATOM     27  C   UNL     1       1.427   8.123  20.800  0.00  0.00    +0.000 A 
ATOM     28  C   UNL     1       1.121   9.273  20.076  0.00  0.00    +0.000 A 
ATOM     29  C   UNL     1       1.335   9.309  18.701  0.00  0.00    +0.000 A 
ATOM     30  C   UNL     1       1.811   8.177  18.043  0.00  0.00    +0.000 A 
ENDBRANCH  24  25
ENDBRANCH  18  24
ENDBRANCH  16  18
ENDBRANCH   1  14
BRANCH   1  31
ATOM     31  C   UNL     1       7.080   4.934  16.008  0.00  0.00    +0.000 C 
BRANCH  31  32
ATOM     32  C   UNL     1       7.033   4.543  14.543  0.00  0.00    +0.000 A 
ATOM     33  C   UNL     1       7.828   5.231  13.623  0.00  0.00    +0.000 A 
ATOM     34  C   UNL     1       7.657   5.033  12.252  0.00  0.00    +0.000 A 
ATOM     35  C   UNL     1       6.698   4.134  11.786  0.00  0.00    +0.000 A 
ATOM     36  C   UNL     1       5.946   3.396  12.689  0.00  0.00    +0.000 A 
ATOM     37  C   UNL     1       6.137   3.572  14.056  0.00  0.00    +0.000 A 
ENDBRANCH  31  32
ENDBRANCH   1  31
TORSDOF 13
ENDMDL
MODEL 8
REMARK VINA RESULT:      -8.5      2.734      6.105
REMARK  Name = 
REMARK  13 active torsions:
REMARK  status: ('A' for Active; 'I' for Inactive)
REMARK    1  A    between atoms: C_2  and  O_27
REMARK    2  A    between atoms: N_3  and  C_4
REMARK    3  A    between atoms: C_4  and  C_5
REMARK    4  A    between atoms: C_4  and  C_12
REMARK    5  A    between atoms: C_5  and  C_6
REMARK    6  A    between atoms: N_14  and  C_15
REMARK    7  A    between atoms: C_15  and  C_16
REMARK    8  A    between atoms: C_15  and  C_23
REMARK    9  A    between atoms: C_16  and  C_17
REMARK   10  A    between atoms: C_23  and  C_25
REMARK   11  A    between atoms: C_25  and  O_26
REMARK   12  A    between atoms: O_27  and  C_28
REMARK   13  A    between atoms: C_28  and  C_29
REMARK                            x       y       z     vdW  Elec       q    Type
REMARK                         _______ _______ _______ _____ _____    ______ ____
ROOT
ATOM      1  C   UNL     1       1.462   8.455  19.246  0.00  0.00    +0.000 C 
ENDROOT
BRANCH   1   4
ATOM      2  O   UNL     1      -0.516   8.054  21.361  0.00  0.00    +0.000 OA
ATOM      3  C   UNL     1       0.438   8.801  21.509  0.00  0.00    +0.000 C 
ATOM      4  N   UNL     1       1.464   8.944  20.630  0.00  0.00    +0.000 N 
ATOM      5  H   UNL     1       2.221   9.557  20.911  0.00  0.00    +0.000 HD
BRANCH   3   6
ATOM      6  O   UNL     1       0.608   9.675  22.526  0.00  0.00    +0.000 OA
BRANCH   6   7
ATOM      7  C   UNL     1      -0.552   9.966  23.319  0.00  0.00    +0.000 C 
BRANCH   7   8
ATOM      8  C   UNL     1      -1.060  11.326  22.923  0.00  0.00    +0.000 A 
ATOM      9  C   UNL     1      -2.360  11.735  23.256  0.00  0.00    +0.000 A 
ATOM     10  C   UNL     1      -2.836  12.978  22.834  0.00  0.00    +0.000 A 
ATOM     11  C   UNL     1      -2.020  13.816  22.075  0.00  0.00    +0.000 A 
ATOM     12  C   UNL     1      -0.727  13.418  21.742  0.00  0.00    +0.000 A 
ATOM     13  C   UNL     1      -0.249  12.176  22.161  0.00  0.00    +0.000 A 
ENDBRANCH   7   8
ENDBRANCH   6   7
ENDBRANCH   3   6
ENDBRANCH   1   4
BRANCH   1  14
ATOM     14  C   UNL     1       2.445   7.242  19.193  0.00  0.00    +0.000 C 
ATOM     15  O   UNL     1       2.696   6.572  20.196  0.00  0.00    +0.000 OA
ATOM     16  N   UNL     1       2.999   6.944  17.969  0.00  0.00    +0.000 N 
ATOM     17  H   UNL     1       2.883   7.582  17.186  0.00  0.00    +0.000 HD
BRANCH  16  18
ATOM     18  C   UNL     1       4.098   5.985  17.796  0.00  0.00    +0.000 C 
BRANCH  18  19
ATOM     19  C   UNL     1       5.148   6.640  16.874  0.00  0.00    +0.000 C 
ATOM     20  O   UNL     1       4.888   6.966  15.708  0.00  0.00    +0.000 OA
BRANCH  19  21
ATOM     21  C   UNL     1       6.534   6.905  17.459  0.00  0.00    +0.000 C 
BRANCH  21  22
ATOM     22  O   UNL     1       7.587   6.611  16.555  0.00  0.00    +0.000 OA
ATOM     23  H   UNL     1       7.884   5.703  16.758  0.00  0.00    +0.000 HD
ENDBRANCH  21  22
ENDBRANCH  19  21
ENDBRANCH  18  19
BRANCH  18  24
ATOM     24  C   UNL     1       3.626   4.613  17.282  0.00  0.00    +0.000 C 
BRANCH  24  25
ATOM     25  C   UNL     1       2.923   3.812  18.357  0.00  0.00    +0.000 A 
ATOM     26  C   UNL     1       1.534   3.647  18.334  0.00  0.00    +0.000 A 
ATOM     27  C   UNL     1       0.871   3.109  19.434  0.00  0.00    +0.000 A 
ATOM     28  C   UNL     1       1.594   2.700  20.552  0.00  0.00    +0.000 A 
ATOM     29  C   UNL     1       2.983   2.789  20.556  0.00  0.00    +0.000 A 
ATOM     30  C   UNL     1       3.646   3.331  19.457  0.00  0.00    +0.000 A 
ENDBRANCH  24  25
ENDBRANCH  18  24
ENDBRANCH  16  18
ENDBRANCH   1  14
BRANCH   1  31
ATOM     31  C   UNL     1       1.835   9.547  18.212  0.00  0.00    +0.000 C 
BRANCH  31  32
ATOM     32  C   UNL     1       1.125  10.874  18.405  0.00  0.00    +0.000 A 
ATOM     33  C   UNL     1      -0.271  10.917  18.371  0.00  0.00    +0.000 A 
ATOM     34  C   UNL     1      -0.941  12.141  18.341  0.00  0.00    +0.000 A 
ATOM     35  C   UNL     1      -0.223  13.336  18.358  0.00  0.00    +0.000 A 
ATOM     36  C   UNL     1       1.161  13.309  18.457  0.00  0.00    +0.000 A 
ATOM     37  C   UNL     1       1.828  12.089  18.516  0.00  0.00    +0.000 A 
ENDBRANCH  31  32
ENDBRANCH   1  31
TORSDOF 13
ENDMDL
MODEL 9
REMARK VINA RESULT:      -8.5      3.399      8.438
REMARK  Name = 
REMARK  13 active torsions:
REMARK  status: ('A' for Active; 'I' for Inactive)
REMARK    1  A    between atoms: C_2  and  O_27
REMARK    2  A    between atoms: N_3  and  C_4
REMARK    3  A    between atoms: C_4  and  C_5
REMARK    4  A    between atoms: C_4  and  C_12
REMARK    5  A    between atoms: C_5  and  C_6
REMARK    6  A    between atoms: N_14  and  C_15
REMARK    7  A    between atoms: C_15  and  C_16
REMARK    8  A    between atoms: C_15  and  C_23
REMARK    9  A    between atoms: C_16  and  C_17
REMARK   10  A    between atoms: C_23  and  C_25
REMARK   11  A    between atoms: C_25  and  O_26
REMARK   12  A    between atoms: O_27  and  C_28
REMARK   13  A    between atoms: C_28  and  C_29
REMARK                            x       y       z     vdW  Elec       q    Type
REMARK                         _______ _______ _______ _____ _____    ______ ____
ROOT
ATOM      1  C   UNL     1       6.718   6.380  16.356  0.00  0.00    +0.000 C 
ENDROOT
BRANCH   1   4
ATOM      2  O   UNL     1       7.719   6.059  19.084  0.00  0.00    +0.000 OA
ATOM      3  C   UNL     1       8.035   7.015  18.394  0.00  0.00    +0.000 C 
ATOM      4  N   UNL     1       7.719   7.172  17.082  0.00  0.00    +0.000 N 
ATOM      5  H   UNL     1       8.099   7.989  16.617  0.00  0.00    +0.000 HD
BRANCH   3   6
ATOM      6  O   UNL     1       8.682   8.122  18.823  0.00  0.00    +0.000 OA
BRANCH   6   7
ATOM      7  C   UNL     1       8.391   9.342  18.127  0.00  0.00    +0.000 C 
BRANCH   7   8
ATOM      8  C   UNL     1       9.272  10.424  18.690  0.00  0.00    +0.000 A 
ATOM      9  C   UNL     1      10.075  11.212  17.851  0.00  0.00    +0.000 A 
ATOM     10  C   UNL     1      10.928  12.174  18.394  0.00  0.00    +0.000 A 
ATOM     11  C   UNL     1      10.989  12.353  19.775  0.00  0.00    +0.000 A 
ATOM     12  C   UNL     1      10.193  11.577  20.615  0.00  0.00    +0.000 A 
ATOM     13  C   UNL     1       9.341  10.613  20.077  0.00  0.00    +0.000 A 
ENDBRANCH   7   8
ENDBRANCH   6   7
ENDBRANCH   3   6
ENDBRANCH   1   4
BRANCH   1  14
ATOM     14  C   UNL     1       5.429   6.363  17.237  0.00  0.00    +0.000 C 
ATOM     15  O   UNL     1       4.831   7.402  17.525  0.00  0.00    +0.000 OA
ATOM     16  N   UNL     1       4.979   5.133  17.660  0.00  0.00    +0.000 N 
ATOM     17  H   UNL     1       5.553   4.305  17.523  0.00  0.00    +0.000 HD
BRANCH  16  18
ATOM     18  C   UNL     1       3.922   4.964  18.664  0.00  0.00    +0.000 C 
BRANCH  18  19
ATOM     19  C   UNL     1       3.987   3.507  19.170  0.00  0.00    +0.000 C 
ATOM     20  O   UNL     1       4.995   3.048  19.723  0.00  0.00    +0.000 OA
BRANCH  19  21
ATOM     21  C   UNL     1       2.743   2.639  18.987  0.00  0.00    +0.000 C 
BRANCH  21  22
ATOM     22  O   UNL     1       2.595   2.148  17.664  0.00  0.00    +0.000 OA
ATOM     23  H   UNL     1       3.205   1.389  17.579  0.00  0.00    +0.000 HD
ENDBRANCH  21  22
ENDBRANCH  19  21
ENDBRANCH  18  19
BRANCH  18  24
ATOM     24  C   UNL     1       2.527   5.353  18.144  0.00  0.00    +0.000 C 
BRANCH  24  25
ATOM     25  C   UNL     1       1.981   6.582  18.838  0.00  0.00    +0.000 A 
ATOM     26  C   UNL     1       1.821   7.786  18.142  0.00  0.00    +0.000 A 
ATOM     27  C   UNL     1       1.537   8.964  18.830  0.00  0.00    +0.000 A 
ATOM     28  C   UNL     1       1.378   8.942  20.213  0.00  0.00    +0.000 A 
ATOM     29  C   UNL     1       1.459   7.738  20.907  0.00  0.00    +0.000 A 
ATOM     30  C   UNL     1       1.748   6.561  20.220  0.00  0.00    +0.000 A 
ENDBRANCH  24  25
ENDBRANCH  18  24
ENDBRANCH  16  18
ENDBRANCH   1  14
BRANCH   1  31
ATOM     31  C   UNL     1       7.204   4.949  16.015  0.00  0.00    +0.000 C 
BRANCH  31  32
ATOM     32  C   UNL     1       7.073   4.565  14.553  0.00  0.00    +0.000 A 
ATOM     33  C   UNL     1       7.864   5.213  13.600  0.00  0.00    +0.000 A 
ATOM     34  C   UNL     1       7.624   5.029  12.237  0.00  0.00    +0.000 A 
ATOM     35  C   UNL     1       6.598   4.185  11.812  0.00  0.00    +0.000 A 
ATOM     36  C   UNL     1       5.847   3.486  12.746  0.00  0.00    +0.000 A 
ATOM     37  C   UNL     1       6.106   3.646  14.104  0.00  0.00    +0.000 A 
ENDBRANCH  31  32
ENDBRANCH   1  31
TORSDOF 13
ENDMDL
