MODEL 1
REMARK VINA RESULT:      -7.4      0.000      0.000
REMARK  Name = 
REMARK  5 active torsions:
REMARK  status: ('A' for Active; 'I' for Inactive)
REMARK    1  A    between atoms: C_1  and  C_2
REMARK    2  A    between atoms: C_2  and  C_3
REMARK    3  A    between atoms: C_3  and  C_4
REMARK    4  A    between atoms: C_3  and  N_5
REMARK    5  A    between atoms: C_20  and  N_21
REMARK                            x       y       z     vdW  Elec       q    Type
REMARK                         _______ _______ _______ _____ _____    ______ ____
ROOT
ATOM      1  N   UNL     1      -4.163  12.088  18.812  0.00  0.00    +0.000 N 
ATOM      2  C   UNL     1      -5.454  12.592  18.894  0.00  0.00    +0.000 A 
ATOM      3  C   UNL     1      -6.480  12.653  17.958  0.00  0.00    +0.000 A 
ATOM      4  N   UNL     1      -7.664  13.213  18.303  0.00  0.00    +0.000 NA
ATOM      5  C   UNL     1      -7.827  13.702  19.549  0.00  0.00    +0.000 A 
ATOM      6  C   UNL     1      -6.852  13.676  20.535  0.00  0.00    +0.000 A 
ATOM      7  C   UNL     1      -5.621  13.098  20.188  0.00  0.00    +0.000 A 
ATOM      8  C   UNL     1      -4.406  12.883  20.894  0.00  0.00    +0.000 A 
ATOM      9  C   UNL     1      -3.909  13.133  22.167  0.00  0.00    +0.000 A 
ATOM     10  N   UNL     1      -2.652  12.754  22.494  0.00  0.00    +0.000 NA
ATOM     11  C   UNL     1      -1.892  12.137  21.570  0.00  0.00    +0.000 A 
ATOM     12  N   UNL     1      -0.637  11.702  21.989  0.00  0.00    +0.000 N 
ATOM     13  C   UNL     1       0.107  10.649  21.459  0.00  0.00    +0.000 A 
ATOM     14  C   UNL     1       0.083  10.317  20.109  0.00  0.00    +0.000 A 
ATOM     15  C   UNL     1       0.681   9.148  19.652  0.00  0.00    +0.000 A 
ATOM     16  C   UNL     1       1.366   8.327  20.532  0.00  0.00    +0.000 A 
ATOM     17  C   UNL     1       1.445   8.811  21.842  0.00  0.00    +0.000 A 
ATOM     18  N   UNL     1       0.837   9.927  22.326  0.00  0.00    +0.000 NA
ATOM     19  N   UNL     1      -2.289  11.889  20.314  0.00  0.00    +0.000 NA
ATOM     20  C   UNL     1      -3.537  12.261  20.023  0.00  0.00    +0.000 A 
ATOM     21  H   UNL     1      -0.557  11.750  22.994  0.00  0.00    +0.000 HD
ENDROOT
BRANCH  16  22
ATOM     22  N   UNL     1       1.967   7.151  20.146  0.00  0.00    +0.000 N 
ATOM     23  C   UNL     1       2.714   7.010  18.888  0.00  0.00    +0.000 C 
ATOM     24  C   UNL     1       3.876   6.016  19.132  0.00  0.00    +0.000 C 
ATOM     25  N   UNL     1       3.444   4.706  19.669  0.00  0.00    +0.000 NA
ATOM     26  C   UNL     1       2.591   4.900  20.862  0.00  0.00    +0.000 C 
ATOM     27  C   UNL     1       1.417   5.873  20.624  0.00  0.00    +0.000 C 
ATOM     28  H   UNL     1       4.273   4.181  19.947  0.00  0.00    +0.000 HD
ENDBRANCH  16  22
BRANCH   1  29
ATOM     29  C   UNL     1      -3.550  11.489  17.620  0.00  0.00    +0.000 C 
ATOM     30  C   UNL     1      -4.483  11.552  16.401  0.00  0.00    +0.000 C 
BRANCH  29  32
ATOM     31  C   UNL     1      -1.837   9.696  16.958  0.00  0.00    +0.000 C 
ATOM     32  C   UNL     1      -3.034  10.051  17.828  0.00  0.00    +0.000 C 
ENDBRANCH  29  32
ENDBRANCH   1  29
TORSDOF 3
ENDMDL
MODEL 2
REMARK VINA RESULT:      -7.3      3.944      5.314
REMARK  Name = 
REMARK  5 active torsions:
REMARK  status: ('A' for Active; 'I' for Inactive)
REMARK    1  A    between atoms: C_1  and  C_2
REMARK    2  A    between atoms: C_2  and  C_3
REMARK    3  A    between atoms: C_3  and  C_4
REMARK    4  A    between atoms: C_3  and  N_5
REMARK    5  A    between atoms: C_20  and  N_21
REMARK                            x       y       z     vdW  Elec       q    Type
REMARK                         _______ _______ _______ _____ _____    ______ ____
ROOT
ATOM      1  N   UNL     1      -0.190  12.410  21.511  0.00  0.00    +0.000 N 
ATOM      2  C   UNL     1      -0.264  13.696  22.031  0.00  0.00    +0.000 A 
ATOM      3  C   UNL     1      -0.888  14.196  23.168  0.00  0.00    +0.000 A 
ATOM      4  N   UNL     1      -0.806  15.520  23.444  0.00  0.00    +0.000 NA
ATOM      5  C   UNL     1      -0.121  16.329  22.612  0.00  0.00    +0.000 A 
ATOM      6  C   UNL     1       0.527  15.904  21.462  0.00  0.00    +0.000 A 
ATOM      7  C   UNL     1       0.449  14.535  21.165  0.00  0.00    +0.000 A 
ATOM      8  C   UNL     1       0.965  13.729  20.113  0.00  0.00    +0.000 A 
ATOM      9  C   UNL     1       1.728  13.915  18.969  0.00  0.00    +0.000 A 
ATOM     10  N   UNL     1       2.046  12.860  18.183  0.00  0.00    +0.000 NA
ATOM     11  C   UNL     1       1.608  11.634  18.523  0.00  0.00    +0.000 A 
ATOM     12  N   UNL     1       2.032  10.578  17.720  0.00  0.00    +0.000 N 
ATOM     13  C   UNL     1       2.171   9.242  18.092  0.00  0.00    +0.000 A 
ATOM     14  C   UNL     1       1.334   8.629  19.017  0.00  0.00    +0.000 A 
ATOM     15  C   UNL     1       1.621   7.359  19.507  0.00  0.00    +0.000 A 
ATOM     16  C   UNL     1       2.717   6.661  19.029  0.00  0.00    +0.000 A 
ATOM     17  C   UNL     1       3.422   7.307  18.008  0.00  0.00    +0.000 A 
ATOM     18  N   UNL     1       3.190   8.563  17.539  0.00  0.00    +0.000 NA
ATOM     19  N   UNL     1       0.842  11.380  19.594  0.00  0.00    +0.000 NA
ATOM     20  C   UNL     1       0.556  12.435  20.357  0.00  0.00    +0.000 A 
ATOM     21  H   UNL     1       2.769  10.873  17.098  0.00  0.00    +0.000 HD
ENDROOT
BRANCH  16  22
ATOM     22  N   UNL     1       3.063   5.409  19.482  0.00  0.00    +0.000 N 
ATOM     23  C   UNL     1       2.389   4.752  20.611  0.00  0.00    +0.000 C 
ATOM     24  C   UNL     1       2.366   3.229  20.333  0.00  0.00    +0.000 C 
ATOM     25  N   UNL     1       3.700   2.645  20.070  0.00  0.00    +0.000 NA
ATOM     26  C   UNL     1       4.394   3.415  19.013  0.00  0.00    +0.000 C 
ATOM     27  C   UNL     1       4.441   4.932  19.290  0.00  0.00    +0.000 C 
ATOM     28  H   UNL     1       3.575   1.688  19.742  0.00  0.00    +0.000 HD
ENDBRANCH  16  22
BRANCH   1  29
ATOM     29  C   UNL     1      -0.827  11.218  22.083  0.00  0.00    +0.000 C 
ATOM     30  C   UNL     1      -1.904  11.581  23.118  0.00  0.00    +0.000 C 
BRANCH  29  32
ATOM     31  C   UNL     1      -0.235   8.744  22.432  0.00  0.00    +0.000 C 
ATOM     32  C   UNL     1       0.163  10.194  22.674  0.00  0.00    +0.000 C 
ENDBRANCH  29  32
ENDBRANCH   1  29
TORSDOF 3
ENDMDL
MODEL 3
REMARK VINA RESULT:      -7.3      4.387      6.529
REMARK  Name = 
REMARK  5 active torsions:
REMARK  status: ('A' for Active; 'I' for Inactive)
REMARK    1  A    between atoms: C_1  and  C_2
REMARK    2  A    between atoms: C_2  and  C_3
REMARK    3  A    between atoms: C_3  and  C_4
REMARK    4  A    between atoms: C_3  and  N_5
REMARK    5  A    between atoms: C_20  and  N_21
REMARK                            x       y       z     vdW  Elec       q    Type
REMARK                         _______ _______ _______ _____ _____    ______ ____
ROOT
ATOM      1  N   UNL     1      -3.730  12.939  20.341  0.00  0.00    +0.000 N 
ATOM      2  C   UNL     1      -5.051  12.634  20.039  0.00  0.00    +0.000 A 
ATOM      3  C   UNL     1      -6.245  13.019  20.637  0.00  0.00    +0.000 A 
ATOM      4  N   UNL     1      -7.417  12.564  20.135  0.00  0.00    +0.000 NA
ATOM      5  C   UNL     1      -7.406  11.745  19.065  0.00  0.00    +0.000 A 
ATOM      6  C   UNL     1      -6.257  11.319  18.416  0.00  0.00    +0.000 A 
ATOM      7  C   UNL     1      -5.036  11.783  18.927  0.00  0.00    +0.000 A 
ATOM      8  C   UNL     1      -3.678  11.586  18.554  0.00  0.00    +0.000 A 
ATOM      9  C   UNL     1      -2.982  10.884  17.579  0.00  0.00    +0.000 A 
ATOM     10  N   UNL     1      -1.631  10.951  17.526  0.00  0.00    +0.000 NA
ATOM     11  C   UNL     1      -0.976  11.701  18.431  0.00  0.00    +0.000 A 
ATOM     12  N   UNL     1       0.406  11.793  18.278  0.00  0.00    +0.000 N 
ATOM     13  C   UNL     1       1.231  12.833  18.700  0.00  0.00    +0.000 A 
ATOM     14  C   UNL     1       0.984  13.566  19.856  0.00  0.00    +0.000 A 
ATOM     15  C   UNL     1       1.712  14.715  20.140  0.00  0.00    +0.000 A 
ATOM     16  C   UNL     1       2.741  15.113  19.303  0.00  0.00    +0.000 A 
ATOM     17  C   UNL     1       2.997  14.241  18.238  0.00  0.00    +0.000 A 
ATOM     18  N   UNL     1       2.277  13.134  17.912  0.00  0.00    +0.000 NA
ATOM     19  N   UNL     1      -1.575  12.381  19.419  0.00  0.00    +0.000 NA
ATOM     20  C   UNL     1      -2.907  12.308  19.439  0.00  0.00    +0.000 A 
ATOM     21  H   UNL     1       0.693  11.425  17.383  0.00  0.00    +0.000 HD
ENDROOT
BRANCH  16  22
ATOM     22  N   UNL     1       3.490  16.246  19.521  0.00  0.00    +0.000 N 
ATOM     23  C   UNL     1       2.963  17.433  20.208  0.00  0.00    +0.000 C 
ATOM     24  C   UNL     1       4.123  18.077  21.005  0.00  0.00    +0.000 C 
ATOM     25  N   UNL     1       5.312  18.397  20.184  0.00  0.00    +0.000 NA
ATOM     26  C   UNL     1       5.733  17.207  19.412  0.00  0.00    +0.000 C 
ATOM     27  C   UNL     1       4.589  16.568  18.598  0.00  0.00    +0.000 C 
ATOM     28  H   UNL     1       6.074  18.663  20.808  0.00  0.00    +0.000 HD
ENDBRANCH  16  22
BRANCH   1  29
ATOM     29  C   UNL     1      -3.278  13.777  21.458  0.00  0.00    +0.000 C 
ATOM     30  C   UNL     1      -2.506  15.014  20.974  0.00  0.00    +0.000 C 
BRANCH  29  32
ATOM     31  C   UNL     1      -3.320  12.362  23.600  0.00  0.00    +0.000 C 
ATOM     32  C   UNL     1      -2.463  13.021  22.527  0.00  0.00    +0.000 C 
ENDBRANCH  29  32
ENDBRANCH   1  29
TORSDOF 3
ENDMDL
MODEL 4
REMARK VINA RESULT:      -7.2      4.166      6.216
REMARK  Name = 
REMARK  5 active torsions:
REMARK  status: ('A' for Active; 'I' for Inactive)
REMARK    1  A    between atoms: C_1  and  C_2
REMARK    2  A    between atoms: C_2  and  C_3
REMARK    3  A    between atoms: C_3  and  C_4
REMARK    4  A    between atoms: C_3  and  N_5
REMARK    5  A    between atoms: C_20  and  N_21
REMARK                            x       y       z     vdW  Elec       q    Type
REMARK                         _______ _______ _______ _____ _____    ______ ____
ROOT
ATOM      1  N   UNL     1      -3.687  12.787  20.296  0.00  0.00    +0.000 N 
ATOM      2  C   UNL     1      -5.019  12.602  19.946  0.00  0.00    +0.000 A 
ATOM      3  C   UNL     1      -6.196  13.057  20.527  0.00  0.00    +0.000 A 
ATOM      4  N   UNL     1      -7.385  12.717  19.975  0.00  0.00    +0.000 NA
ATOM      5  C   UNL     1      -7.406  11.944  18.871  0.00  0.00    +0.000 A 
ATOM      6  C   UNL     1      -6.275  11.454  18.236  0.00  0.00    +0.000 A 
ATOM      7  C   UNL     1      -5.038  11.798  18.799  0.00  0.00    +0.000 A 
ATOM      8  C   UNL     1      -3.689  11.508  18.455  0.00  0.00    +0.000 A 
ATOM      9  C   UNL     1      -3.021  10.793  17.470  0.00  0.00    +0.000 A 
ATOM     10  N   UNL     1      -1.668  10.753  17.456  0.00  0.00    +0.000 NA
ATOM     11  C   UNL     1      -0.983  11.411  18.410  0.00  0.00    +0.000 A 
ATOM     12  N   UNL     1       0.405  11.398  18.298  0.00  0.00    +0.000 N 
ATOM     13  C   UNL     1       1.297  12.351  18.787  0.00  0.00    +0.000 A 
ATOM     14  C   UNL     1       1.073  13.053  19.966  0.00  0.00    +0.000 A 
ATOM     15  C   UNL     1       1.882  14.128  20.319  0.00  0.00    +0.000 A 
ATOM     16  C   UNL     1       2.963  14.475  19.528  0.00  0.00    +0.000 A 
ATOM     17  C   UNL     1       3.182  13.630  18.434  0.00  0.00    +0.000 A 
ATOM     18  N   UNL     1       2.386  12.599  18.041  0.00  0.00    +0.000 NA
ATOM     19  N   UNL     1      -1.556  12.096  19.410  0.00  0.00    +0.000 NA
ATOM     20  C   UNL     1      -2.890  12.129  19.391  0.00  0.00    +0.000 A 
ATOM     21  H   UNL     1       0.689  11.045  17.396  0.00  0.00    +0.000 HD
ENDROOT
BRANCH  16  22
ATOM     22  N   UNL     1       3.792  15.535  19.814  0.00  0.00    +0.000 N 
ATOM     23  C   UNL     1       5.210  15.568  19.430  0.00  0.00    +0.000 C 
ATOM     24  C   UNL     1       5.583  17.036  19.108  0.00  0.00    +0.000 C 
ATOM     25  N   UNL     1       5.285  17.986  20.202  0.00  0.00    +0.000 NA
ATOM     26  C   UNL     1       3.881  17.831  20.643  0.00  0.00    +0.000 C 
ATOM     27  C   UNL     1       3.504  16.375  20.987  0.00  0.00    +0.000 C 
ATOM     28  H   UNL     1       5.409  18.935  19.849  0.00  0.00    +0.000 HD
ENDBRANCH  16  22
BRANCH   1  29
ATOM     29  C   UNL     1      -3.205  13.540  21.460  0.00  0.00    +0.000 C 
ATOM     30  C   UNL     1      -2.402  14.784  21.048  0.00  0.00    +0.000 C 
BRANCH  29  32
ATOM     31  C   UNL     1      -1.204  13.420  23.065  0.00  0.00    +0.000 C 
ATOM     32  C   UNL     1      -2.405  12.695  22.473  0.00  0.00    +0.000 C 
ENDBRANCH  29  32
ENDBRANCH   1  29
TORSDOF 3
ENDMDL
MODEL 5
REMARK VINA RESULT:      -7.1      0.894      1.381
REMARK  Name = 
REMARK  5 active torsions:
REMARK  status: ('A' for Active; 'I' for Inactive)
REMARK    1  A    between atoms: C_1  and  C_2
REMARK    2  A    between atoms: C_2  and  C_3
REMARK    3  A    between atoms: C_3  and  C_4
REMARK    4  A    between atoms: C_3  and  N_5
REMARK    5  A    between atoms: C_20  and  N_21
REMARK                            x       y       z     vdW  Elec       q    Type
REMARK                         _______ _______ _______ _____ _____    ______ ____
ROOT
ATOM      1  N   UNL     1      -4.323  11.727  18.417  0.00  0.00    +0.000 N 
ATOM      2  C   UNL     1      -5.574  12.310  18.574  0.00  0.00    +0.000 A 
ATOM      3  C   UNL     1      -6.746  12.188  17.837  0.00  0.00    +0.000 A 
ATOM      4  N   UNL     1      -7.844  12.887  18.212  0.00  0.00    +0.000 NA
ATOM      5  C   UNL     1      -7.781  13.689  19.293  0.00  0.00    +0.000 A 
ATOM      6  C   UNL     1      -6.650  13.861  20.077  0.00  0.00    +0.000 A 
ATOM      7  C   UNL     1      -5.507  13.143  19.698  0.00  0.00    +0.000 A 
ATOM      8  C   UNL     1      -4.190  13.045  20.226  0.00  0.00    +0.000 A 
ATOM      9  C   UNL     1      -3.477  13.585  21.288  0.00  0.00    +0.000 A 
ATOM     10  N   UNL     1      -2.187  13.230  21.492  0.00  0.00    +0.000 NA
ATOM     11  C   UNL     1      -1.607  12.353  20.652  0.00  0.00    +0.000 A 
ATOM     12  N   UNL     1      -0.304  11.967  20.959  0.00  0.00    +0.000 N 
ATOM     13  C   UNL     1       0.322  10.772  20.611  0.00  0.00    +0.000 A 
ATOM     14  C   UNL     1       0.059  10.105  19.420  0.00  0.00    +0.000 A 
ATOM     15  C   UNL     1       0.553   8.824  19.196  0.00  0.00    +0.000 A 
ATOM     16  C   UNL     1       1.369   8.219  20.136  0.00  0.00    +0.000 A 
ATOM     17  C   UNL     1       1.681   9.019  21.240  0.00  0.00    +0.000 A 
ATOM     18  N   UNL     1       1.182  10.256  21.506  0.00  0.00    +0.000 NA
ATOM     19  N   UNL     1      -2.220  11.813  19.589  0.00  0.00    +0.000 NA
ATOM     20  C   UNL     1      -3.494  12.170  19.420  0.00  0.00    +0.000 A 
ATOM     21  H   UNL     1      -0.050  12.268  21.888  0.00  0.00    +0.000 HD
ENDROOT
BRANCH  16  22
ATOM     22  N   UNL     1       1.878   6.951  19.981  0.00  0.00    +0.000 N 
ATOM     23  C   UNL     1       1.782   5.918  21.022  0.00  0.00    +0.000 C 
ATOM     24  C   UNL     1       1.632   4.545  20.320  0.00  0.00    +0.000 C 
ATOM     25  N   UNL     1       2.703   4.248  19.344  0.00  0.00    +0.000 NA
ATOM     26  C   UNL     1       2.851   5.371  18.391  0.00  0.00    +0.000 C 
ATOM     27  C   UNL     1       3.022   6.741  19.080  0.00  0.00    +0.000 C 
ATOM     28  H   UNL     1       2.442   3.413  18.820  0.00  0.00    +0.000 HD
ENDBRANCH  16  22
BRANCH   1  29
ATOM     29  C   UNL     1      -3.936  10.807  17.341  0.00  0.00    +0.000 C 
ATOM     30  C   UNL     1      -3.356   9.494  17.889  0.00  0.00    +0.000 C 
BRANCH  29  32
ATOM     31  C   UNL     1      -2.796  10.563  15.054  0.00  0.00    +0.000 C 
ATOM     32  C   UNL     1      -2.982  11.421  16.297  0.00  0.00    +0.000 C 
ENDBRANCH  29  32
ENDBRANCH   1  29
TORSDOF 3
ENDMDL
MODEL 6
REMARK VINA RESULT:      -7.0      2.626      8.686
REMARK  Name = 
REMARK  5 active torsions:
REMARK  status: ('A' for Active; 'I' for Inactive)
REMARK    1  A    between atoms: C_1  and  C_2
REMARK    2  A    between atoms: C_2  and  C_3
REMARK    3  A    between atoms: C_3  and  C_4
REMARK    4  A    between atoms: C_3  and  N_5
REMARK    5  A    between atoms: C_20  and  N_21
REMARK                            x       y       z     vdW  Elec       q    Type
REMARK                         _______ _______ _______ _____ _____    ______ ____
ROOT
ATOM      1  N   UNL     1       1.384   8.527  20.228  0.00  0.00    +0.000 N 
ATOM      2  C   UNL     1       2.130   7.660  19.440  0.00  0.00    +0.000 A 
ATOM      3  C   UNL     1       2.448   6.316  19.596  0.00  0.00    +0.000 A 
ATOM      4  N   UNL     1       3.212   5.701  18.663  0.00  0.00    +0.000 NA
ATOM      5  C   UNL     1       3.652   6.402  17.598  0.00  0.00    +0.000 A 
ATOM      6  C   UNL     1       3.376   7.742  17.375  0.00  0.00    +0.000 A 
ATOM      7  C   UNL     1       2.585   8.391  18.335  0.00  0.00    +0.000 A 
ATOM      8  C   UNL     1       2.092   9.718  18.465  0.00  0.00    +0.000 A 
ATOM      9  C   UNL     1       2.165  10.906  17.750  0.00  0.00    +0.000 A 
ATOM     10  N   UNL     1       1.524  12.011  18.197  0.00  0.00    +0.000 NA
ATOM     11  C   UNL     1       0.823  11.943  19.344  0.00  0.00    +0.000 A 
ATOM     12  N   UNL     1       0.122  13.090  19.712  0.00  0.00    +0.000 N 
ATOM     13  C   UNL     1      -1.025  13.156  20.500  0.00  0.00    +0.000 A 
ATOM     14  C   UNL     1      -1.268  12.277  21.549  0.00  0.00    +0.000 A 
ATOM     15  C   UNL     1      -2.505  12.250  22.184  0.00  0.00    +0.000 A 
ATOM     16  C   UNL     1      -3.495  13.146  21.818  0.00  0.00    +0.000 A 
ATOM     17  C   UNL     1      -3.112  14.074  20.844  0.00  0.00    +0.000 A 
ATOM     18  N   UNL     1      -1.926  14.099  20.177  0.00  0.00    +0.000 NA
ATOM     19  N   UNL     1       0.731  10.843  20.105  0.00  0.00    +0.000 NA
ATOM     20  C   UNL     1       1.360   9.766  19.633  0.00  0.00    +0.000 A 
ATOM     21  H   UNL     1       0.096  13.754  18.953  0.00  0.00    +0.000 HD
ENDROOT
BRANCH  16  22
ATOM     22  N   UNL     1      -4.743  13.161  22.397  0.00  0.00    +0.000 N 
ATOM     23  C   UNL     1      -5.964  13.509  21.656  0.00  0.00    +0.000 C 
ATOM     24  C   UNL     1      -7.128  12.665  22.232  0.00  0.00    +0.000 C 
ATOM     25  N   UNL     1      -7.309  12.809  23.694  0.00  0.00    +0.000 NA
ATOM     26  C   UNL     1      -6.025  12.575  24.392  0.00  0.00    +0.000 C 
ATOM     27  C   UNL     1      -4.862  13.425  23.839  0.00  0.00    +0.000 C 
ATOM     28  H   UNL     1      -7.979  12.108  24.008  0.00  0.00    +0.000 HD
ENDBRANCH  16  22
BRANCH   1  29
ATOM     29  C   UNL     1       0.745   8.189  21.506  0.00  0.00    +0.000 C 
ATOM     30  C   UNL     1      -0.787   8.160  21.392  0.00  0.00    +0.000 C 
BRANCH  29  32
ATOM     31  C   UNL     1       0.023   9.569  23.546  0.00  0.00    +0.000 C 
ATOM     32  C   UNL     1       1.180   9.080  22.686  0.00  0.00    +0.000 C 
ENDBRANCH  29  32
ENDBRANCH   1  29
TORSDOF 3
ENDMDL
MODEL 7
REMARK VINA RESULT:      -6.9      3.488      5.469
REMARK  Name = 
REMARK  5 active torsions:
REMARK  status: ('A' for Active; 'I' for Inactive)
REMARK    1  A    between atoms: C_1  and  C_2
REMARK    2  A    between atoms: C_2  and  C_3
REMARK    3  A    between atoms: C_3  and  C_4
REMARK    4  A    between atoms: C_3  and  N_5
REMARK    5  A    between atoms: C_20  and  N_21
REMARK                            x       y       z     vdW  Elec       q    Type
REMARK                         _______ _______ _______ _____ _____    ______ ____
ROOT
ATOM      1  N   UNL     1       0.034  13.262  21.655  0.00  0.00    +0.000 N 
ATOM      2  C   UNL     1       0.098  14.563  22.138  0.00  0.00    +0.000 A 
ATOM      3  C   UNL     1      -0.410  15.141  23.296  0.00  0.00    +0.000 A 
ATOM      4  N   UNL     1      -0.205  16.460  23.526  0.00  0.00    +0.000 NA
ATOM      5  C   UNL     1       0.488  17.189  22.629  0.00  0.00    +0.000 A 
ATOM      6  C   UNL     1       1.025  16.683  21.455  0.00  0.00    +0.000 A 
ATOM      7  C   UNL     1       0.819  15.318  21.205  0.00  0.00    +0.000 A 
ATOM      8  C   UNL     1       1.200  14.445  20.149  0.00  0.00    +0.000 A 
ATOM      9  C   UNL     1       1.901  14.539  18.954  0.00  0.00    +0.000 A 
ATOM     10  N   UNL     1       2.083  13.442  18.183  0.00  0.00    +0.000 NA
ATOM     11  C   UNL     1       1.570  12.265  18.587  0.00  0.00    +0.000 A 
ATOM     12  N   UNL     1       1.856  11.157  17.792  0.00  0.00    +0.000 N 
ATOM     13  C   UNL     1       1.911   9.824  18.195  0.00  0.00    +0.000 A 
ATOM     14  C   UNL     1       1.088   9.306  19.189  0.00  0.00    +0.000 A 
ATOM     15  C   UNL     1       1.303   8.030  19.698  0.00  0.00    +0.000 A 
ATOM     16  C   UNL     1       2.306   7.232  19.176  0.00  0.00    +0.000 A 
ATOM     17  C   UNL     1       2.994   7.792  18.094  0.00  0.00    +0.000 A 
ATOM     18  N   UNL     1       2.834   9.050  17.602  0.00  0.00    +0.000 NA
ATOM     19  N   UNL     1       0.856  12.102  19.710  0.00  0.00    +0.000 NA
ATOM     20  C   UNL     1       0.705  13.197  20.457  0.00  0.00    +0.000 A 
ATOM     21  H   UNL     1       2.574  11.375  17.117  0.00  0.00    +0.000 HD
ENDROOT
BRANCH  16  22
ATOM     22  N   UNL     1       2.579   5.968  19.645  0.00  0.00    +0.000 N 
ATOM     23  C   UNL     1       1.819   5.337  20.733  0.00  0.00    +0.000 C 
ATOM     24  C   UNL     1       1.754   3.816  20.450  0.00  0.00    +0.000 C 
ATOM     25  N   UNL     1       3.078   3.182  20.261  0.00  0.00    +0.000 NA
ATOM     26  C   UNL     1       3.859   3.925  19.247  0.00  0.00    +0.000 C 
ATOM     27  C   UNL     1       3.947   5.439  19.530  0.00  0.00    +0.000 C 
ATOM     28  H   UNL     1       2.936   2.230  19.925  0.00  0.00    +0.000 HD
ENDBRANCH  16  22
BRANCH   1  29
ATOM     29  C   UNL     1      -0.659  12.141  22.301  0.00  0.00    +0.000 C 
ATOM     30  C   UNL     1       0.122  10.825  22.161  0.00  0.00    +0.000 C 
BRANCH  29  32
ATOM     31  C   UNL     1      -3.139  12.633  22.742  0.00  0.00    +0.000 C 
ATOM     32  C   UNL     1      -2.119  11.951  21.842  0.00  0.00    +0.000 C 
ENDBRANCH  29  32
ENDBRANCH   1  29
TORSDOF 3
ENDMDL
MODEL 8
REMARK VINA RESULT:      -6.9      4.390      6.627
REMARK  Name = 
REMARK  5 active torsions:
REMARK  status: ('A' for Active; 'I' for Inactive)
REMARK    1  A    between atoms: C_1  and  C_2
REMARK    2  A    between atoms: C_2  and  C_3
REMARK    3  A    between atoms: C_3  and  C_4
REMARK    4  A    between atoms: C_3  and  N_5
REMARK    5  A    between atoms: C_20  and  N_21
REMARK                            x       y       z     vdW  Elec       q    Type
REMARK                         _______ _______ _______ _____ _____    ______ ____
ROOT
ATOM      1  N   UNL     1      -3.721  12.862  20.380  0.00  0.00    +0.000 N 
ATOM      2  C   UNL     1      -5.042  12.548  20.088  0.00  0.00    +0.000 A 
ATOM      3  C   UNL     1      -6.234  12.913  20.704  0.00  0.00    +0.000 A 
ATOM      4  N   UNL     1      -7.407  12.452  20.208  0.00  0.00    +0.000 NA
ATOM      5  C   UNL     1      -7.399  11.648  19.127  0.00  0.00    +0.000 A 
ATOM      6  C   UNL     1      -6.253  11.242  18.460  0.00  0.00    +0.000 A 
ATOM      7  C   UNL     1      -5.032  11.712  18.964  0.00  0.00    +0.000 A 
ATOM      8  C   UNL     1      -3.675  11.534  18.575  0.00  0.00    +0.000 A 
ATOM      9  C   UNL     1      -2.983  10.852  17.584  0.00  0.00    +0.000 A 
ATOM     10  N   UNL     1      -1.633  10.932  17.517  0.00  0.00    +0.000 NA
ATOM     11  C   UNL     1      -0.976  11.677  18.425  0.00  0.00    +0.000 A 
ATOM     12  N   UNL     1       0.403  11.785  18.259  0.00  0.00    +0.000 N 
ATOM     13  C   UNL     1       1.222  12.828  18.686  0.00  0.00    +0.000 A 
ATOM     14  C   UNL     1       0.980  13.543  19.854  0.00  0.00    +0.000 A 
ATOM     15  C   UNL     1       1.700  14.696  20.146  0.00  0.00    +0.000 A 
ATOM     16  C   UNL     1       2.716  15.114  19.304  0.00  0.00    +0.000 A 
ATOM     17  C   UNL     1       2.969  14.260  18.225  0.00  0.00    +0.000 A 
ATOM     18  N   UNL     1       2.257  13.150  17.891  0.00  0.00    +0.000 NA
ATOM     19  N   UNL     1      -1.571  12.338  19.428  0.00  0.00    +0.000 NA
ATOM     20  C   UNL     1      -2.902  12.252  19.461  0.00  0.00    +0.000 A 
ATOM     21  H   UNL     1       0.684  11.433  17.356  0.00  0.00    +0.000 HD
ENDROOT
BRANCH  16  22
ATOM     22  N   UNL     1       3.455  16.252  19.529  0.00  0.00    +0.000 N 
ATOM     23  C   UNL     1       2.911  17.440  20.202  0.00  0.00    +0.000 C 
ATOM     24  C   UNL     1       4.055  18.093  21.015  0.00  0.00    +0.000 C 
ATOM     25  N   UNL     1       5.256  18.415  20.213  0.00  0.00    +0.000 NA
ATOM     26  C   UNL     1       5.696  17.223  19.453  0.00  0.00    +0.000 C 
ATOM     27  C   UNL     1       4.568  16.576  18.623  0.00  0.00    +0.000 C 
ATOM     28  H   UNL     1       6.006  18.687  20.848  0.00  0.00    +0.000 HD
ENDBRANCH  16  22
BRANCH   1  29
ATOM     29  C   UNL     1      -3.266  13.690  21.504  0.00  0.00    +0.000 C 
ATOM     30  C   UNL     1      -3.482  12.993  22.856  0.00  0.00    +0.000 C 
BRANCH  29  32
ATOM     31  C   UNL     1      -3.147  16.067  22.466  0.00  0.00    +0.000 C 
ATOM     32  C   UNL     1      -3.868  15.109  21.529  0.00  0.00    +0.000 C 
ENDBRANCH  29  32
ENDBRANCH   1  29
TORSDOF 3
ENDMDL
MODEL 9
REMARK VINA RESULT:      -6.9      1.067      1.191
REMARK  Name = 
REMARK  5 active torsions:
REMARK  status: ('A' for Active; 'I' for Inactive)
REMARK    1  A    between atoms: C_1  and  C_2
REMARK    2  A    between atoms: C_2  and  C_3
REMARK    3  A    between atoms: C_3  and  C_4
REMARK    4  A    between atoms: C_3  and  N_5
REMARK    5  A    between atoms: C_20  and  N_21
REMARK                            x       y       z     vdW  Elec       q    Type
REMARK                         _______ _______ _______ _____ _____    ______ ____
ROOT
ATOM      1  N   UNL     1      -4.296  12.316  19.975  0.00  0.00    +0.000 N 
ATOM      2  C   UNL     1      -5.586  12.746  20.257  0.00  0.00    +0.000 A 
ATOM      3  C   UNL     1      -6.689  12.952  19.436  0.00  0.00    +0.000 A 
ATOM      4  N   UNL     1      -7.850  13.390  19.979  0.00  0.00    +0.000 NA
ATOM      5  C   UNL     1      -7.916  13.618  21.306  0.00  0.00    +0.000 A 
ATOM      6  C   UNL     1      -6.861  13.435  22.186  0.00  0.00    +0.000 A 
ATOM      7  C   UNL     1      -5.653  12.983  21.636  0.00  0.00    +0.000 A 
ATOM      8  C   UNL     1      -4.377  12.677  22.186  0.00  0.00    +0.000 A 
ATOM      9  C   UNL     1      -3.780  12.691  23.439  0.00  0.00    +0.000 A 
ATOM     10  N   UNL     1      -2.492  12.301  23.584  0.00  0.00    +0.000 NA
ATOM     11  C   UNL     1      -1.800  11.907  22.499  0.00  0.00    +0.000 A 
ATOM     12  N   UNL     1      -0.506  11.444  22.722  0.00  0.00    +0.000 N 
ATOM     13  C   UNL     1       0.212  10.544  21.936  0.00  0.00    +0.000 A 
ATOM     14  C   UNL     1       0.080  10.483  20.553  0.00  0.00    +0.000 A 
ATOM     15  C   UNL     1       0.661   9.449  19.827  0.00  0.00    +0.000 A 
ATOM     16  C   UNL     1       1.435   8.497  20.468  0.00  0.00    +0.000 A 
ATOM     17  C   UNL     1       1.615   8.718  21.839  0.00  0.00    +0.000 A 
ATOM     18  N   UNL     1       1.027   9.694  22.582  0.00  0.00    +0.000 NA
ATOM     19  N   UNL     1      -2.298  11.896  21.254  0.00  0.00    +0.000 NA
ATOM     20  C   UNL     1      -3.573  12.272  21.143  0.00  0.00    +0.000 A 
ATOM     21  H   UNL     1      -0.342  11.297  23.706  0.00  0.00    +0.000 HD
ENDROOT
BRANCH  16  22
ATOM     22  N   UNL     1       2.025   7.444  19.810  0.00  0.00    +0.000 N 
ATOM     23  C   UNL     1       2.311   7.460  18.369  0.00  0.00    +0.000 C 
ATOM     24  C   UNL     1       3.612   6.654  18.132  0.00  0.00    +0.000 C 
ATOM     25  N   UNL     1       3.574   5.277  18.672  0.00  0.00    +0.000 NA
ATOM     26  C   UNL     1       3.159   5.298  20.092  0.00  0.00    +0.000 C 
ATOM     27  C   UNL     1       1.852   6.081  20.337  0.00  0.00    +0.000 C 
ATOM     28  H   UNL     1       4.512   4.881  18.616  0.00  0.00    +0.000 HD
ENDBRANCH  16  22
BRANCH   1  29
ATOM     29  C   UNL     1      -3.775  11.987  18.642  0.00  0.00    +0.000 C 
ATOM     30  C   UNL     1      -4.421  10.716  18.070  0.00  0.00    +0.000 C 
BRANCH  29  32
ATOM     31  C   UNL     1      -1.727  11.098  17.374  0.00  0.00    +0.000 C 
ATOM     32  C   UNL     1      -2.238  11.887  18.572  0.00  0.00    +0.000 C 
ENDBRANCH  29  32
ENDBRANCH   1  29
TORSDOF 3
ENDMDL
