MODEL 1
REMARK VINA RESULT:      -8.0      0.000      0.000
REMARK  Name = 
REMARK  4 active torsions:
REMARK  status: ('A' for Active; 'I' for Inactive)
REMARK    1  A    between atoms: N_1  and  C_2
REMARK    2  A    between atoms: C_6  and  C_7
REMARK    3  A    between atoms: C_11  and  N_12
REMARK    4  A    between atoms: N_12  and  C_13
REMARK                            x       y       z     vdW  Elec       q    Type
REMARK                         _______ _______ _______ _____ _____    ______ ____
ROOT
ATOM      1  C   UNL     1       6.485   4.915  16.085  0.00  0.00    +0.000 A 
ATOM      2  C   UNL     1       7.365   4.539  17.095  0.00  0.00    +0.000 A 
ATOM      3  N   UNL     1       7.109   4.710  18.413  0.00  0.00    +0.000 NA
ATOM      4  C   UNL     1       5.914   5.285  18.690  0.00  0.00    +0.000 A 
ATOM      5  C   UNL     1       5.015   5.710  17.711  0.00  0.00    +0.000 A 
ATOM      6  N   UNL     1       5.299   5.499  16.403  0.00  0.00    +0.000 NA
ENDROOT
BRANCH   1  11
ATOM      7  C   UNL     1       6.394   3.440  12.586  0.00  0.00    +0.000 A 
ATOM      8  C   UNL     1       7.268   4.335  11.974  0.00  0.00    +0.000 A 
ATOM      9  N   UNL     1       7.899   5.350  12.606  0.00  0.00    +0.000 NA
ATOM     10  C   UNL     1       7.615   5.505  13.921  0.00  0.00    +0.000 A 
ATOM     11  C   UNL     1       6.739   4.704  14.653  0.00  0.00    +0.000 A 
ATOM     12  C   UNL     1       6.101   3.678  13.931  0.00  0.00    +0.000 A 
BRANCH   7  13
ATOM     13  N   UNL     1       5.662   2.502  11.851  0.00  0.00    +0.000 N 
ATOM     14  H   UNL     1       5.222   1.779  12.413  0.00  0.00    +0.000 HD
ATOM     15  H   UNL     1       5.022   2.910  11.177  0.00  0.00    +0.000 HD
ENDBRANCH   7  13
ENDBRANCH   1  11
BRANCH   5  16
ATOM     16  N   UNL     1       3.783   6.304  18.078  0.00  0.00    +0.000 N 
ATOM     17  H   UNL     1       3.333   6.714  17.264  0.00  0.00    +0.000 HD
BRANCH  16  18
ATOM     18  C   UNL     1       2.783   5.638  18.835  0.00  0.00    +0.000 A 
ATOM     19  C   UNL     1       2.373   6.103  20.096  0.00  0.00    +0.000 A 
ATOM     20  C   UNL     1       1.463   5.385  20.872  0.00  0.00    +0.000 A 
ATOM     21  C   UNL     1       0.964   4.175  20.400  0.00  0.00    +0.000 A 
ATOM     22  C   UNL     1       1.378   3.692  19.161  0.00  0.00    +0.000 A 
ATOM     23 CL   UNL     1       0.767   2.187  18.587  0.00  0.00    +0.000 Cl
ATOM     24  C   UNL     1       2.291   4.408  18.383  0.00  0.00    +0.000 A 
ENDBRANCH  16  18
ENDBRANCH   5  16
TORSDOF 4
ENDMDL
MODEL 2
REMARK VINA RESULT:      -7.9      1.660      1.888
REMARK  Name = 
REMARK  4 active torsions:
REMARK  status: ('A' for Active; 'I' for Inactive)
REMARK    1  A    between atoms: N_1  and  C_2
REMARK    2  A    between atoms: C_6  and  C_7
REMARK    3  A    between atoms: C_11  and  N_12
REMARK    4  A    between atoms: N_12  and  C_13
REMARK                            x       y       z     vdW  Elec       q    Type
REMARK                         _______ _______ _______ _____ _____    ______ ____
ROOT
ATOM      1  C   UNL     1       6.657   5.073  16.102  0.00  0.00    +0.000 A 
ATOM      2  C   UNL     1       7.109   6.209  16.765  0.00  0.00    +0.000 A 
ATOM      3  N   UNL     1       6.953   6.411  18.095  0.00  0.00    +0.000 NA
ATOM      4  C   UNL     1       6.315   5.413  18.751  0.00  0.00    +0.000 A 
ATOM      5  C   UNL     1       5.815   4.271  18.123  0.00  0.00    +0.000 A 
ATOM      6  N   UNL     1       6.011   4.096  16.795  0.00  0.00    +0.000 NA
ENDROOT
BRANCH   1  11
ATOM      7  C   UNL     1       6.398   3.531  12.641  0.00  0.00    +0.000 A 
ATOM      8  C   UNL     1       7.261   4.398  11.976  0.00  0.00    +0.000 A 
ATOM      9  N   UNL     1       7.935   5.414  12.561  0.00  0.00    +0.000 NA
ATOM     10  C   UNL     1       7.707   5.600  13.882  0.00  0.00    +0.000 A 
ATOM     11  C   UNL     1       6.849   4.829  14.666  0.00  0.00    +0.000 A 
ATOM     12  C   UNL     1       6.164   3.800  13.992  0.00  0.00    +0.000 A 
BRANCH   7  13
ATOM     13  N   UNL     1       5.621   2.591  11.956  0.00  0.00    +0.000 N 
ATOM     14  H   UNL     1       6.097   1.716  11.757  0.00  0.00    +0.000 HD
ATOM     15  H   UNL     1       4.697   2.447  12.354  0.00  0.00    +0.000 HD
ENDBRANCH   7  13
ENDBRANCH   1  11
BRANCH   5  16
ATOM     16  N   UNL     1       5.158   3.268  18.876  0.00  0.00    +0.000 N 
ATOM     17  H   UNL     1       5.579   3.185  19.797  0.00  0.00    +0.000 HD
BRANCH  16  18
ATOM     18  C   UNL     1       3.748   3.203  19.039  0.00  0.00    +0.000 A 
ATOM     19  C   UNL     1       2.864   3.591  18.018  0.00  0.00    +0.000 A 
ATOM     20  C   UNL     1       1.485   3.617  18.226  0.00  0.00    +0.000 A 
ATOM     21  C   UNL     1       0.972   3.270  19.471  0.00  0.00    +0.000 A 
ATOM     22  C   UNL     1       1.839   2.905  20.500  0.00  0.00    +0.000 A 
ATOM     23 CL   UNL     1       1.199   2.490  22.045  0.00  0.00    +0.000 Cl
ATOM     24  C   UNL     1       3.220   2.881  20.295  0.00  0.00    +0.000 A 
ENDBRANCH  16  18
ENDBRANCH   5  16
TORSDOF 4
ENDMDL
MODEL 3
REMARK VINA RESULT:      -7.8      1.134      1.450
REMARK  Name = 
REMARK  4 active torsions:
REMARK  status: ('A' for Active; 'I' for Inactive)
REMARK    1  A    between atoms: N_1  and  C_2
REMARK    2  A    between atoms: C_6  and  C_7
REMARK    3  A    between atoms: C_11  and  N_12
REMARK    4  A    between atoms: N_12  and  C_13
REMARK                            x       y       z     vdW  Elec       q    Type
REMARK                         _______ _______ _______ _____ _____    ______ ____
ROOT
ATOM      1  C   UNL     1       6.625   4.812  16.274  0.00  0.00    +0.000 A 
ATOM      2  C   UNL     1       7.648   4.605  17.194  0.00  0.00    +0.000 A 
ATOM      3  N   UNL     1       7.478   4.697  18.535  0.00  0.00    +0.000 NA
ATOM      4  C   UNL     1       6.221   5.011  18.929  0.00  0.00    +0.000 A 
ATOM      5  C   UNL     1       5.173   5.261  18.042  0.00  0.00    +0.000 A 
ATOM      6  N   UNL     1       5.378   5.136  16.709  0.00  0.00    +0.000 NA
ENDROOT
BRANCH   1  11
ATOM      7  C   UNL     1       6.232   3.611  12.693  0.00  0.00    +0.000 A 
ATOM      8  C   UNL     1       7.156   4.464  12.097  0.00  0.00    +0.000 A 
ATOM      9  N   UNL     1       7.909   5.369  12.763  0.00  0.00    +0.000 NA
ATOM     10  C   UNL     1       7.703   5.454  14.098  0.00  0.00    +0.000 A 
ATOM     11  C   UNL     1       6.791   4.684  14.820  0.00  0.00    +0.000 A 
ATOM     12  C   UNL     1       6.026   3.775  14.065  0.00  0.00    +0.000 A 
BRANCH   7  13
ATOM     13  N   UNL     1       5.381   2.798  11.936  0.00  0.00    +0.000 N 
ATOM     14  H   UNL     1       4.472   3.209  11.739  0.00  0.00    +0.000 HD
ATOM     15  H   UNL     1       5.813   2.402  11.107  0.00  0.00    +0.000 HD
ENDBRANCH   7  13
ENDBRANCH   1  11
BRANCH   5  16
ATOM     16  N   UNL     1       3.883   5.584  18.529  0.00  0.00    +0.000 N 
ATOM     17  H   UNL     1       3.462   6.310  17.956  0.00  0.00    +0.000 HD
BRANCH  16  18
ATOM     18  C   UNL     1       2.881   4.616  18.807  0.00  0.00    +0.000 A 
ATOM     19  C   UNL     1       1.915   4.253  17.853  0.00  0.00    +0.000 A 
ATOM     20  C   UNL     1       0.878   3.376  18.171  0.00  0.00    +0.000 A 
ATOM     21  C   UNL     1       0.784   2.863  19.461  0.00  0.00    +0.000 A 
ATOM     22  C   UNL     1       1.723   3.232  20.423  0.00  0.00    +0.000 A 
ATOM     23 CL   UNL     1       1.595   2.605  22.022  0.00  0.00    +0.000 Cl
ATOM     24  C   UNL     1       2.761   4.112  20.107  0.00  0.00    +0.000 A 
ENDBRANCH  16  18
ENDBRANCH   5  16
TORSDOF 4
ENDMDL
MODEL 4
REMARK VINA RESULT:      -7.8      2.920      3.998
REMARK  Name = 
REMARK  4 active torsions:
REMARK  status: ('A' for Active; 'I' for Inactive)
REMARK    1  A    between atoms: N_1  and  C_2
REMARK    2  A    between atoms: C_6  and  C_7
REMARK    3  A    between atoms: C_11  and  N_12
REMARK    4  A    between atoms: N_12  and  C_13
REMARK                            x       y       z     vdW  Elec       q    Type
REMARK                         _______ _______ _______ _____ _____    ______ ____
ROOT
ATOM      1  C   UNL     1       4.013   4.586  17.275  0.00  0.00    +0.000 A 
ATOM      2  C   UNL     1       3.085   3.550  17.250  0.00  0.00    +0.000 A 
ATOM      3  N   UNL     1       2.043   3.457  18.110  0.00  0.00    +0.000 NA
ATOM      4  C   UNL     1       1.961   4.462  19.014  0.00  0.00    +0.000 A 
ATOM      5  C   UNL     1       2.887   5.503  19.100  0.00  0.00    +0.000 A 
ATOM      6  N   UNL     1       3.903   5.571  18.206  0.00  0.00    +0.000 NA
ENDROOT
BRANCH   1  11
ATOM      7  C   UNL     1       6.291   4.012  14.291  0.00  0.00    +0.000 A 
ATOM      8  C   UNL     1       7.256   4.970  14.594  0.00  0.00    +0.000 A 
ATOM      9  N   UNL     1       7.240   5.758  15.692  0.00  0.00    +0.000 NA
ATOM     10  C   UNL     1       6.180   5.609  16.521  0.00  0.00    +0.000 A 
ATOM     11  C   UNL     1       5.129   4.713  16.327  0.00  0.00    +0.000 A 
ATOM     12  C   UNL     1       5.197   3.935  15.156  0.00  0.00    +0.000 A 
BRANCH   7  13
ATOM     13  N   UNL     1       6.285   3.329  13.070  0.00  0.00    +0.000 N 
ATOM     14  H   UNL     1       6.594   3.883  12.277  0.00  0.00    +0.000 HD
ATOM     15  H   UNL     1       6.733   2.418  13.102  0.00  0.00    +0.000 HD
ENDBRANCH   7  13
ENDBRANCH   1  11
BRANCH   5  16
ATOM     16  N   UNL     1       2.736   6.519  20.074  0.00  0.00    +0.000 N 
ATOM     17  H   UNL     1       3.645   6.812  20.421  0.00  0.00    +0.000 HD
BRANCH  16  18
ATOM     18  C   UNL     1       1.951   7.687  19.878  0.00  0.00    +0.000 A 
ATOM     19  C   UNL     1       1.946   8.382  18.657  0.00  0.00    +0.000 A 
ATOM     20  C   UNL     1       1.249   9.582  18.510  0.00  0.00    +0.000 A 
ATOM     21  C   UNL     1       0.560  10.113  19.595  0.00  0.00    +0.000 A 
ATOM     22  C   UNL     1       0.575   9.445  20.818  0.00  0.00    +0.000 A 
ATOM     23 CL   UNL     1      -0.269  10.113  22.164  0.00  0.00    +0.000 Cl
ATOM     24  C   UNL     1       1.274   8.245  20.969  0.00  0.00    +0.000 A 
ENDBRANCH  16  18
ENDBRANCH   5  16
TORSDOF 4
ENDMDL
MODEL 5
REMARK VINA RESULT:      -7.6      4.915      8.675
REMARK  Name = 
REMARK  4 active torsions:
REMARK  status: ('A' for Active; 'I' for Inactive)
REMARK    1  A    between atoms: N_1  and  C_2
REMARK    2  A    between atoms: C_6  and  C_7
REMARK    3  A    between atoms: C_11  and  N_12
REMARK    4  A    between atoms: N_12  and  C_13
REMARK                            x       y       z     vdW  Elec       q    Type
REMARK                         _______ _______ _______ _____ _____    ______ ____
ROOT
ATOM      1  C   UNL     1       1.124   9.345  19.825  0.00  0.00    +0.000 A 
ATOM      2  C   UNL     1       1.189   9.943  18.571  0.00  0.00    +0.000 A 
ATOM      3  N   UNL     1       1.858   9.410  17.521  0.00  0.00    +0.000 NA
ATOM      4  C   UNL     1       2.473   8.231  17.779  0.00  0.00    +0.000 A 
ATOM      5  C   UNL     1       2.465   7.611  19.029  0.00  0.00    +0.000 A 
ATOM      6  N   UNL     1       1.764   8.166  20.047  0.00  0.00    +0.000 NA
ENDROOT
BRANCH   1  11
ATOM      7  C   UNL     1      -1.266  11.467  21.877  0.00  0.00    +0.000 A 
ATOM      8  C   UNL     1      -0.986  10.923  23.128  0.00  0.00    +0.000 A 
ATOM      9  N   UNL     1      -0.073   9.953  23.359  0.00  0.00    +0.000 NA
ATOM     10  C   UNL     1       0.575   9.470  22.273  0.00  0.00    +0.000 A 
ATOM     11  C   UNL     1       0.374   9.899  20.961  0.00  0.00    +0.000 A 
ATOM     12  C   UNL     1      -0.602  10.898  20.787  0.00  0.00    +0.000 A 
BRANCH   7  13
ATOM     13  N   UNL     1      -2.320  12.365  21.680  0.00  0.00    +0.000 N 
ATOM     14  H   UNL     1      -2.970  12.428  22.458  0.00  0.00    +0.000 HD
ATOM     15  H   UNL     1      -2.031  13.279  21.344  0.00  0.00    +0.000 HD
ENDBRANCH   7  13
ENDBRANCH   1  11
BRANCH   5  16
ATOM     16  N   UNL     1       3.132   6.377  19.223  0.00  0.00    +0.000 N 
ATOM     17  H   UNL     1       3.722   6.422  20.049  0.00  0.00    +0.000 HD
BRANCH  16  18
ATOM     18  C   UNL     1       2.473   5.119  19.231  0.00  0.00    +0.000 A 
ATOM     19  C   UNL     1       1.915   4.566  18.066  0.00  0.00    +0.000 A 
ATOM     20  C   UNL     1       1.185   3.378  18.106  0.00  0.00    +0.000 A 
ATOM     21  C   UNL     1       0.987   2.736  19.324  0.00  0.00    +0.000 A 
ATOM     22  C   UNL     1       1.516   3.285  20.491  0.00  0.00    +0.000 A 
ATOM     23 CL   UNL     1       1.256   2.493  21.998  0.00  0.00    +0.000 Cl
ATOM     24  C   UNL     1       2.245   4.476  20.453  0.00  0.00    +0.000 A 
ENDBRANCH  16  18
ENDBRANCH   5  16
TORSDOF 4
ENDMDL
MODEL 6
REMARK VINA RESULT:      -7.6      1.589      1.988
REMARK  Name = 
REMARK  4 active torsions:
REMARK  status: ('A' for Active; 'I' for Inactive)
REMARK    1  A    between atoms: N_1  and  C_2
REMARK    2  A    between atoms: C_6  and  C_7
REMARK    3  A    between atoms: C_11  and  N_12
REMARK    4  A    between atoms: N_12  and  C_13
REMARK                            x       y       z     vdW  Elec       q    Type
REMARK                         _______ _______ _______ _____ _____    ______ ____
ROOT
ATOM      1  C   UNL     1       6.664   5.064  16.174  0.00  0.00    +0.000 A 
ATOM      2  C   UNL     1       7.156   6.186  16.833  0.00  0.00    +0.000 A 
ATOM      3  N   UNL     1       7.015   6.395  18.163  0.00  0.00    +0.000 NA
ATOM      4  C   UNL     1       6.348   5.420  18.824  0.00  0.00    +0.000 A 
ATOM      5  C   UNL     1       5.807   4.294  18.202  0.00  0.00    +0.000 A 
ATOM      6  N   UNL     1       5.990   4.111  16.872  0.00  0.00    +0.000 NA
ENDROOT
BRANCH   1  11
ATOM      7  C   UNL     1       6.351   3.512  12.721  0.00  0.00    +0.000 A 
ATOM      8  C   UNL     1       7.221   4.364  12.045  0.00  0.00    +0.000 A 
ATOM      9  N   UNL     1       7.914   5.372  12.620  0.00  0.00    +0.000 NA
ATOM     10  C   UNL     1       7.701   5.567  13.943  0.00  0.00    +0.000 A 
ATOM     11  C   UNL     1       6.839   4.812  14.737  0.00  0.00    +0.000 A 
ATOM     12  C   UNL     1       6.133   3.790  14.074  0.00  0.00    +0.000 A 
BRANCH   7  13
ATOM     13  N   UNL     1       5.554   2.581  12.048  0.00  0.00    +0.000 N 
ATOM     14  H   UNL     1       5.878   1.621  12.118  0.00  0.00    +0.000 HD
ATOM     15  H   UNL     1       4.561   2.669  12.240  0.00  0.00    +0.000 HD
ENDBRANCH   7  13
ENDBRANCH   1  11
BRANCH   5  16
ATOM     16  N   UNL     1       5.121   3.314  18.960  0.00  0.00    +0.000 N 
ATOM     17  H   UNL     1       5.655   3.075  19.791  0.00  0.00    +0.000 HD
BRANCH  16  18
ATOM     18  C   UNL     1       3.757   3.426  19.340  0.00  0.00    +0.000 A 
ATOM     19  C   UNL     1       2.820   2.420  19.049  0.00  0.00    +0.000 A 
ATOM     20  C   UNL     1       1.466   2.586  19.338  0.00  0.00    +0.000 A 
ATOM     21  C   UNL     1       1.027   3.776  19.909  0.00  0.00    +0.000 A 
ATOM     22  C   UNL     1       1.942   4.791  20.183  0.00  0.00    +0.000 A 
ATOM     23 CL   UNL     1       1.392   6.269  20.877  0.00  0.00    +0.000 Cl
ATOM     24  C   UNL     1       3.299   4.628  19.891  0.00  0.00    +0.000 A 
ENDBRANCH  16  18
ENDBRANCH   5  16
TORSDOF 4
ENDMDL
MODEL 7
REMARK VINA RESULT:      -7.5      2.648      7.240
REMARK  Name = 
REMARK  4 active torsions:
REMARK  status: ('A' for Active; 'I' for Inactive)
REMARK    1  A    between atoms: N_1  and  C_2
REMARK    2  A    between atoms: C_6  and  C_7
REMARK    3  A    between atoms: C_11  and  N_12
REMARK    4  A    between atoms: N_12  and  C_13
REMARK                            x       y       z     vdW  Elec       q    Type
REMARK                         _______ _______ _______ _____ _____    ______ ____
ROOT
ATOM      1  C   UNL     1       3.660   5.002  17.915  0.00  0.00    +0.000 A 
ATOM      2  C   UNL     1       3.491   6.380  17.813  0.00  0.00    +0.000 A 
ATOM      3  N   UNL     1       4.349   7.192  17.152  0.00  0.00    +0.000 NA
ATOM      4  C   UNL     1       5.406   6.563  16.586  0.00  0.00    +0.000 A 
ATOM      5  C   UNL     1       5.636   5.190  16.691  0.00  0.00    +0.000 A 
ATOM      6  N   UNL     1       4.741   4.409  17.342  0.00  0.00    +0.000 NA
ENDROOT
BRANCH   1  11
ATOM      7  C   UNL     1       1.933   2.982  20.628  0.00  0.00    +0.000 A 
ATOM      8  C   UNL     1       0.943   2.402  19.840  0.00  0.00    +0.000 A 
ATOM      9  N   UNL     1       0.811   2.590  18.508  0.00  0.00    +0.000 NA
ATOM     10  C   UNL     1       1.696   3.436  17.931  0.00  0.00    +0.000 A 
ATOM     11  C   UNL     1       2.718   4.108  18.602  0.00  0.00    +0.000 A 
ATOM     12  C   UNL     1       2.790   3.883  19.990  0.00  0.00    +0.000 A 
BRANCH   7  13
ATOM     13  N   UNL     1       1.933   2.865  22.022  0.00  0.00    +0.000 N 
ATOM     14  H   UNL     1       2.734   3.289  22.480  0.00  0.00    +0.000 HD
ATOM     15  H   UNL     1       1.054   3.126  22.461  0.00  0.00    +0.000 HD
ENDBRANCH   7  13
ENDBRANCH   1  11
BRANCH   5  16
ATOM     16  N   UNL     1       6.765   4.602  16.072  0.00  0.00    +0.000 N 
ATOM     17  H   UNL     1       6.946   3.683  16.467  0.00  0.00    +0.000 HD
BRANCH  16  18
ATOM     18  C   UNL     1       6.930   4.506  14.664  0.00  0.00    +0.000 A 
ATOM     19  C   UNL     1       7.793   5.360  13.957  0.00  0.00    +0.000 A 
ATOM     20  C   UNL     1       7.870   5.322  12.565  0.00  0.00    +0.000 A 
ATOM     21  C   UNL     1       7.064   4.435  11.858  0.00  0.00    +0.000 A 
ATOM     22  C   UNL     1       6.188   3.598  12.544  0.00  0.00    +0.000 A 
ATOM     23 CL   UNL     1       5.182   2.511  11.663  0.00  0.00    +0.000 Cl
ATOM     24  C   UNL     1       6.107   3.636  13.939  0.00  0.00    +0.000 A 
ENDBRANCH  16  18
ENDBRANCH   5  16
TORSDOF 4
ENDMDL
MODEL 8
REMARK VINA RESULT:      -7.3      2.038      2.407
REMARK  Name = 
REMARK  4 active torsions:
REMARK  status: ('A' for Active; 'I' for Inactive)
REMARK    1  A    between atoms: N_1  and  C_2
REMARK    2  A    between atoms: C_6  and  C_7
REMARK    3  A    between atoms: C_11  and  N_12
REMARK    4  A    between atoms: N_12  and  C_13
REMARK                            x       y       z     vdW  Elec       q    Type
REMARK                         _______ _______ _______ _____ _____    ______ ____
ROOT
ATOM      1  C   UNL     1       6.213   4.639  16.217  0.00  0.00    +0.000 A 
ATOM      2  C   UNL     1       7.149   4.559  17.243  0.00  0.00    +0.000 A 
ATOM      3  N   UNL     1       6.827   4.626  18.557  0.00  0.00    +0.000 NA
ATOM      4  C   UNL     1       5.506   4.780  18.811  0.00  0.00    +0.000 A 
ATOM      5  C   UNL     1       4.535   4.899  17.816  0.00  0.00    +0.000 A 
ATOM      6  N   UNL     1       4.896   4.804  16.513  0.00  0.00    +0.000 NA
ENDROOT
BRANCH   1  11
ATOM      7  C   UNL     1       6.354   3.408  12.627  0.00  0.00    +0.000 A 
ATOM      8  C   UNL     1       7.227   4.370  12.125  0.00  0.00    +0.000 A 
ATOM      9  N   UNL     1       7.788   5.358  12.857  0.00  0.00    +0.000 NA
ATOM     10  C   UNL     1       7.431   5.413  14.161  0.00  0.00    +0.000 A 
ATOM     11  C   UNL     1       6.548   4.536  14.790  0.00  0.00    +0.000 A 
ATOM     12  C   UNL     1       5.984   3.542  13.968  0.00  0.00    +0.000 A 
BRANCH   7  13
ATOM     13  N   UNL     1       5.695   2.500  11.793  0.00  0.00    +0.000 N 
ATOM     14  H   UNL     1       6.305   1.987  11.163  0.00  0.00    +0.000 HD
ATOM     15  H   UNL     1       5.040   1.892  12.276  0.00  0.00    +0.000 HD
ENDBRANCH   7  13
ENDBRANCH   1  11
BRANCH   5  16
ATOM     16  N   UNL     1       3.171   5.058  18.159  0.00  0.00    +0.000 N 
ATOM     17  H   UNL     1       2.827   4.227  18.631  0.00  0.00    +0.000 HD
BRANCH  16  18
ATOM     18  C   UNL     1       2.660   6.190  18.849  0.00  0.00    +0.000 A 
ATOM     19  C   UNL     1       2.144   6.094  20.153  0.00  0.00    +0.000 A 
ATOM     20  C   UNL     1       1.555   7.192  20.781  0.00  0.00    +0.000 A 
ATOM     21  C   UNL     1       1.458   8.401  20.100  0.00  0.00    +0.000 A 
ATOM     22  C   UNL     1       1.946   8.504  18.799  0.00  0.00    +0.000 A 
ATOM     23 CL   UNL     1       1.811  10.000  17.955  0.00  0.00    +0.000 Cl
ATOM     24  C   UNL     1       2.534   7.405  18.167  0.00  0.00    +0.000 A 
ENDBRANCH  16  18
ENDBRANCH   5  16
TORSDOF 4
ENDMDL
MODEL 9
REMARK VINA RESULT:      -7.3      2.759      3.845
REMARK  Name = 
REMARK  4 active torsions:
REMARK  status: ('A' for Active; 'I' for Inactive)
REMARK    1  A    between atoms: N_1  and  C_2
REMARK    2  A    between atoms: C_6  and  C_7
REMARK    3  A    between atoms: C_11  and  N_12
REMARK    4  A    between atoms: N_12  and  C_13
REMARK                            x       y       z     vdW  Elec       q    Type
REMARK                         _______ _______ _______ _____ _____    ______ ____
ROOT
ATOM      1  C   UNL     1       3.847   4.441  17.234  0.00  0.00    +0.000 A 
ATOM      2  C   UNL     1       2.818   3.533  17.006  0.00  0.00    +0.000 A 
ATOM      3  N   UNL     1       1.731   3.417  17.807  0.00  0.00    +0.000 NA
ATOM      4  C   UNL     1       1.713   4.259  18.867  0.00  0.00    +0.000 A 
ATOM      5  C   UNL     1       2.738   5.162  19.155  0.00  0.00    +0.000 A 
ATOM      6  N   UNL     1       3.797   5.264  18.316  0.00  0.00    +0.000 NA
ENDROOT
BRANCH   1  11
ATOM      7  C   UNL     1       6.285   3.969  14.361  0.00  0.00    +0.000 A 
ATOM      8  C   UNL     1       7.234   4.909  14.753  0.00  0.00    +0.000 A 
ATOM      9  N   UNL     1       7.160   5.655  15.879  0.00  0.00    +0.000 NA
ATOM     10  C   UNL     1       6.055   5.480  16.641  0.00  0.00    +0.000 A 
ATOM     11  C   UNL     1       5.014   4.597  16.355  0.00  0.00    +0.000 A 
ATOM     12  C   UNL     1       5.144   3.865  15.161  0.00  0.00    +0.000 A 
BRANCH   7  13
ATOM     13  N   UNL     1       6.344   3.333  13.117  0.00  0.00    +0.000 N 
ATOM     14  H   UNL     1       5.718   3.720  12.416  0.00  0.00    +0.000 HD
ATOM     15  H   UNL     1       7.287   3.202  12.761  0.00  0.00    +0.000 HD
ENDBRANCH   7  13
ENDBRANCH   1  11
BRANCH   5  16
ATOM     16  N   UNL     1       2.649   6.013  20.283  0.00  0.00    +0.000 N 
ATOM     17  H   UNL     1       3.569   6.157  20.689  0.00  0.00    +0.000 HD
BRANCH  16  18
ATOM     18  C   UNL     1       1.979   7.265  20.273  0.00  0.00    +0.000 A 
ATOM     19  C   UNL     1       1.087   7.639  21.292  0.00  0.00    +0.000 A 
ATOM     20  C   UNL     1       0.360   8.828  21.218  0.00  0.00    +0.000 A 
ATOM     21  C   UNL     1       0.506   9.654  20.108  0.00  0.00    +0.000 A 
ATOM     22  C   UNL     1       1.372   9.285  19.080  0.00  0.00    +0.000 A 
ATOM     23 CL   UNL     1       1.538  10.303  17.701  0.00  0.00    +0.000 Cl
ATOM     24  C   UNL     1       2.098   8.093  19.150  0.00  0.00    +0.000 A 
ENDBRANCH  16  18
ENDBRANCH   5  16
TORSDOF 4
ENDMDL
