MODEL 1
REMARK VINA RESULT:      -8.3      0.000      0.000
REMARK  Name = 
REMARK  10 active torsions:
REMARK  status: ('A' for Active; 'I' for Inactive)
REMARK    1  A    between atoms: C_1  and  C_2
REMARK    2  A    between atoms: C_2  and  C_3
REMARK    3  A    between atoms: C_3  and  C_4
REMARK    4  A    between atoms: C_4  and  N_5
REMARK    5  A    between atoms: N_5  and  C_6
REMARK    6  A    between atoms: C_6  and  C_7
REMARK    7  A    between atoms: C_9  and  O_10
REMARK    8  A    between atoms: C_18  and  C_20
REMARK    9  A    between atoms: C_20  and  O_21
REMARK   10  A    between atoms: O_21  and  C_22
REMARK                            x       y       z     vdW  Elec       q    Type
REMARK                         _______ _______ _______ _____ _____    ______ ____
ROOT
ATOM      1  N   UNL     1       5.470   5.190  15.852  0.00  0.00    +0.000 N 
ATOM      2  C   UNL     1       5.045   6.490  16.124  0.00  0.00    +0.000 C 
ATOM      3  O   UNL     1       5.099   7.384  15.269  0.00  0.00    +0.000 OA
ENDROOT
BRANCH   1   4
ATOM      4  C   UNL     1       6.141   4.955  14.570  0.00  0.00    +0.000 C 
BRANCH   4   5
ATOM      5  C   UNL     1       5.959   3.552  13.988  0.00  0.00    +0.000 C 
BRANCH   5   7
ATOM      6  C   UNL     1       4.731   3.388  11.805  0.00  0.00    +0.000 C 
ATOM      7  C   UNL     1       6.100   3.478  12.468  0.00  0.00    +0.000 C 
ENDBRANCH   5   7
ENDBRANCH   4   5
ENDBRANCH   1   4
BRANCH   1   8
ATOM      8  C   UNL     1       5.583   4.132  16.876  0.00  0.00    +0.000 C 
BRANCH   8   9
ATOM      9  C   UNL     1       4.339   3.798  17.692  0.00  0.00    +0.000 A 
ATOM     10  N   UNL     1       3.150   3.983  17.087  0.00  0.00    +0.000 NA
ATOM     11  C   UNL     1       2.076   3.748  17.851  0.00  0.00    +0.000 A 
ATOM     12  C   UNL     1       2.096   3.347  19.177  0.00  0.00    +0.000 A 
ATOM     13  C   UNL     1       0.951   3.171  19.990  0.00  0.00    +0.000 A 
ATOM     14  C   UNL     1       1.092   2.777  21.317  0.00  0.00    +0.000 A 
ATOM     15  C   UNL     1       2.363   2.527  21.820  0.00  0.00    +0.000 A 
ATOM     16  C   UNL     1       3.486   2.700  21.003  0.00  0.00    +0.000 A 
ATOM     17  C   UNL     1       3.377   3.133  19.686  0.00  0.00    +0.000 A 
ATOM     18  N   UNL     1       4.483   3.349  18.956  0.00  0.00    +0.000 NA
BRANCH  11  19
ATOM     19  O   UNL     1       0.900   3.948  17.196  0.00  0.00    +0.000 OA
ATOM     20  H   UNL     1       0.733   4.885  17.397  0.00  0.00    +0.000 HD
ENDBRANCH  11  19
ENDBRANCH   8   9
ENDBRANCH   1   8
BRANCH   2  21
ATOM     21  C   UNL     1       4.484   6.826  17.504  0.00  0.00    +0.000 C 
BRANCH  21  22
ATOM     22  O   UNL     1       3.216   7.464  17.412  0.00  0.00    +0.000 OA
BRANCH  22  23
ATOM     23  C   UNL     1       2.531   7.635  18.592  0.00  0.00    +0.000 A 
ATOM     24  C   UNL     1       2.475   6.674  19.612  0.00  0.00    +0.000 A 
ATOM     25  C   UNL     1       1.790   6.936  20.799  0.00  0.00    +0.000 A 
ATOM     26  C   UNL     1       1.150   8.156  20.967  0.00  0.00    +0.000 A 
ATOM     27  F   UNL     1       0.500   8.402  22.112  0.00  0.00    +0.000 F 
ATOM     28  C   UNL     1       1.175   9.120  19.970  0.00  0.00    +0.000 A 
ATOM     29  C   UNL     1       1.865   8.859  18.783  0.00  0.00    +0.000 A 
ATOM     30 CL   UNL     1       1.876  10.092  17.571  0.00  0.00    +0.000 Cl
ENDBRANCH  22  23
ENDBRANCH  21  22
ENDBRANCH   2  21
TORSDOF 9
ENDMDL
MODEL 2
REMARK VINA RESULT:      -8.3      2.870      5.989
REMARK  Name = 
REMARK  10 active torsions:
REMARK  status: ('A' for Active; 'I' for Inactive)
REMARK    1  A    between atoms: C_1  and  C_2
REMARK    2  A    between atoms: C_2  and  C_3
REMARK    3  A    between atoms: C_3  and  C_4
REMARK    4  A    between atoms: C_4  and  N_5
REMARK    5  A    between atoms: N_5  and  C_6
REMARK    6  A    between atoms: C_6  and  C_7
REMARK    7  A    between atoms: C_9  and  O_10
REMARK    8  A    between atoms: C_18  and  C_20
REMARK    9  A    between atoms: C_20  and  O_21
REMARK   10  A    between atoms: O_21  and  C_22
REMARK                            x       y       z     vdW  Elec       q    Type
REMARK                         _______ _______ _______ _____ _____    ______ ____
ROOT
ATOM      1  N   UNL     1       3.590   3.870  19.218  0.00  0.00    +0.000 N 
ATOM      2  C   UNL     1       3.732   3.312  17.948  0.00  0.00    +0.000 C 
ATOM      3  O   UNL     1       3.427   2.136  17.716  0.00  0.00    +0.000 OA
ENDROOT
BRANCH   1   4
ATOM      4  C   UNL     1       3.225   2.966  20.313  0.00  0.00    +0.000 C 
BRANCH   4   5
ATOM      5  C   UNL     1       1.969   3.361  21.091  0.00  0.00    +0.000 C 
BRANCH   5   7
ATOM      6  C   UNL     1       0.528   2.398  19.275  0.00  0.00    +0.000 C 
ATOM      7  C   UNL     1       0.731   3.575  20.219  0.00  0.00    +0.000 C 
ENDBRANCH   5   7
ENDBRANCH   4   5
ENDBRANCH   1   4
BRANCH   1   8
ATOM      8  C   UNL     1       4.091   5.209  19.589  0.00  0.00    +0.000 C 
BRANCH   8   9
ATOM      9  C   UNL     1       3.130   6.386  19.460  0.00  0.00    +0.000 A 
ATOM     10  N   UNL     1       3.164   7.071  18.301  0.00  0.00    +0.000 NA
ATOM     11  C   UNL     1       2.360   8.140  18.244  0.00  0.00    +0.000 A 
ATOM     12  C   UNL     1       1.526   8.583  19.258  0.00  0.00    +0.000 A 
ATOM     13  C   UNL     1       0.736   9.755  19.207  0.00  0.00    +0.000 A 
ATOM     14  C   UNL     1      -0.056  10.110  20.295  0.00  0.00    +0.000 A 
ATOM     15  C   UNL     1      -0.086   9.285  21.413  0.00  0.00    +0.000 A 
ATOM     16  C   UNL     1       0.698   8.126  21.447  0.00  0.00    +0.000 A 
ATOM     17  C   UNL     1       1.530   7.769  20.392  0.00  0.00    +0.000 A 
ATOM     18  N   UNL     1       2.314   6.684  20.492  0.00  0.00    +0.000 NA
BRANCH  11  19
ATOM     19  O   UNL     1       2.428   8.798  17.055  0.00  0.00    +0.000 OA
ATOM     20  H   UNL     1       2.899   9.608  17.318  0.00  0.00    +0.000 HD
ENDBRANCH  11  19
ENDBRANCH   8   9
ENDBRANCH   1   8
BRANCH   2  21
ATOM     21  C   UNL     1       4.264   4.173  16.803  0.00  0.00    +0.000 C 
BRANCH  21  22
ATOM     22  O   UNL     1       5.675   4.052  16.670  0.00  0.00    +0.000 OA
BRANCH  22  23
ATOM     23  C   UNL     1       6.430   5.040  17.257  0.00  0.00    +0.000 A 
ATOM     24  C   UNL     1       7.320   4.821  18.318  0.00  0.00    +0.000 A 
ATOM     25  C   UNL     1       8.081   5.870  18.835  0.00  0.00    +0.000 A 
ATOM     26  C   UNL     1       7.949   7.143  18.301  0.00  0.00    +0.000 A 
ATOM     27  F   UNL     1       8.687   8.143  18.800  0.00  0.00    +0.000 F 
ATOM     28  C   UNL     1       7.065   7.394  17.262  0.00  0.00    +0.000 A 
ATOM     29  C   UNL     1       6.306   6.343  16.740  0.00  0.00    +0.000 A 
ATOM     30 CL   UNL     1       5.223   6.700  15.440  0.00  0.00    +0.000 Cl
ENDBRANCH  22  23
ENDBRANCH  21  22
ENDBRANCH   2  21
TORSDOF 9
ENDMDL
MODEL 3
REMARK VINA RESULT:      -8.2      3.110      6.281
REMARK  Name = 
REMARK  10 active torsions:
REMARK  status: ('A' for Active; 'I' for Inactive)
REMARK    1  A    between atoms: C_1  and  C_2
REMARK    2  A    between atoms: C_2  and  C_3
REMARK    3  A    between atoms: C_3  and  C_4
REMARK    4  A    between atoms: C_4  and  N_5
REMARK    5  A    between atoms: N_5  and  C_6
REMARK    6  A    between atoms: C_6  and  C_7
REMARK    7  A    between atoms: C_9  and  O_10
REMARK    8  A    between atoms: C_18  and  C_20
REMARK    9  A    between atoms: C_20  and  O_21
REMARK   10  A    between atoms: O_21  and  C_22
REMARK                            x       y       z     vdW  Elec       q    Type
REMARK                         _______ _______ _______ _____ _____    ______ ____
ROOT
ATOM      1  N   UNL     1       2.960   4.440  18.733  0.00  0.00    +0.000 N 
ATOM      2  C   UNL     1       4.015   3.655  18.270  0.00  0.00    +0.000 C 
ATOM      3  O   UNL     1       3.841   2.754  17.440  0.00  0.00    +0.000 OA
ENDROOT
BRANCH   1   4
ATOM      4  C   UNL     1       1.605   4.052  18.329  0.00  0.00    +0.000 C 
BRANCH   4   5
ATOM      5  C   UNL     1       0.992   2.900  19.128  0.00  0.00    +0.000 C 
BRANCH   5   7
ATOM      6  C   UNL     1       1.730   2.426  21.481  0.00  0.00    +0.000 C 
ATOM      7  C   UNL     1       0.762   3.213  20.607  0.00  0.00    +0.000 C 
ENDBRANCH   5   7
ENDBRANCH   4   5
ENDBRANCH   1   4
BRANCH   1   8
ATOM      8  C   UNL     1       3.080   5.411  19.839  0.00  0.00    +0.000 C 
BRANCH   8   9
ATOM      9  C   UNL     1       2.396   6.763  19.673  0.00  0.00    +0.000 A 
ATOM     10  N   UNL     1       2.582   7.397  18.500  0.00  0.00    +0.000 NA
ATOM     11  C   UNL     1       2.028   8.612  18.410  0.00  0.00    +0.000 A 
ATOM     12  C   UNL     1       1.304   9.248  19.405  0.00  0.00    +0.000 A 
ATOM     13  C   UNL     1       0.785  10.562  19.319  0.00  0.00    +0.000 A 
ATOM     14  C   UNL     1       0.082  11.106  20.390  0.00  0.00    +0.000 A 
ATOM     15  C   UNL     1      -0.130  10.334  21.526  0.00  0.00    +0.000 A 
ATOM     16  C   UNL     1       0.385   9.034  21.595  0.00  0.00    +0.000 A 
ATOM     17  C   UNL     1       1.127   8.481  20.557  0.00  0.00    +0.000 A 
ATOM     18  N   UNL     1       1.658   7.256  20.690  0.00  0.00    +0.000 NA
BRANCH  11  19
ATOM     19  O   UNL     1       2.242   9.210  17.206  0.00  0.00    +0.000 OA
ATOM     20  H   UNL     1       2.765   9.986  17.476  0.00  0.00    +0.000 HD
ENDBRANCH  11  19
ENDBRANCH   8   9
ENDBRANCH   1   8
BRANCH   2  21
ATOM     21  C   UNL     1       5.430   3.916  18.785  0.00  0.00    +0.000 C 
BRANCH  21  22
ATOM     22  O   UNL     1       6.295   4.346  17.742  0.00  0.00    +0.000 OA
BRANCH  22  23
ATOM     23  C   UNL     1       6.831   5.606  17.874  0.00  0.00    +0.000 A 
ATOM     24  C   UNL     1       7.860   5.930  18.770  0.00  0.00    +0.000 A 
ATOM     25  C   UNL     1       8.378   7.225  18.818  0.00  0.00    +0.000 A 
ATOM     26  C   UNL     1       7.863   8.202  17.979  0.00  0.00    +0.000 A 
ATOM     27  F   UNL     1       8.370   9.441  18.028  0.00  0.00    +0.000 F 
ATOM     28  C   UNL     1       6.835   7.915  17.094  0.00  0.00    +0.000 A 
ATOM     29  C   UNL     1       6.319   6.618  17.041  0.00  0.00    +0.000 A 
ATOM     30 CL   UNL     1       5.043   6.304  15.918  0.00  0.00    +0.000 Cl
ENDBRANCH  22  23
ENDBRANCH  21  22
ENDBRANCH   2  21
TORSDOF 9
ENDMDL
MODEL 4
REMARK VINA RESULT:      -7.9      1.740      2.381
REMARK  Name = 
REMARK  10 active torsions:
REMARK  status: ('A' for Active; 'I' for Inactive)
REMARK    1  A    between atoms: C_1  and  C_2
REMARK    2  A    between atoms: C_2  and  C_3
REMARK    3  A    between atoms: C_3  and  C_4
REMARK    4  A    between atoms: C_4  and  N_5
REMARK    5  A    between atoms: N_5  and  C_6
REMARK    6  A    between atoms: C_6  and  C_7
REMARK    7  A    between atoms: C_9  and  O_10
REMARK    8  A    between atoms: C_18  and  C_20
REMARK    9  A    between atoms: C_20  and  O_21
REMARK   10  A    between atoms: O_21  and  C_22
REMARK                            x       y       z     vdW  Elec       q    Type
REMARK                         _______ _______ _______ _____ _____    ______ ____
ROOT
ATOM      1  N   UNL     1       5.863   5.312  16.213  0.00  0.00    +0.000 N 
ATOM      2  C   UNL     1       5.244   6.559  16.129  0.00  0.00    +0.000 C 
ATOM      3  O   UNL     1       5.103   7.144  15.048  0.00  0.00    +0.000 OA
ENDROOT
BRANCH   1   4
ATOM      4  C   UNL     1       6.494   4.790  14.997  0.00  0.00    +0.000 C 
BRANCH   4   5
ATOM      5  C   UNL     1       5.625   3.840  14.170  0.00  0.00    +0.000 C 
BRANCH   5   7
ATOM      6  C   UNL     1       4.944   3.207  11.838  0.00  0.00    +0.000 C 
ATOM      7  C   UNL     1       6.098   3.649  12.729  0.00  0.00    +0.000 C 
ENDBRANCH   5   7
ENDBRANCH   4   5
ENDBRANCH   1   4
BRANCH   1   8
ATOM      8  C   UNL     1       6.206   4.649  17.487  0.00  0.00    +0.000 C 
BRANCH   8   9
ATOM      9  C   UNL     1       5.079   3.972  18.259  0.00  0.00    +0.000 A 
ATOM     10  N   UNL     1       5.425   3.302  19.375  0.00  0.00    +0.000 NA
ATOM     11  C   UNL     1       4.425   2.661  19.993  0.00  0.00    +0.000 A 
ATOM     12  C   UNL     1       3.103   2.631  19.579  0.00  0.00    +0.000 A 
ATOM     13  C   UNL     1       2.073   1.890  20.204  0.00  0.00    +0.000 A 
ATOM     14  C   UNL     1       0.779   1.925  19.692  0.00  0.00    +0.000 A 
ATOM     15  C   UNL     1       0.508   2.718  18.584  0.00  0.00    +0.000 A 
ATOM     16  C   UNL     1       1.537   3.450  17.979  0.00  0.00    +0.000 A 
ATOM     17  C   UNL     1       2.846   3.401  18.444  0.00  0.00    +0.000 A 
ATOM     18  N   UNL     1       3.815   4.066  17.796  0.00  0.00    +0.000 NA
BRANCH  11  19
ATOM     19  O   UNL     1       4.824   2.002  21.114  0.00  0.00    +0.000 OA
ATOM     20  H   UNL     1       4.827   1.081  20.797  0.00  0.00    +0.000 HD
ENDBRANCH  11  19
ENDBRANCH   8   9
ENDBRANCH   1   8
BRANCH   2  21
ATOM     21  C   UNL     1       4.710   7.222  17.398  0.00  0.00    +0.000 C 
BRANCH  21  22
ATOM     22  O   UNL     1       3.346   6.891  17.626  0.00  0.00    +0.000 OA
BRANCH  22  23
ATOM     23  C   UNL     1       2.583   7.847  18.255  0.00  0.00    +0.000 A 
ATOM     24  C   UNL     1       2.224   9.071  17.673  0.00  0.00    +0.000 A 
ATOM     25  C   UNL     1       1.414   9.975  18.361  0.00  0.00    +0.000 A 
ATOM     26  C   UNL     1       0.968   9.663  19.637  0.00  0.00    +0.000 A 
ATOM     27  F   UNL     1       0.186  10.533  20.289  0.00  0.00    +0.000 F 
ATOM     28  C   UNL     1       1.319   8.467  20.245  0.00  0.00    +0.000 A 
ATOM     29  C   UNL     1       2.127   7.559  19.554  0.00  0.00    +0.000 A 
ATOM     30 CL   UNL     1       2.535   6.078  20.348  0.00  0.00    +0.000 Cl
ENDBRANCH  22  23
ENDBRANCH  21  22
ENDBRANCH   2  21
TORSDOF 9
ENDMDL
MODEL 5
REMARK VINA RESULT:      -7.9      3.071      6.414
REMARK  Name = 
REMARK  10 active torsions:
REMARK  status: ('A' for Active; 'I' for Inactive)
REMARK    1  A    between atoms: C_1  and  C_2
REMARK    2  A    between atoms: C_2  and  C_3
REMARK    3  A    between atoms: C_3  and  C_4
REMARK    4  A    between atoms: C_4  and  N_5
REMARK    5  A    between atoms: N_5  and  C_6
REMARK    6  A    between atoms: C_6  and  C_7
REMARK    7  A    between atoms: C_9  and  O_10
REMARK    8  A    between atoms: C_18  and  C_20
REMARK    9  A    between atoms: C_20  and  O_21
REMARK   10  A    between atoms: O_21  and  C_22
REMARK                            x       y       z     vdW  Elec       q    Type
REMARK                         _______ _______ _______ _____ _____    ______ ____
ROOT
ATOM      1  N   UNL     1       3.073   5.225  18.888  0.00  0.00    +0.000 N 
ATOM      2  C   UNL     1       3.535   4.132  18.157  0.00  0.00    +0.000 C 
ATOM      3  O   UNL     1       3.470   2.978  18.601  0.00  0.00    +0.000 OA
ENDROOT
BRANCH   1   4
ATOM      4  C   UNL     1       2.660   4.983  20.274  0.00  0.00    +0.000 C 
BRANCH   4   5
ATOM      5  C   UNL     1       1.183   4.629  20.460  0.00  0.00    +0.000 C 
BRANCH   5   7
ATOM      6  C   UNL     1       1.618   2.553  21.802  0.00  0.00    +0.000 C 
ATOM      7  C   UNL     1       0.907   3.131  20.586  0.00  0.00    +0.000 C 
ENDBRANCH   5   7
ENDBRANCH   4   5
ENDBRANCH   1   4
BRANCH   1   8
ATOM      8  C   UNL     1       3.277   6.631  18.483  0.00  0.00    +0.000 C 
BRANCH   8   9
ATOM      9  C   UNL     1       2.281   7.667  18.992  0.00  0.00    +0.000 A 
ATOM     10  N   UNL     1       1.750   8.499  18.076  0.00  0.00    +0.000 NA
ATOM     11  C   UNL     1       0.933   9.442  18.562  0.00  0.00    +0.000 A 
ATOM     12  C   UNL     1       0.607   9.622  19.897  0.00  0.00    +0.000 A 
ATOM     13  C   UNL     1      -0.202  10.667  20.402  0.00  0.00    +0.000 A 
ATOM     14  C   UNL     1      -0.452  10.758  21.768  0.00  0.00    +0.000 A 
ATOM     15  C   UNL     1       0.073   9.795  22.621  0.00  0.00    +0.000 A 
ATOM     16  C   UNL     1       0.868   8.763  22.106  0.00  0.00    +0.000 A 
ATOM     17  C   UNL     1       1.169   8.673  20.752  0.00  0.00    +0.000 A 
ATOM     18  N   UNL     1       1.988   7.706  20.308  0.00  0.00    +0.000 NA
BRANCH  11  19
ATOM     19  O   UNL     1       0.422  10.256  17.599  0.00  0.00    +0.000 OA
ATOM     20  H   UNL     1      -0.339  10.642  18.068  0.00  0.00    +0.000 HD
ENDBRANCH  11  19
ENDBRANCH   8   9
ENDBRANCH   1   8
BRANCH   2  21
ATOM     21  C   UNL     1       4.126   4.352  16.765  0.00  0.00    +0.000 C 
BRANCH  21  22
ATOM     22  O   UNL     1       5.526   4.101  16.747  0.00  0.00    +0.000 OA
BRANCH  22  23
ATOM     23  C   UNL     1       6.325   5.062  17.322  0.00  0.00    +0.000 A 
ATOM     24  C   UNL     1       7.162   4.829  18.423  0.00  0.00    +0.000 A 
ATOM     25  C   UNL     1       7.973   5.847  18.926  0.00  0.00    +0.000 A 
ATOM     26  C   UNL     1       7.945   7.102  18.337  0.00  0.00    +0.000 A 
ATOM     27  F   UNL     1       8.731   8.072  18.823  0.00  0.00    +0.000 F 
ATOM     28  C   UNL     1       7.117   7.366  17.257  0.00  0.00    +0.000 A 
ATOM     29  C   UNL     1       6.307   6.347  16.749  0.00  0.00    +0.000 A 
ATOM     30 CL   UNL     1       5.295   6.719  15.397  0.00  0.00    +0.000 Cl
ENDBRANCH  22  23
ENDBRANCH  21  22
ENDBRANCH   2  21
TORSDOF 9
ENDMDL
MODEL 6
REMARK VINA RESULT:      -7.9      3.353      6.707
REMARK  Name = 
REMARK  10 active torsions:
REMARK  status: ('A' for Active; 'I' for Inactive)
REMARK    1  A    between atoms: C_1  and  C_2
REMARK    2  A    between atoms: C_2  and  C_3
REMARK    3  A    between atoms: C_3  and  C_4
REMARK    4  A    between atoms: C_4  and  N_5
REMARK    5  A    between atoms: N_5  and  C_6
REMARK    6  A    between atoms: C_6  and  C_7
REMARK    7  A    between atoms: C_9  and  O_10
REMARK    8  A    between atoms: C_18  and  C_20
REMARK    9  A    between atoms: C_20  and  O_21
REMARK   10  A    between atoms: O_21  and  C_22
REMARK                            x       y       z     vdW  Elec       q    Type
REMARK                         _______ _______ _______ _____ _____    ______ ____
ROOT
ATOM      1  N   UNL     1       1.942   5.327  19.237  0.00  0.00    +0.000 N 
ATOM      2  C   UNL     1       2.249   4.892  17.948  0.00  0.00    +0.000 C 
ATOM      3  O   UNL     1       1.780   3.844  17.486  0.00  0.00    +0.000 OA
ENDROOT
BRANCH   1   4
ATOM      4  C   UNL     1       1.176   4.414  20.091  0.00  0.00    +0.000 C 
BRANCH   4   5
ATOM      5  C   UNL     1       1.865   4.014  21.397  0.00  0.00    +0.000 C 
BRANCH   5   7
ATOM      6  C   UNL     1       2.070   1.860  20.125  0.00  0.00    +0.000 C 
ATOM      7  C   UNL     1       2.491   2.619  21.376  0.00  0.00    +0.000 C 
ENDBRANCH   5   7
ENDBRANCH   4   5
ENDBRANCH   1   4
BRANCH   1   8
ATOM      8  C   UNL     1       2.599   6.474  19.896  0.00  0.00    +0.000 C 
BRANCH   8   9
ATOM      9  C   UNL     1       1.774   7.739  20.105  0.00  0.00    +0.000 A 
ATOM     10  N   UNL     1       1.719   8.604  19.075  0.00  0.00    +0.000 NA
ATOM     11  C   UNL     1       1.046   9.737  19.312  0.00  0.00    +0.000 A 
ATOM     12  C   UNL     1       0.425  10.076  20.504  0.00  0.00    +0.000 A 
ATOM     13  C   UNL     1      -0.222  11.308  20.761  0.00  0.00    +0.000 A 
ATOM     14  C   UNL     1      -0.801  11.546  22.004  0.00  0.00    +0.000 A 
ATOM     15  C   UNL     1      -0.764  10.550  22.972  0.00  0.00    +0.000 A 
ATOM     16  C   UNL     1      -0.125   9.334  22.702  0.00  0.00    +0.000 A 
ATOM     17  C   UNL     1       0.498   9.086  21.484  0.00  0.00    +0.000 A 
ATOM     18  N   UNL     1       1.156   7.932  21.289  0.00  0.00    +0.000 NA
BRANCH  11  19
ATOM     19  O   UNL     1       1.017  10.577  18.242  0.00  0.00    +0.000 OA
ATOM     20  H   UNL     1       1.735  11.194  18.473  0.00  0.00    +0.000 HD
ENDBRANCH  11  19
ENDBRANCH   8   9
ENDBRANCH   1   8
BRANCH   2  21
ATOM     21  C   UNL     1       3.176   5.731  17.071  0.00  0.00    +0.000 C 
BRANCH  21  22
ATOM     22  O   UNL     1       4.400   5.056  16.808  0.00  0.00    +0.000 OA
BRANCH  22  23
ATOM     23  C   UNL     1       5.537   5.631  17.327  0.00  0.00    +0.000 A 
ATOM     24  C   UNL     1       6.213   6.707  16.733  0.00  0.00    +0.000 A 
ATOM     25  C   UNL     1       7.340   7.261  17.341  0.00  0.00    +0.000 A 
ATOM     26  C   UNL     1       7.802   6.736  18.539  0.00  0.00    +0.000 A 
ATOM     27  F   UNL     1       8.881   7.277  19.119  0.00  0.00    +0.000 F 
ATOM     28  C   UNL     1       7.164   5.662  19.142  0.00  0.00    +0.000 A 
ATOM     29  C   UNL     1       6.032   5.109  18.536  0.00  0.00    +0.000 A 
ATOM     30 CL   UNL     1       5.265   3.777  19.327  0.00  0.00    +0.000 Cl
ENDBRANCH  22  23
ENDBRANCH  21  22
ENDBRANCH   2  21
TORSDOF 9
ENDMDL
MODEL 7
REMARK VINA RESULT:      -7.8      3.293      6.766
REMARK  Name = 
REMARK  10 active torsions:
REMARK  status: ('A' for Active; 'I' for Inactive)
REMARK    1  A    between atoms: C_1  and  C_2
REMARK    2  A    between atoms: C_2  and  C_3
REMARK    3  A    between atoms: C_3  and  C_4
REMARK    4  A    between atoms: C_4  and  N_5
REMARK    5  A    between atoms: N_5  and  C_6
REMARK    6  A    between atoms: C_6  and  C_7
REMARK    7  A    between atoms: C_9  and  O_10
REMARK    8  A    between atoms: C_18  and  C_20
REMARK    9  A    between atoms: C_20  and  O_21
REMARK   10  A    between atoms: O_21  and  C_22
REMARK                            x       y       z     vdW  Elec       q    Type
REMARK                         _______ _______ _______ _____ _____    ______ ____
ROOT
ATOM      1  N   UNL     1       1.604   4.923  19.644  0.00  0.00    +0.000 N 
ATOM      2  C   UNL     1       1.909   4.502  18.350  0.00  0.00    +0.000 C 
ATOM      3  O   UNL     1       1.394   3.491  17.856  0.00  0.00    +0.000 OA
ENDROOT
BRANCH   1   4
ATOM      4  C   UNL     1       0.780   4.031  20.465  0.00  0.00    +0.000 C 
BRANCH   4   5
ATOM      5  C   UNL     1       1.387   2.655  20.742  0.00  0.00    +0.000 C 
BRANCH   5   7
ATOM      6  C   UNL     1       3.871   2.304  20.635  0.00  0.00    +0.000 C 
ATOM      7  C   UNL     1       2.699   2.693  21.527  0.00  0.00    +0.000 C 
ENDBRANCH   5   7
ENDBRANCH   4   5
ENDBRANCH   1   4
BRANCH   1   8
ATOM      8  C   UNL     1       2.308   6.019  20.339  0.00  0.00    +0.000 C 
BRANCH   8   9
ATOM      9  C   UNL     1       1.590   7.359  20.460  0.00  0.00    +0.000 A 
ATOM     10  N   UNL     1       0.786   7.521  21.528  0.00  0.00    +0.000 NA
ATOM     11  C   UNL     1       0.116   8.679  21.570  0.00  0.00    +0.000 A 
ATOM     12  C   UNL     1       0.182   9.689  20.624  0.00  0.00    +0.000 A 
ATOM     13  C   UNL     1      -0.587  10.877  20.648  0.00  0.00    +0.000 A 
ATOM     14  C   UNL     1      -0.446  11.819  19.633  0.00  0.00    +0.000 A 
ATOM     15  C   UNL     1       0.478  11.595  18.620  0.00  0.00    +0.000 A 
ATOM     16  C   UNL     1       1.235  10.417  18.612  0.00  0.00    +0.000 A 
ATOM     17  C   UNL     1       1.085   9.440  19.590  0.00  0.00    +0.000 A 
ATOM     18  N   UNL     1       1.784   8.297  19.510  0.00  0.00    +0.000 NA
BRANCH  11  19
ATOM     19  O   UNL     1      -0.682   8.797  22.667  0.00  0.00    +0.000 OA
ATOM     20  H   UNL     1      -1.062   7.902  22.715  0.00  0.00    +0.000 HD
ENDBRANCH  11  19
ENDBRANCH   8   9
ENDBRANCH   1   8
BRANCH   2  21
ATOM     21  C   UNL     1       2.891   5.313  17.506  0.00  0.00    +0.000 C 
BRANCH  21  22
ATOM     22  O   UNL     1       4.111   4.610  17.305  0.00  0.00    +0.000 OA
BRANCH  22  23
ATOM     23  C   UNL     1       5.253   5.227  17.758  0.00  0.00    +0.000 A 
ATOM     24  C   UNL     1       5.803   5.022  19.032  0.00  0.00    +0.000 A 
ATOM     25  C   UNL     1       6.988   5.656  19.406  0.00  0.00    +0.000 A 
ATOM     26  C   UNL     1       7.623   6.506  18.512  0.00  0.00    +0.000 A 
ATOM     27  F   UNL     1       8.763   7.107  18.876  0.00  0.00    +0.000 F 
ATOM     28  C   UNL     1       7.095   6.741  17.251  0.00  0.00    +0.000 A 
ATOM     29  C   UNL     1       5.910   6.102  16.874  0.00  0.00    +0.000 A 
ATOM     30 CL   UNL     1       5.293   6.419  15.291  0.00  0.00    +0.000 Cl
ENDBRANCH  22  23
ENDBRANCH  21  22
ENDBRANCH   2  21
TORSDOF 9
ENDMDL
MODEL 8
REMARK VINA RESULT:      -7.7      2.883      5.056
REMARK  Name = 
REMARK  10 active torsions:
REMARK  status: ('A' for Active; 'I' for Inactive)
REMARK    1  A    between atoms: C_1  and  C_2
REMARK    2  A    between atoms: C_2  and  C_3
REMARK    3  A    between atoms: C_3  and  C_4
REMARK    4  A    between atoms: C_4  and  N_5
REMARK    5  A    between atoms: N_5  and  C_6
REMARK    6  A    between atoms: C_6  and  C_7
REMARK    7  A    between atoms: C_9  and  O_10
REMARK    8  A    between atoms: C_18  and  C_20
REMARK    9  A    between atoms: C_20  and  O_21
REMARK   10  A    between atoms: O_21  and  C_22
REMARK                            x       y       z     vdW  Elec       q    Type
REMARK                         _______ _______ _______ _____ _____    ______ ____
ROOT
ATOM      1  N   UNL     1       5.427   6.185  17.563  0.00  0.00    +0.000 N 
ATOM      2  C   UNL     1       6.112   5.640  18.649  0.00  0.00    +0.000 C 
ATOM      3  O   UNL     1       7.348   5.645  18.708  0.00  0.00    +0.000 OA
ENDROOT
BRANCH   1   4
ATOM      4  C   UNL     1       6.226   6.614  16.410  0.00  0.00    +0.000 C 
BRANCH   4   5
ATOM      5  C   UNL     1       6.708   5.485  15.498  0.00  0.00    +0.000 C 
BRANCH   5   7
ATOM      6  C   UNL     1       6.058   3.750  13.804  0.00  0.00    +0.000 C 
ATOM      7  C   UNL     1       5.736   5.126  14.373  0.00  0.00    +0.000 C 
ENDBRANCH   5   7
ENDBRANCH   4   5
ENDBRANCH   1   4
BRANCH   1   8
ATOM      8  C   UNL     1       3.970   6.059  17.362  0.00  0.00    +0.000 C 
BRANCH   8   9
ATOM      9  C   UNL     1       3.071   7.102  18.018  0.00  0.00    +0.000 A 
ATOM     10  N   UNL     1       2.880   8.250  17.340  0.00  0.00    +0.000 NA
ATOM     11  C   UNL     1       2.144   9.173  17.972  0.00  0.00    +0.000 A 
ATOM     12  C   UNL     1       1.587   9.041  19.233  0.00  0.00    +0.000 A 
ATOM     13  C   UNL     1       0.872  10.054  19.915  0.00  0.00    +0.000 A 
ATOM     14  C   UNL     1       0.367   9.814  21.190  0.00  0.00    +0.000 A 
ATOM     15  C   UNL     1       0.545   8.562  21.767  0.00  0.00    +0.000 A 
ATOM     16  C   UNL     1       1.251   7.568  21.078  0.00  0.00    +0.000 A 
ATOM     17  C   UNL     1       1.802   7.795  19.822  0.00  0.00    +0.000 A 
ATOM     18  N   UNL     1       2.527   6.836  19.223  0.00  0.00    +0.000 NA
BRANCH  11  19
ATOM     19  O   UNL     1       1.978  10.313  17.247  0.00  0.00    +0.000 OA
ATOM     20  H   UNL     1       1.136  10.124  16.796  0.00  0.00    +0.000 HD
ENDBRANCH  11  19
ENDBRANCH   8   9
ENDBRANCH   1   8
BRANCH   2  21
ATOM     21  C   UNL     1       5.323   5.033  19.808  0.00  0.00    +0.000 C 
BRANCH  21  22
ATOM     22  O   UNL     1       5.148   3.632  19.643  0.00  0.00    +0.000 OA
BRANCH  22  23
ATOM     23  C   UNL     1       3.859   3.197  19.441  0.00  0.00    +0.000 A 
ATOM     24  C   UNL     1       2.850   3.253  20.414  0.00  0.00    +0.000 A 
ATOM     25  C   UNL     1       1.554   2.827  20.119  0.00  0.00    +0.000 A 
ATOM     26  C   UNL     1       1.263   2.337  18.855  0.00  0.00    +0.000 A 
ATOM     27  F   UNL     1       0.016   1.936  18.579  0.00  0.00    +0.000 F 
ATOM     28  C   UNL     1       2.243   2.255  17.877  0.00  0.00    +0.000 A 
ATOM     29  C   UNL     1       3.540   2.685  18.169  0.00  0.00    +0.000 A 
ATOM     30 CL   UNL     1       4.728   2.572  16.918  0.00  0.00    +0.000 Cl
ENDBRANCH  22  23
ENDBRANCH  21  22
ENDBRANCH   2  21
TORSDOF 9
ENDMDL
MODEL 9
REMARK VINA RESULT:      -7.7      2.884      5.233
REMARK  Name = 
REMARK  10 active torsions:
REMARK  status: ('A' for Active; 'I' for Inactive)
REMARK    1  A    between atoms: C_1  and  C_2
REMARK    2  A    between atoms: C_2  and  C_3
REMARK    3  A    between atoms: C_3  and  C_4
REMARK    4  A    between atoms: C_4  and  N_5
REMARK    5  A    between atoms: N_5  and  C_6
REMARK    6  A    between atoms: C_6  and  C_7
REMARK    7  A    between atoms: C_9  and  O_10
REMARK    8  A    between atoms: C_18  and  C_20
REMARK    9  A    between atoms: C_20  and  O_21
REMARK   10  A    between atoms: O_21  and  C_22
REMARK                            x       y       z     vdW  Elec       q    Type
REMARK                         _______ _______ _______ _____ _____    ______ ____
ROOT
ATOM      1  N   UNL     1       5.015   6.200  17.710  0.00  0.00    +0.000 N 
ATOM      2  C   UNL     1       5.826   5.591  18.666  0.00  0.00    +0.000 C 
ATOM      3  O   UNL     1       7.060   5.589  18.567  0.00  0.00    +0.000 OA
ENDROOT
BRANCH   1   4
ATOM      4  C   UNL     1       5.664   6.695  16.492  0.00  0.00    +0.000 C 
BRANCH   4   5
ATOM      5  C   UNL     1       5.311   5.935  15.212  0.00  0.00    +0.000 C 
BRANCH   5   7
ATOM      6  C   UNL     1       6.117   3.567  15.427  0.00  0.00    +0.000 C 
ATOM      7  C   UNL     1       6.367   4.920  14.772  0.00  0.00    +0.000 C 
ENDBRANCH   5   7
ENDBRANCH   4   5
ENDBRANCH   1   4
BRANCH   1   8
ATOM      8  C   UNL     1       3.542   6.089  17.689  0.00  0.00    +0.000 C 
BRANCH   8   9
ATOM      9  C   UNL     1       2.737   7.221  18.319  0.00  0.00    +0.000 A 
ATOM     10  N   UNL     1       2.596   8.343  17.588  0.00  0.00    +0.000 NA
ATOM     11  C   UNL     1       1.945   9.343  18.194  0.00  0.00    +0.000 A 
ATOM     12  C   UNL     1       1.426   9.312  19.479  0.00  0.00    +0.000 A 
ATOM     13  C   UNL     1       0.803  10.403  20.130  0.00  0.00    +0.000 A 
ATOM     14  C   UNL     1       0.329  10.261  21.431  0.00  0.00    +0.000 A 
ATOM     15  C   UNL     1       0.447   9.030  22.066  0.00  0.00    +0.000 A 
ATOM     16  C   UNL     1       1.062   7.959  21.408  0.00  0.00    +0.000 A 
ATOM     17  C   UNL     1       1.581   8.085  20.124  0.00  0.00    +0.000 A 
ATOM     18  N   UNL     1       2.221   7.052  19.554  0.00  0.00    +0.000 NA
BRANCH  11  19
ATOM     19  O   UNL     1       1.827  10.454  17.417  0.00  0.00    +0.000 OA
ATOM     20  H   UNL     1       1.122  10.934  17.886  0.00  0.00    +0.000 HD
ENDBRANCH  11  19
ENDBRANCH   8   9
ENDBRANCH   1   8
BRANCH   2  21
ATOM     21  C   UNL     1       5.185   4.917  19.878  0.00  0.00    +0.000 C 
BRANCH  21  22
ATOM     22  O   UNL     1       5.042   3.516  19.682  0.00  0.00    +0.000 OA
BRANCH  22  23
ATOM     23  C   UNL     1       3.806   3.082  19.261  0.00  0.00    +0.000 A 
ATOM     24  C   UNL     1       3.585   2.387  18.064  0.00  0.00    +0.000 A 
ATOM     25  C   UNL     1       2.306   1.945  17.724  0.00  0.00    +0.000 A 
ATOM     26  C   UNL     1       1.241   2.205  18.575  0.00  0.00    +0.000 A 
ATOM     27  F   UNL     1       0.018   1.773  18.244  0.00  0.00    +0.000 F 
ATOM     28  C   UNL     1       1.427   2.903  19.759  0.00  0.00    +0.000 A 
ATOM     29  C   UNL     1       2.708   3.342  20.102  0.00  0.00    +0.000 A 
ATOM     30 CL   UNL     1       2.894   4.202  21.590  0.00  0.00    +0.000 Cl
ENDBRANCH  22  23
ENDBRANCH  21  22
ENDBRANCH   2  21
TORSDOF 9
ENDMDL
