MODEL 1
REMARK VINA RESULT:      -6.9      0.000      0.000
REMARK  Name = 
REMARK  6 active torsions:
REMARK  status: ('A' for Active; 'I' for Inactive)
REMARK    1  A    between atoms: C_2  and  C_3
REMARK    2  A    between atoms: N_11  and  C_12
REMARK    3  A    between atoms: C_15  and  C_16
REMARK    4  A    between atoms: C_16  and  O_18
REMARK    5  A    between atoms: O_18  and  C_19
REMARK    6  A    between atoms: C_19  and  C_20
REMARK                            x       y       z     vdW  Elec       q    Type
REMARK                         _______ _______ _______ _____ _____    ______ ____
ROOT
ATOM      1  C   UNL     1       4.962   5.322  16.340  0.00  0.00    +0.000 A 
ATOM      2  C   UNL     1       5.128   6.707  16.402  0.00  0.00    +0.000 A 
ATOM      3  C   UNL     1       4.235   7.491  17.137  0.00  0.00    +0.000 A 
ATOM      4  C   UNL     1       3.198   6.877  17.857  0.00  0.00    +0.000 A 
ATOM      5  C   UNL     1       3.011   5.487  17.773  0.00  0.00    +0.000 A 
ATOM      6  C   UNL     1       3.890   4.721  16.995  0.00  0.00    +0.000 A 
ATOM      7  C   UNL     1       1.905   4.718  18.407  0.00  0.00    +0.000 C 
ATOM      8  O   UNL     1       1.348   3.859  17.727  0.00  0.00    +0.000 OA
ATOM      9  N   UNL     1       1.615   4.936  19.746  0.00  0.00    +0.000 N 
ATOM     10  C   UNL     1       0.927   3.888  20.479  0.00  0.00    +0.000 C 
ATOM     11  C   UNL     1       2.257   5.966  20.532  0.00  0.00    +0.000 C 
ATOM     12  C   UNL     1       1.904   7.273  19.935  0.00  0.00    +0.000 A 
ATOM     13  C   UNL     1       1.122   8.327  20.380  0.00  0.00    +0.000 A 
ATOM     14  N   UNL     1       1.220   9.385  19.490  0.00  0.00    +0.000 NA
ATOM     15  C   UNL     1       1.994   8.962  18.517  0.00  0.00    +0.000 A 
ATOM     16  N   UNL     1       2.392   7.663  18.707  0.00  0.00    +0.000 N 
ENDROOT
BRANCH   1  18
ATOM     17  C   UNL     1       6.653   3.804  15.019  0.00  0.00    +0.000 C 
ATOM     18  C   UNL     1       5.905   4.503  15.645  0.00  0.00    +0.000 C 
ENDBRANCH   1  18
BRANCH  13  19
ATOM     19  C   UNL     1       0.271   8.346  21.570  0.00  0.00    +0.000 C 
ATOM     20  O   UNL     1      -0.791   7.736  21.653  0.00  0.00    +0.000 OA
BRANCH  19  21
ATOM     21  O   UNL     1       0.745   9.199  22.521  0.00  0.00    +0.000 OA
BRANCH  21  22
ATOM     22  C   UNL     1      -0.249   9.937  23.236  0.00  0.00    +0.000 C 
ATOM     23  C   UNL     1      -0.632  11.147  22.401  0.00  0.00    +0.000 C 
ENDBRANCH  21  22
ENDBRANCH  19  21
ENDBRANCH  13  19
TORSDOF 4
ENDMDL
MODEL 2
REMARK VINA RESULT:      -6.4      3.318      5.165
REMARK  Name = 
REMARK  6 active torsions:
REMARK  status: ('A' for Active; 'I' for Inactive)
REMARK    1  A    between atoms: C_2  and  C_3
REMARK    2  A    between atoms: N_11  and  C_12
REMARK    3  A    between atoms: C_15  and  C_16
REMARK    4  A    between atoms: C_16  and  O_18
REMARK    5  A    between atoms: O_18  and  C_19
REMARK    6  A    between atoms: C_19  and  C_20
REMARK                            x       y       z     vdW  Elec       q    Type
REMARK                         _______ _______ _______ _____ _____    ______ ____
ROOT
ATOM      1  C   UNL     1       6.893   4.799  14.060  0.00  0.00    +0.000 A 
ATOM      2  C   UNL     1       5.635   4.244  13.823  0.00  0.00    +0.000 A 
ATOM      3  C   UNL     1       4.874   3.746  14.884  0.00  0.00    +0.000 A 
ATOM      4  C   UNL     1       5.356   3.851  16.198  0.00  0.00    +0.000 A 
ATOM      5  C   UNL     1       6.634   4.383  16.436  0.00  0.00    +0.000 A 
ATOM      6  C   UNL     1       7.403   4.838  15.355  0.00  0.00    +0.000 A 
ATOM      7  C   UNL     1       7.307   4.472  17.761  0.00  0.00    +0.000 C 
ATOM      8  O   UNL     1       8.491   4.147  17.822  0.00  0.00    +0.000 OA
ATOM      9  N   UNL     1       6.606   4.996  18.838  0.00  0.00    +0.000 N 
ATOM     10  C   UNL     1       7.363   5.543  19.950  0.00  0.00    +0.000 C 
ATOM     11  C   UNL     1       5.206   5.352  18.766  0.00  0.00    +0.000 C 
ATOM     12  C   UNL     1       4.442   4.115  18.487  0.00  0.00    +0.000 A 
ATOM     13  C   UNL     1       3.548   3.375  19.244  0.00  0.00    +0.000 A 
ATOM     14  N   UNL     1       3.007   2.364  18.464  0.00  0.00    +0.000 NA
ATOM     15  C   UNL     1       3.595   2.463  17.294  0.00  0.00    +0.000 A 
ATOM     16  N   UNL     1       4.520   3.476  17.270  0.00  0.00    +0.000 N 
ENDROOT
BRANCH   1  18
ATOM     17  C   UNL     1       8.239   5.856  12.064  0.00  0.00    +0.000 C 
ATOM     18  C   UNL     1       7.653   5.370  12.992  0.00  0.00    +0.000 C 
ENDBRANCH   1  18
BRANCH  13  19
ATOM     19  C   UNL     1       3.231   3.562  20.661  0.00  0.00    +0.000 C 
ATOM     20  O   UNL     1       3.194   2.644  21.473  0.00  0.00    +0.000 OA
BRANCH  19  21
ATOM     21  O   UNL     1       2.885   4.851  20.937  0.00  0.00    +0.000 OA
BRANCH  21  22
ATOM     22  C   UNL     1       1.594   5.253  20.471  0.00  0.00    +0.000 C 
ATOM     23  C   UNL     1       1.508   6.766  20.563  0.00  0.00    +0.000 C 
ENDBRANCH  21  22
ENDBRANCH  19  21
ENDBRANCH  13  19
TORSDOF 4
ENDMDL
MODEL 3
REMARK VINA RESULT:      -6.3      2.550      7.210
REMARK  Name = 
REMARK  6 active torsions:
REMARK  status: ('A' for Active; 'I' for Inactive)
REMARK    1  A    between atoms: C_2  and  C_3
REMARK    2  A    between atoms: N_11  and  C_12
REMARK    3  A    between atoms: C_15  and  C_16
REMARK    4  A    between atoms: C_16  and  O_18
REMARK    5  A    between atoms: O_18  and  C_19
REMARK    6  A    between atoms: C_19  and  C_20
REMARK                            x       y       z     vdW  Elec       q    Type
REMARK                         _______ _______ _______ _____ _____    ______ ____
ROOT
ATOM      1  C   UNL     1       1.443   7.843  20.212  0.00  0.00    +0.000 A 
ATOM      2  C   UNL     1       1.799   8.689  19.160  0.00  0.00    +0.000 A 
ATOM      3  C   UNL     1       2.736   8.275  18.209  0.00  0.00    +0.000 A 
ATOM      4  C   UNL     1       3.283   6.984  18.285  0.00  0.00    +0.000 A 
ATOM      5  C   UNL     1       2.947   6.142  19.359  0.00  0.00    +0.000 A 
ATOM      6  C   UNL     1       2.039   6.590  20.328  0.00  0.00    +0.000 A 
ATOM      7  C   UNL     1       3.516   4.790  19.614  0.00  0.00    +0.000 C 
ATOM      8  O   UNL     1       3.846   4.520  20.767  0.00  0.00    +0.000 OA
ATOM      9  N   UNL     1       3.566   3.873  18.574  0.00  0.00    +0.000 N 
ATOM     10  C   UNL     1       3.632   2.461  18.905  0.00  0.00    +0.000 C 
ATOM     11  C   UNL     1       3.201   4.206  17.215  0.00  0.00    +0.000 C 
ATOM     12  C   UNL     1       4.140   5.246  16.739  0.00  0.00    +0.000 A 
ATOM     13  C   UNL     1       5.142   5.237  15.781  0.00  0.00    +0.000 A 
ATOM     14  N   UNL     1       5.645   6.520  15.626  0.00  0.00    +0.000 NA
ATOM     15  C   UNL     1       5.003   7.262  16.499  0.00  0.00    +0.000 A 
ATOM     16  N   UNL     1       4.116   6.527  17.243  0.00  0.00    +0.000 N 
ENDROOT
BRANCH   1  18
ATOM     17  C   UNL     1      -0.446   8.530  21.906  0.00  0.00    +0.000 C 
ATOM     18  C   UNL     1       0.439   8.230  21.153  0.00  0.00    +0.000 C 
ENDBRANCH   1  18
BRANCH  13  19
ATOM     19  C   UNL     1       5.654   4.073  15.058  0.00  0.00    +0.000 C 
ATOM     20  O   UNL     1       6.400   3.238  15.561  0.00  0.00    +0.000 OA
BRANCH  19  21
ATOM     21  O   UNL     1       5.291   4.090  13.745  0.00  0.00    +0.000 OA
BRANCH  21  22
ATOM     22  C   UNL     1       6.292   3.646  12.825  0.00  0.00    +0.000 C 
ATOM     23  C   UNL     1       5.628   2.737  11.806  0.00  0.00    +0.000 C 
ENDBRANCH  21  22
ENDBRANCH  19  21
ENDBRANCH  13  19
TORSDOF 4
ENDMDL
MODEL 4
REMARK VINA RESULT:      -5.9      3.279      5.672
REMARK  Name = 
REMARK  6 active torsions:
REMARK  status: ('A' for Active; 'I' for Inactive)
REMARK    1  A    between atoms: C_2  and  C_3
REMARK    2  A    between atoms: N_11  and  C_12
REMARK    3  A    between atoms: C_15  and  C_16
REMARK    4  A    between atoms: C_16  and  O_18
REMARK    5  A    between atoms: O_18  and  C_19
REMARK    6  A    between atoms: C_19  and  C_20
REMARK                            x       y       z     vdW  Elec       q    Type
REMARK                         _______ _______ _______ _____ _____    ______ ____
ROOT
ATOM      1  C   UNL     1       2.327   7.756  18.996  0.00  0.00    +0.000 A 
ATOM      2  C   UNL     1       1.889   7.277  20.232  0.00  0.00    +0.000 A 
ATOM      3  C   UNL     1       1.141   8.099  21.080  0.00  0.00    +0.000 A 
ATOM      4  C   UNL     1       0.789   9.393  20.665  0.00  0.00    +0.000 A 
ATOM      5  C   UNL     1       1.253   9.886  19.434  0.00  0.00    +0.000 A 
ATOM      6  C   UNL     1       2.039   9.063  18.615  0.00  0.00    +0.000 A 
ATOM      7  C   UNL     1       1.034  11.262  18.910  0.00  0.00    +0.000 C 
ATOM      8  O   UNL     1       1.994  11.838  18.402  0.00  0.00    +0.000 OA
ATOM      9  N   UNL     1      -0.247  11.796  18.934  0.00  0.00    +0.000 N 
ATOM     10  C   UNL     1      -0.562  12.868  18.008  0.00  0.00    +0.000 C 
ATOM     11  C   UNL     1      -1.366  11.124  19.556  0.00  0.00    +0.000 C 
ATOM     12  C   UNL     1      -1.069  10.999  21.001  0.00  0.00    +0.000 A 
ATOM     13  C   UNL     1      -1.628  11.583  22.126  0.00  0.00    +0.000 A 
ATOM     14  N   UNL     1      -1.066  11.026  23.265  0.00  0.00    +0.000 NA
ATOM     15  C   UNL     1      -0.164  10.174  22.835  0.00  0.00    +0.000 A 
ATOM     16  N   UNL     1      -0.083  10.158  21.466  0.00  0.00    +0.000 N 
ENDROOT
BRANCH   1  18
ATOM     17  C   UNL     1       3.595   6.143  17.351  0.00  0.00    +0.000 C 
ATOM     18  C   UNL     1       3.036   6.904  18.093  0.00  0.00    +0.000 C 
ENDBRANCH   1  18
BRANCH  13  19
ATOM     19  C   UNL     1      -2.621  12.658  22.156  0.00  0.00    +0.000 C 
ATOM     20  O   UNL     1      -2.385  13.808  21.797  0.00  0.00    +0.000 OA
BRANCH  19  21
ATOM     21  O   UNL     1      -3.792  12.253  22.723  0.00  0.00    +0.000 OA
BRANCH  21  22
ATOM     22  C   UNL     1      -4.924  13.084  22.455  0.00  0.00    +0.000 C 
ATOM     23  C   UNL     1      -5.668  12.501  21.266  0.00  0.00    +0.000 C 
ENDBRANCH  21  22
ENDBRANCH  19  21
ENDBRANCH  13  19
TORSDOF 4
ENDMDL
MODEL 5
REMARK VINA RESULT:      -5.8      2.305      6.681
REMARK  Name = 
REMARK  6 active torsions:
REMARK  status: ('A' for Active; 'I' for Inactive)
REMARK    1  A    between atoms: C_2  and  C_3
REMARK    2  A    between atoms: N_11  and  C_12
REMARK    3  A    between atoms: C_15  and  C_16
REMARK    4  A    between atoms: C_16  and  O_18
REMARK    5  A    between atoms: O_18  and  C_19
REMARK    6  A    between atoms: C_19  and  C_20
REMARK                            x       y       z     vdW  Elec       q    Type
REMARK                         _______ _______ _______ _____ _____    ______ ____
ROOT
ATOM      1  C   UNL     1       0.847   9.792  20.712  0.00  0.00    +0.000 A 
ATOM      2  C   UNL     1       0.430   8.835  21.638  0.00  0.00    +0.000 A 
ATOM      3  C   UNL     1       0.728   7.484  21.438  0.00  0.00    +0.000 A 
ATOM      4  C   UNL     1       1.493   7.096  20.327  0.00  0.00    +0.000 A 
ATOM      5  C   UNL     1       1.889   8.053  19.379  0.00  0.00    +0.000 A 
ATOM      6  C   UNL     1       1.544   9.398  19.572  0.00  0.00    +0.000 A 
ATOM      7  C   UNL     1       2.622   7.772  18.114  0.00  0.00    +0.000 C 
ATOM      8  O   UNL     1       2.234   8.338  17.093  0.00  0.00    +0.000 OA
ATOM      9  N   UNL     1       3.752   6.967  18.154  0.00  0.00    +0.000 N 
ATOM     10  C   UNL     1       4.725   7.094  17.084  0.00  0.00    +0.000 C 
ATOM     11  C   UNL     1       4.187   6.285  19.352  0.00  0.00    +0.000 C 
ATOM     12  C   UNL     1       3.126   5.327  19.736  0.00  0.00    +0.000 A 
ATOM     13  C   UNL     1       3.072   3.943  19.745  0.00  0.00    +0.000 A 
ATOM     14  N   UNL     1       1.881   3.530  20.323  0.00  0.00    +0.000 NA
ATOM     15  C   UNL     1       1.220   4.630  20.602  0.00  0.00    +0.000 A 
ATOM     16  N   UNL     1       1.906   5.753  20.213  0.00  0.00    +0.000 N 
ENDROOT
BRANCH   1  18
ATOM     17  C   UNL     1       0.421  12.361  21.069  0.00  0.00    +0.000 C 
ATOM     18  C   UNL     1       0.605  11.182  20.937  0.00  0.00    +0.000 C 
ENDBRANCH   1  18
BRANCH  13  19
ATOM     19  C   UNL     1       4.069   3.021  19.199  0.00  0.00    +0.000 C 
ATOM     20  O   UNL     1       5.147   2.792  19.739  0.00  0.00    +0.000 OA
BRANCH  19  21
ATOM     21  O   UNL     1       3.700   2.539  17.979  0.00  0.00    +0.000 OA
BRANCH  21  22
ATOM     22  C   UNL     1       3.654   3.504  16.926  0.00  0.00    +0.000 C 
ATOM     23  C   UNL     1       5.072   3.733  16.431  0.00  0.00    +0.000 C 
ENDBRANCH  21  22
ENDBRANCH  19  21
ENDBRANCH  13  19
TORSDOF 4
ENDMDL
MODEL 6
REMARK VINA RESULT:      -5.8      2.963      5.076
REMARK  Name = 
REMARK  6 active torsions:
REMARK  status: ('A' for Active; 'I' for Inactive)
REMARK    1  A    between atoms: C_2  and  C_3
REMARK    2  A    between atoms: N_11  and  C_12
REMARK    3  A    between atoms: C_15  and  C_16
REMARK    4  A    between atoms: C_16  and  O_18
REMARK    5  A    between atoms: O_18  and  C_19
REMARK    6  A    between atoms: C_19  and  C_20
REMARK                            x       y       z     vdW  Elec       q    Type
REMARK                         _______ _______ _______ _____ _____    ______ ____
ROOT
ATOM      1  C   UNL     1       2.500   7.045  18.907  0.00  0.00    +0.000 A 
ATOM      2  C   UNL     1       2.178   6.616  20.196  0.00  0.00    +0.000 A 
ATOM      3  C   UNL     1       1.522   7.477  21.081  0.00  0.00    +0.000 A 
ATOM      4  C   UNL     1       1.143   8.759  20.654  0.00  0.00    +0.000 A 
ATOM      5  C   UNL     1       1.491   9.203  19.368  0.00  0.00    +0.000 A 
ATOM      6  C   UNL     1       2.188   8.342  18.508  0.00  0.00    +0.000 A 
ATOM      7  C   UNL     1       1.235  10.562  18.817  0.00  0.00    +0.000 C 
ATOM      8  O   UNL     1       2.147  11.107  18.199  0.00  0.00    +0.000 OA
ATOM      9  N   UNL     1      -0.033  11.111  18.943  0.00  0.00    +0.000 N 
ATOM     10  C   UNL     1      -0.425  12.154  18.013  0.00  0.00    +0.000 C 
ATOM     11  C   UNL     1      -1.093  10.476  19.693  0.00  0.00    +0.000 C 
ATOM     12  C   UNL     1      -0.661  10.399  21.106  0.00  0.00    +0.000 A 
ATOM     13  C   UNL     1      -1.104  11.030  22.258  0.00  0.00    +0.000 A 
ATOM     14  N   UNL     1      -0.441  10.507  23.357  0.00  0.00    +0.000 NA
ATOM     15  C   UNL     1       0.409   9.628  22.876  0.00  0.00    +0.000 A 
ATOM     16  N   UNL     1       0.358   9.564  21.506  0.00  0.00    +0.000 N 
ENDROOT
BRANCH   1  18
ATOM     17  C   UNL     1       3.571   5.378  17.180  0.00  0.00    +0.000 C 
ATOM     18  C   UNL     1       3.112   6.154  17.972  0.00  0.00    +0.000 C 
ENDBRANCH   1  18
BRANCH  13  19
ATOM     19  C   UNL     1      -2.080  12.117  22.343  0.00  0.00    +0.000 C 
ATOM     20  O   UNL     1      -1.979  13.168  21.717  0.00  0.00    +0.000 OA
BRANCH  19  21
ATOM     21  O   UNL     1      -3.044  11.863  23.272  0.00  0.00    +0.000 OA
BRANCH  21  22
ATOM     22  C   UNL     1      -4.065  12.857  23.385  0.00  0.00    +0.000 C 
ATOM     23  C   UNL     1      -3.743  13.732  24.584  0.00  0.00    +0.000 C 
ENDBRANCH  21  22
ENDBRANCH  19  21
ENDBRANCH  13  19
TORSDOF 4
ENDMDL
MODEL 7
REMARK VINA RESULT:      -5.8      2.940      4.972
REMARK  Name = 
REMARK  6 active torsions:
REMARK  status: ('A' for Active; 'I' for Inactive)
REMARK    1  A    between atoms: C_2  and  C_3
REMARK    2  A    between atoms: N_11  and  C_12
REMARK    3  A    between atoms: C_15  and  C_16
REMARK    4  A    between atoms: C_16  and  O_18
REMARK    5  A    between atoms: O_18  and  C_19
REMARK    6  A    between atoms: C_19  and  C_20
REMARK                            x       y       z     vdW  Elec       q    Type
REMARK                         _______ _______ _______ _____ _____    ______ ____
ROOT
ATOM      1  C   UNL     1       2.453   6.922  18.957  0.00  0.00    +0.000 A 
ATOM      2  C   UNL     1       2.141   6.489  20.247  0.00  0.00    +0.000 A 
ATOM      3  C   UNL     1       1.512   7.355  21.147  0.00  0.00    +0.000 A 
ATOM      4  C   UNL     1       1.149   8.646  20.735  0.00  0.00    +0.000 A 
ATOM      5  C   UNL     1       1.487   9.093  19.447  0.00  0.00    +0.000 A 
ATOM      6  C   UNL     1       2.157   8.227  18.572  0.00  0.00    +0.000 A 
ATOM      7  C   UNL     1       1.246  10.461  18.910  0.00  0.00    +0.000 C 
ATOM      8  O   UNL     1       2.158  10.995  18.283  0.00  0.00    +0.000 OA
ATOM      9  N   UNL     1      -0.011  11.030  19.058  0.00  0.00    +0.000 N 
ATOM     10  C   UNL     1      -0.399  12.087  18.141  0.00  0.00    +0.000 C 
ATOM     11  C   UNL     1      -1.071  10.407  19.818  0.00  0.00    +0.000 C 
ATOM     12  C   UNL     1      -0.620  10.312  21.225  0.00  0.00    +0.000 A 
ATOM     13  C   UNL     1      -1.037  10.942  22.387  0.00  0.00    +0.000 A 
ATOM     14  N   UNL     1      -0.367  10.399  23.473  0.00  0.00    +0.000 NA
ATOM     15  C   UNL     1       0.461   9.510  22.973  0.00  0.00    +0.000 A 
ATOM     16  N   UNL     1       0.390   9.457  21.604  0.00  0.00    +0.000 N 
ENDROOT
BRANCH   1  18
ATOM     17  C   UNL     1       3.559   5.252  17.255  0.00  0.00    +0.000 C 
ATOM     18  C   UNL     1       3.036   6.028  18.007  0.00  0.00    +0.000 C 
ENDBRANCH   1  18
BRANCH  13  19
ATOM     19  C   UNL     1      -1.993  12.044  22.494  0.00  0.00    +0.000 C 
ATOM     20  O   UNL     1      -3.096  11.935  23.022  0.00  0.00    +0.000 OA
BRANCH  19  21
ATOM     21  O   UNL     1      -1.555  13.162  21.849  0.00  0.00    +0.000 OA
BRANCH  21  22
ATOM     22  C   UNL     1      -0.561  13.920  22.544  0.00  0.00    +0.000 C 
ATOM     23  C   UNL     1      -1.233  15.145  23.141  0.00  0.00    +0.000 C 
ENDBRANCH  21  22
ENDBRANCH  19  21
ENDBRANCH  13  19
TORSDOF 4
ENDMDL
MODEL 8
REMARK VINA RESULT:      -5.7      6.599      8.327
REMARK  Name = 
REMARK  6 active torsions:
REMARK  status: ('A' for Active; 'I' for Inactive)
REMARK    1  A    between atoms: C_2  and  C_3
REMARK    2  A    between atoms: N_11  and  C_12
REMARK    3  A    between atoms: C_15  and  C_16
REMARK    4  A    between atoms: C_16  and  O_18
REMARK    5  A    between atoms: O_18  and  C_19
REMARK    6  A    between atoms: C_19  and  C_20
REMARK                            x       y       z     vdW  Elec       q    Type
REMARK                         _______ _______ _______ _____ _____    ______ ____
ROOT
ATOM      1  C   UNL     1      -3.343  10.788  16.390  0.00  0.00    +0.000 A 
ATOM      2  C   UNL     1      -4.545  11.364  16.805  0.00  0.00    +0.000 A 
ATOM      3  C   UNL     1      -4.664  11.893  18.094  0.00  0.00    +0.000 A 
ATOM      4  C   UNL     1      -3.555  11.889  18.954  0.00  0.00    +0.000 A 
ATOM      5  C   UNL     1      -2.353  11.284  18.548  0.00  0.00    +0.000 A 
ATOM      6  C   UNL     1      -2.265  10.719  17.268  0.00  0.00    +0.000 A 
ATOM      7  C   UNL     1      -1.132  11.128  19.385  0.00  0.00    +0.000 C 
ATOM      8  O   UNL     1      -0.560  10.040  19.360  0.00  0.00    +0.000 OA
ATOM      9  N   UNL     1      -0.645  12.228  20.077  0.00  0.00    +0.000 N 
ATOM     10  C   UNL     1       0.755  12.232  20.462  0.00  0.00    +0.000 C 
ATOM     11  C   UNL     1      -1.337  13.496  20.123  0.00  0.00    +0.000 C 
ATOM     12  C   UNL     1      -2.638  13.276  20.793  0.00  0.00    +0.000 A 
ATOM     13  C   UNL     1      -3.146  13.690  22.014  0.00  0.00    +0.000 A 
ATOM     14  N   UNL     1      -4.478  13.318  22.112  0.00  0.00    +0.000 NA
ATOM     15  C   UNL     1      -4.745  12.658  21.009  0.00  0.00    +0.000 A 
ATOM     16  N   UNL     1      -3.645  12.551  20.195  0.00  0.00    +0.000 N 
ENDROOT
BRANCH   1  18
ATOM     17  C   UNL     1      -3.070   9.951  13.912  0.00  0.00    +0.000 C 
ATOM     18  C   UNL     1      -3.189  10.302  15.054  0.00  0.00    +0.000 C 
ENDBRANCH   1  18
BRANCH  13  19
ATOM     19  C   UNL     1      -2.414  14.372  23.083  0.00  0.00    +0.000 C 
ATOM     20  O   UNL     1      -1.507  13.849  23.722  0.00  0.00    +0.000 OA
BRANCH  19  21
ATOM     21  O   UNL     1      -2.931  15.605  23.346  0.00  0.00    +0.000 OA
BRANCH  21  22
ATOM     22  C   UNL     1      -3.593  15.737  24.606  0.00  0.00    +0.000 C 
ATOM     23  C   UNL     1      -5.004  16.237  24.350  0.00  0.00    +0.000 C 
ENDBRANCH  21  22
ENDBRANCH  19  21
ENDBRANCH  13  19
TORSDOF 4
ENDMDL
MODEL 9
REMARK VINA RESULT:      -5.7      6.382      7.902
REMARK  Name = 
REMARK  6 active torsions:
REMARK  status: ('A' for Active; 'I' for Inactive)
REMARK    1  A    between atoms: C_2  and  C_3
REMARK    2  A    between atoms: N_11  and  C_12
REMARK    3  A    between atoms: C_15  and  C_16
REMARK    4  A    between atoms: C_16  and  O_18
REMARK    5  A    between atoms: O_18  and  C_19
REMARK    6  A    between atoms: C_19  and  C_20
REMARK                            x       y       z     vdW  Elec       q    Type
REMARK                         _______ _______ _______ _____ _____    ______ ____
ROOT
ATOM      1  C   UNL     1      -3.211  10.522  15.778  0.00  0.00    +0.000 A 
ATOM      2  C   UNL     1      -4.445  11.079  16.118  0.00  0.00    +0.000 A 
ATOM      3  C   UNL     1      -4.650  11.608  17.395  0.00  0.00    +0.000 A 
ATOM      4  C   UNL     1      -3.596  11.625  18.321  0.00  0.00    +0.000 A 
ATOM      5  C   UNL     1      -2.362  11.040  17.991  0.00  0.00    +0.000 A 
ATOM      6  C   UNL     1      -2.187  10.473  16.720  0.00  0.00    +0.000 A 
ATOM      7  C   UNL     1      -1.191  10.906  18.901  0.00  0.00    +0.000 C 
ATOM      8  O   UNL     1      -0.601   9.827  18.914  0.00  0.00    +0.000 OA
ATOM      9  N   UNL     1      -0.765  12.015  19.618  0.00  0.00    +0.000 N 
ATOM     10  C   UNL     1       0.608  12.044  20.086  0.00  0.00    +0.000 C 
ATOM     11  C   UNL     1      -1.480  13.272  19.617  0.00  0.00    +0.000 C 
ATOM     12  C   UNL     1      -2.815  13.031  20.208  0.00  0.00    +0.000 A 
ATOM     13  C   UNL     1      -3.403  13.440  21.394  0.00  0.00    +0.000 A 
ATOM     14  N   UNL     1      -4.732  13.046  21.412  0.00  0.00    +0.000 NA
ATOM     15  C   UNL     1      -4.921  12.378  20.297  0.00  0.00    +0.000 A 
ATOM     16  N   UNL     1      -3.772  12.289  19.552  0.00  0.00    +0.000 N 
ENDROOT
BRANCH   1  18
ATOM     17  C   UNL     1      -2.823   9.639  13.332  0.00  0.00    +0.000 C 
ATOM     18  C   UNL     1      -2.968  10.036  14.456  0.00  0.00    +0.000 C 
ENDBRANCH   1  18
BRANCH  13  19
ATOM     19  C   UNL     1      -2.750  14.136  22.503  0.00  0.00    +0.000 C 
ATOM     20  O   UNL     1      -2.524  15.342  22.506  0.00  0.00    +0.000 OA
BRANCH  19  21
ATOM     21  O   UNL     1      -2.335  13.272  23.472  0.00  0.00    +0.000 OA
BRANCH  21  22
ATOM     22  C   UNL     1      -1.103  12.597  23.205  0.00  0.00    +0.000 C 
ATOM     23  C   UNL     1      -1.388  11.107  23.128  0.00  0.00    +0.000 C 
ENDBRANCH  21  22
ENDBRANCH  19  21
ENDBRANCH  13  19
TORSDOF 4
ENDMDL
