MODEL 1
REMARK VINA RESULT:      -8.2      0.000      0.000
REMARK  Name = 
REMARK  6 active torsions:
REMARK  status: ('A' for Active; 'I' for Inactive)
REMARK    1  A    between atoms: C_2  and  C_3
REMARK    2  A    between atoms: C_9  and  S_10
REMARK    3  A    between atoms: S_10  and  N_13
REMARK    4  A    between atoms: C_17  and  O_19
REMARK    5  A    between atoms: O_19  and  C_20
REMARK    6  A    between atoms: C_20  and  C_21
REMARK                            x       y       z     vdW  Elec       q    Type
REMARK                         _______ _______ _______ _____ _____    ______ ____
ROOT
ATOM      1  N   UNL     1       2.768   4.729  18.852  0.00  0.00    +0.000 NA
ATOM      2  C   UNL     1       1.828   4.734  20.009  0.00  0.00    +0.000 C 
ATOM      3  C   UNL     1       1.854   6.045  20.804  0.00  0.00    +0.000 C 
ATOM      4  N   UNL     1       1.769   7.248  19.978  0.00  0.00    +0.000 N 
ATOM      5  C   UNL     1       1.424   8.431  20.626  0.00  0.00    +0.000 C 
ATOM      6  O   UNL     1       1.105   8.478  21.810  0.00  0.00    +0.000 OA
ATOM      7  C   UNL     1       2.492   7.253  18.703  0.00  0.00    +0.000 C 
ATOM      8  C   UNL     1       2.466   5.902  17.963  0.00  0.00    +0.000 C 
ENDROOT
BRANCH   1   9
ATOM      9  S   UNL     1       4.423   4.450  19.143  0.00  0.00    +0.000 S 
ATOM     10  O   UNL     1       4.531   3.159  19.789  0.00  0.00    +0.000 OA
ATOM     11  O   UNL     1       4.969   5.635  19.757  0.00  0.00    +0.000 OA
BRANCH   9  18
ATOM     12  C   UNL     1       6.176   3.507  12.615  0.00  0.00    +0.000 C 
ATOM     13  O   UNL     1       4.965   3.480  12.469  0.00  0.00    +0.000 OA
ATOM     14  N   UNL     1       6.869   3.804  13.773  0.00  0.00    +0.000 N 
ATOM     15  C   UNL     1       6.263   4.017  15.025  0.00  0.00    +0.000 A 
ATOM     16  C   UNL     1       7.066   4.477  16.066  0.00  0.00    +0.000 A 
ATOM     17  C   UNL     1       6.512   4.629  17.343  0.00  0.00    +0.000 A 
ATOM     18  C   UNL     1       5.173   4.307  17.550  0.00  0.00    +0.000 A 
ATOM     19  C   UNL     1       4.427   3.908  16.462  0.00  0.00    +0.000 A 
ATOM     20  N   UNL     1       4.955   3.749  15.220  0.00  0.00    +0.000 NA
ATOM     21  H   UNL     1       7.871   3.888  13.731  0.00  0.00    +0.000 HD
BRANCH  12  23
ATOM     22  C   UNL     1       7.353   1.955  11.130  0.00  0.00    +0.000 C 
ATOM     23  C   UNL     1       7.080   3.225  11.459  0.00  0.00    +0.000 C 
ENDBRANCH  12  23
ENDBRANCH   9  18
ENDBRANCH   1   9
BRANCH   5  24
ATOM     24  O   UNL     1       1.376   9.501  19.787  0.00  0.00    +0.000 OA
BRANCH  24  25
ATOM     25  C   UNL     1       0.470  10.540  20.184  0.00  0.00    +0.000 C 
BRANCH  25  26
ATOM     26  C   UNL     1      -0.686  10.693  19.230  0.00  0.00    +0.000 A 
ATOM     27  C   UNL     1      -0.733   9.963  18.033  0.00  0.00    +0.000 A 
ATOM     28  C   UNL     1      -1.830  10.078  17.176  0.00  0.00    +0.000 A 
ATOM     29  C   UNL     1      -2.887  10.924  17.503  0.00  0.00    +0.000 A 
ATOM     30  C   UNL     1      -2.850  11.657  18.688  0.00  0.00    +0.000 A 
ATOM     31  C   UNL     1      -1.753  11.546  19.546  0.00  0.00    +0.000 A 
ENDBRANCH  25  26
ENDBRANCH  24  25
ENDBRANCH   5  24
TORSDOF 6
ENDMDL
MODEL 2
REMARK VINA RESULT:      -7.7      4.707     11.621
REMARK  Name = 
REMARK  6 active torsions:
REMARK  status: ('A' for Active; 'I' for Inactive)
REMARK    1  A    between atoms: C_2  and  C_3
REMARK    2  A    between atoms: C_9  and  S_10
REMARK    3  A    between atoms: S_10  and  N_13
REMARK    4  A    between atoms: C_17  and  O_19
REMARK    5  A    between atoms: O_19  and  C_20
REMARK    6  A    between atoms: C_20  and  C_21
REMARK                            x       y       z     vdW  Elec       q    Type
REMARK                         _______ _______ _______ _____ _____    ______ ____
ROOT
ATOM      1  N   UNL     1      -0.799   9.982  20.998  0.00  0.00    +0.000 NA
ATOM      2  C   UNL     1      -0.862  10.168  19.520  0.00  0.00    +0.000 C 
ATOM      3  C   UNL     1       0.500  10.011  18.832  0.00  0.00    +0.000 C 
ATOM      4  N   UNL     1       1.244   8.821  19.240  0.00  0.00    +0.000 N 
ATOM      5  C   UNL     1       2.292   8.421  18.414  0.00  0.00    +0.000 C 
ATOM      6  O   UNL     1       2.542   8.962  17.342  0.00  0.00    +0.000 OA
ATOM      7  C   UNL     1       1.186   8.429  20.651  0.00  0.00    +0.000 C 
ATOM      8  C   UNL     1      -0.193   8.642  21.304  0.00  0.00    +0.000 C 
ENDROOT
BRANCH   1   9
ATOM      9  S   UNL     1      -0.231  11.268  21.961  0.00  0.00    +0.000 S 
ATOM     10  O   UNL     1       0.920  11.830  21.285  0.00  0.00    +0.000 OA
ATOM     11  O   UNL     1      -0.135  10.794  23.319  0.00  0.00    +0.000 OA
BRANCH   9  18
ATOM     12  C   UNL     1      -5.678  15.296  22.785  0.00  0.00    +0.000 C 
ATOM     13  O   UNL     1      -5.777  14.666  23.824  0.00  0.00    +0.000 OA
ATOM     14  N   UNL     1      -4.645  15.236  21.869  0.00  0.00    +0.000 N 
ATOM     15  C   UNL     1      -3.572  14.328  21.945  0.00  0.00    +0.000 A 
ATOM     16  C   UNL     1      -2.516  14.493  21.052  0.00  0.00    +0.000 A 
ATOM     17  C   UNL     1      -1.468  13.565  21.051  0.00  0.00    +0.000 A 
ATOM     18  C   UNL     1      -1.507  12.488  21.933  0.00  0.00    +0.000 A 
ATOM     19  C   UNL     1      -2.559  12.417  22.822  0.00  0.00    +0.000 A 
ATOM     20  N   UNL     1      -3.585  13.308  22.828  0.00  0.00    +0.000 NA
ATOM     21  H   UNL     1      -4.640  15.884  21.099  0.00  0.00    +0.000 HD
BRANCH  12  23
ATOM     22  C   UNL     1      -7.915  15.836  21.946  0.00  0.00    +0.000 C 
ATOM     23  C   UNL     1      -6.735  16.280  22.397  0.00  0.00    +0.000 C 
ENDBRANCH  12  23
ENDBRANCH   9  18
ENDBRANCH   1   9
BRANCH   5  24
ATOM     24  O   UNL     1       2.934   7.313  18.871  0.00  0.00    +0.000 OA
BRANCH  24  25
ATOM     25  C   UNL     1       2.829   6.161  18.022  0.00  0.00    +0.000 C 
BRANCH  25  26
ATOM     26  C   UNL     1       2.124   5.011  18.695  0.00  0.00    +0.000 A 
ATOM     27  C   UNL     1       1.626   3.935  17.944  0.00  0.00    +0.000 A 
ATOM     28  C   UNL     1       1.014   2.852  18.578  0.00  0.00    +0.000 A 
ATOM     29  C   UNL     1       0.889   2.835  19.967  0.00  0.00    +0.000 A 
ATOM     30  C   UNL     1       1.376   3.900  20.721  0.00  0.00    +0.000 A 
ATOM     31  C   UNL     1       1.987   4.985  20.089  0.00  0.00    +0.000 A 
ENDBRANCH  25  26
ENDBRANCH  24  25
ENDBRANCH   5  24
TORSDOF 6
ENDMDL
MODEL 3
REMARK VINA RESULT:      -7.7      2.802      3.958
REMARK  Name = 
REMARK  6 active torsions:
REMARK  status: ('A' for Active; 'I' for Inactive)
REMARK    1  A    between atoms: C_2  and  C_3
REMARK    2  A    between atoms: C_9  and  S_10
REMARK    3  A    between atoms: S_10  and  N_13
REMARK    4  A    between atoms: C_17  and  O_19
REMARK    5  A    between atoms: O_19  and  C_20
REMARK    6  A    between atoms: C_20  and  C_21
REMARK                            x       y       z     vdW  Elec       q    Type
REMARK                         _______ _______ _______ _____ _____    ______ ____
ROOT
ATOM      1  N   UNL     1       2.261   2.879  19.277  0.00  0.00    +0.000 NA
ATOM      2  C   UNL     1       2.154   3.677  20.532  0.00  0.00    +0.000 C 
ATOM      3  C   UNL     1       2.592   5.137  20.360  0.00  0.00    +0.000 C 
ATOM      4  N   UNL     1       2.014   5.803  19.195  0.00  0.00    +0.000 N 
ATOM      5  C   UNL     1       2.067   7.194  19.175  0.00  0.00    +0.000 C 
ATOM      6  O   UNL     1       2.484   7.861  20.117  0.00  0.00    +0.000 OA
ATOM      7  C   UNL     1       1.874   5.022  17.962  0.00  0.00    +0.000 C 
ATOM      8  C   UNL     1       1.469   3.554  18.192  0.00  0.00    +0.000 C 
ENDROOT
BRANCH   1   9
ATOM      9  S   UNL     1       3.791   2.302  18.801  0.00  0.00    +0.000 S 
ATOM     10  O   UNL     1       3.588   1.468  17.635  0.00  0.00    +0.000 OA
ATOM     11  O   UNL     1       4.454   1.788  19.974  0.00  0.00    +0.000 OA
BRANCH   9  18
ATOM     12  C   UNL     1       7.823   7.740  17.945  0.00  0.00    +0.000 C 
ATOM     13  O   UNL     1       8.368   7.283  18.936  0.00  0.00    +0.000 OA
ATOM     14  N   UNL     1       6.805   7.162  17.211  0.00  0.00    +0.000 N 
ATOM     15  C   UNL     1       6.146   5.972  17.574  0.00  0.00    +0.000 A 
ATOM     16  C   UNL     1       5.260   5.414  16.655  0.00  0.00    +0.000 A 
ATOM     17  C   UNL     1       4.533   4.272  17.012  0.00  0.00    +0.000 A 
ATOM     18  C   UNL     1       4.700   3.723  18.282  0.00  0.00    +0.000 A 
ATOM     19  C   UNL     1       5.632   4.300  19.118  0.00  0.00    +0.000 A 
ATOM     20  N   UNL     1       6.338   5.413  18.786  0.00  0.00    +0.000 NA
ATOM     21  H   UNL     1       6.513   7.602  16.355  0.00  0.00    +0.000 HD
BRANCH  12  23
ATOM     22  C   UNL     1       8.695  10.014  18.212  0.00  0.00    +0.000 C 
ATOM     23  C   UNL     1       8.263   9.054  17.383  0.00  0.00    +0.000 C 
ENDBRANCH  12  23
ENDBRANCH   9  18
ENDBRANCH   1   9
BRANCH   5  24
ATOM     24  O   UNL     1       1.516   7.730  18.054  0.00  0.00    +0.000 OA
BRANCH  24  25
ATOM     25  C   UNL     1       1.710   9.144  17.902  0.00  0.00    +0.000 C 
BRANCH  25  26
ATOM     26  C   UNL     1       0.512   9.943  18.347  0.00  0.00    +0.000 A 
ATOM     27  C   UNL     1      -0.712   9.840  17.670  0.00  0.00    +0.000 A 
ATOM     28  C   UNL     1      -1.830  10.549  18.115  0.00  0.00    +0.000 A 
ATOM     29  C   UNL     1      -1.735  11.371  19.237  0.00  0.00    +0.000 A 
ATOM     30  C   UNL     1      -0.523  11.484  19.915  0.00  0.00    +0.000 A 
ATOM     31  C   UNL     1       0.597  10.776  19.470  0.00  0.00    +0.000 A 
ENDBRANCH  25  26
ENDBRANCH  24  25
ENDBRANCH   5  24
TORSDOF 6
ENDMDL
MODEL 4
REMARK VINA RESULT:      -7.6      1.177      1.725
REMARK  Name = 
REMARK  6 active torsions:
REMARK  status: ('A' for Active; 'I' for Inactive)
REMARK    1  A    between atoms: C_2  and  C_3
REMARK    2  A    between atoms: C_9  and  S_10
REMARK    3  A    between atoms: S_10  and  N_13
REMARK    4  A    between atoms: C_17  and  O_19
REMARK    5  A    between atoms: O_19  and  C_20
REMARK    6  A    between atoms: C_20  and  C_21
REMARK                            x       y       z     vdW  Elec       q    Type
REMARK                         _______ _______ _______ _____ _____    ______ ____
ROOT
ATOM      1  N   UNL     1       2.943   4.604  18.924  0.00  0.00    +0.000 NA
ATOM      2  C   UNL     1       2.053   4.584  20.120  0.00  0.00    +0.000 C 
ATOM      3  C   UNL     1       2.025   5.919  20.875  0.00  0.00    +0.000 C 
ATOM      4  N   UNL     1       1.827   7.087  20.020  0.00  0.00    +0.000 N 
ATOM      5  C   UNL     1       1.431   8.265  20.647  0.00  0.00    +0.000 C 
ATOM      6  O   UNL     1       1.159   8.328  21.842  0.00  0.00    +0.000 OA
ATOM      7  C   UNL     1       2.495   7.099  18.715  0.00  0.00    +0.000 C 
ATOM      8  C   UNL     1       2.529   5.727  18.016  0.00  0.00    +0.000 C 
ENDROOT
BRANCH   1   9
ATOM      9  S   UNL     1       4.624   4.442  19.152  0.00  0.00    +0.000 S 
ATOM     10  O   UNL     1       4.843   3.181  19.828  0.00  0.00    +0.000 OA
ATOM     11  O   UNL     1       5.115   5.677  19.711  0.00  0.00    +0.000 OA
BRANCH   9  18
ATOM     12  C   UNL     1       6.151   3.482  12.571  0.00  0.00    +0.000 C 
ATOM     13  O   UNL     1       4.936   3.429  12.470  0.00  0.00    +0.000 OA
ATOM     14  N   UNL     1       6.880   3.803  13.699  0.00  0.00    +0.000 N 
ATOM     15  C   UNL     1       6.317   4.014  14.972  0.00  0.00    +0.000 A 
ATOM     16  C   UNL     1       7.149   4.498  15.979  0.00  0.00    +0.000 A 
ATOM     17  C   UNL     1       6.640   4.649  17.274  0.00  0.00    +0.000 A 
ATOM     18  C   UNL     1       5.316   4.302  17.534  0.00  0.00    +0.000 A 
ATOM     19  C   UNL     1       4.539   3.878  16.477  0.00  0.00    +0.000 A 
ATOM     20  N   UNL     1       5.023   3.720  15.217  0.00  0.00    +0.000 NA
ATOM     21  H   UNL     1       7.878   3.906  13.619  0.00  0.00    +0.000 HD
BRANCH  12  23
ATOM     22  C   UNL     1       7.244   1.942  11.010  0.00  0.00    +0.000 C 
ATOM     23  C   UNL     1       7.017   3.209  11.383  0.00  0.00    +0.000 C 
ENDBRANCH  12  23
ENDBRANCH   9  18
ENDBRANCH   1   9
BRANCH   5  24
ATOM     24  O   UNL     1       1.279   9.302  19.781  0.00  0.00    +0.000 OA
BRANCH  24  25
ATOM     25  C   UNL     1       0.109  10.104  19.999  0.00  0.00    +0.000 C 
BRANCH  25  26
ATOM     26  C   UNL     1       0.353  11.567  19.731  0.00  0.00    +0.000 A 
ATOM     27  C   UNL     1      -0.316  12.229  18.691  0.00  0.00    +0.000 A 
ATOM     28  C   UNL     1      -0.118  13.595  18.477  0.00  0.00    +0.000 A 
ATOM     29  C   UNL     1       0.753  14.311  19.297  0.00  0.00    +0.000 A 
ATOM     30  C   UNL     1       1.427  13.663  20.329  0.00  0.00    +0.000 A 
ATOM     31  C   UNL     1       1.232  12.296  20.544  0.00  0.00    +0.000 A 
ENDBRANCH  25  26
ENDBRANCH  24  25
ENDBRANCH   5  24
TORSDOF 6
ENDMDL
MODEL 5
REMARK VINA RESULT:      -7.6      0.752      1.294
REMARK  Name = 
REMARK  6 active torsions:
REMARK  status: ('A' for Active; 'I' for Inactive)
REMARK    1  A    between atoms: C_2  and  C_3
REMARK    2  A    between atoms: C_9  and  S_10
REMARK    3  A    between atoms: S_10  and  N_13
REMARK    4  A    between atoms: C_17  and  O_19
REMARK    5  A    between atoms: O_19  and  C_20
REMARK    6  A    between atoms: C_20  and  C_21
REMARK                            x       y       z     vdW  Elec       q    Type
REMARK                         _______ _______ _______ _____ _____    ______ ____
ROOT
ATOM      1  N   UNL     1       2.932   4.630  18.935  0.00  0.00    +0.000 NA
ATOM      2  C   UNL     1       2.043   4.596  20.132  0.00  0.00    +0.000 C 
ATOM      3  C   UNL     1       2.007   5.925  20.896  0.00  0.00    +0.000 C 
ATOM      4  N   UNL     1       1.800   7.098  20.050  0.00  0.00    +0.000 N 
ATOM      5  C   UNL     1       1.397   8.269  20.686  0.00  0.00    +0.000 C 
ATOM      6  O   UNL     1       1.126   8.322  21.882  0.00  0.00    +0.000 OA
ATOM      7  C   UNL     1       2.466   7.124  18.744  0.00  0.00    +0.000 C 
ATOM      8  C   UNL     1       2.508   5.757  18.036  0.00  0.00    +0.000 C 
ENDROOT
BRANCH   1   9
ATOM      9  S   UNL     1       4.613   4.479  19.159  0.00  0.00    +0.000 S 
ATOM     10  O   UNL     1       4.839   3.228  19.854  0.00  0.00    +0.000 OA
ATOM     11  O   UNL     1       5.101   5.724  19.698  0.00  0.00    +0.000 OA
BRANCH   9  18
ATOM     12  C   UNL     1       6.111   3.456  12.581  0.00  0.00    +0.000 C 
ATOM     13  O   UNL     1       4.896   3.429  12.481  0.00  0.00    +0.000 OA
ATOM     14  N   UNL     1       6.849   3.766  13.707  0.00  0.00    +0.000 N 
ATOM     15  C   UNL     1       6.292   3.994  14.979  0.00  0.00    +0.000 A 
ATOM     16  C   UNL     1       7.135   4.465  15.983  0.00  0.00    +0.000 A 
ATOM     17  C   UNL     1       6.632   4.633  17.278  0.00  0.00    +0.000 A 
ATOM     18  C   UNL     1       5.300   4.316  17.541  0.00  0.00    +0.000 A 
ATOM     19  C   UNL     1       4.513   3.904  16.487  0.00  0.00    +0.000 A 
ATOM     20  N   UNL     1       4.992   3.730  15.227  0.00  0.00    +0.000 NA
ATOM     21  H   UNL     1       7.848   3.847  13.625  0.00  0.00    +0.000 HD
BRANCH  12  23
ATOM     22  C   UNL     1       7.220   1.884  11.063  0.00  0.00    +0.000 C 
ATOM     23  C   UNL     1       6.969   3.158  11.394  0.00  0.00    +0.000 C 
ENDBRANCH  12  23
ENDBRANCH   9  18
ENDBRANCH   1   9
BRANCH   5  24
ATOM     24  O   UNL     1       1.237   9.311  19.828  0.00  0.00    +0.000 OA
BRANCH  24  25
ATOM     25  C   UNL     1       1.155  10.601  20.452  0.00  0.00    +0.000 C 
BRANCH  25  26
ATOM     26  C   UNL     1      -0.209  11.225  20.312  0.00  0.00    +0.000 A 
ATOM     27  C   UNL     1      -0.926  11.649  21.440  0.00  0.00    +0.000 A 
ATOM     28  C   UNL     1      -2.171  12.267  21.299  0.00  0.00    +0.000 A 
ATOM     29  C   UNL     1      -2.713  12.464  20.030  0.00  0.00    +0.000 A 
ATOM     30  C   UNL     1      -2.011  12.043  18.902  0.00  0.00    +0.000 A 
ATOM     31  C   UNL     1      -0.768  11.422  19.041  0.00  0.00    +0.000 A 
ENDBRANCH  25  26
ENDBRANCH  24  25
ENDBRANCH   5  24
TORSDOF 6
ENDMDL
MODEL 6
REMARK VINA RESULT:      -7.6      0.870      1.348
REMARK  Name = 
REMARK  6 active torsions:
REMARK  status: ('A' for Active; 'I' for Inactive)
REMARK    1  A    between atoms: C_2  and  C_3
REMARK    2  A    between atoms: C_9  and  S_10
REMARK    3  A    between atoms: S_10  and  N_13
REMARK    4  A    between atoms: C_17  and  O_19
REMARK    5  A    between atoms: O_19  and  C_20
REMARK    6  A    between atoms: C_20  and  C_21
REMARK                            x       y       z     vdW  Elec       q    Type
REMARK                         _______ _______ _______ _____ _____    ______ ____
ROOT
ATOM      1  N   UNL     1       2.680   4.465  19.027  0.00  0.00    +0.000 NA
ATOM      2  C   UNL     1       1.802   4.556  20.228  0.00  0.00    +0.000 C 
ATOM      3  C   UNL     1       1.878   5.916  20.931  0.00  0.00    +0.000 C 
ATOM      4  N   UNL     1       1.758   7.063  20.033  0.00  0.00    +0.000 N 
ATOM      5  C   UNL     1       1.454   8.289  20.617  0.00  0.00    +0.000 C 
ATOM      6  O   UNL     1       1.198   8.417  21.811  0.00  0.00    +0.000 OA
ATOM      7  C   UNL     1       2.413   6.976  18.725  0.00  0.00    +0.000 C 
ATOM      8  C   UNL     1       2.341   5.580  18.079  0.00  0.00    +0.000 C 
ENDROOT
BRANCH   1   9
ATOM      9  S   UNL     1       4.347   4.190  19.250  0.00  0.00    +0.000 S 
ATOM     10  O   UNL     1       4.513   2.776  19.515  0.00  0.00    +0.000 OA
ATOM     11  O   UNL     1       4.838   5.180  20.176  0.00  0.00    +0.000 OA
BRANCH   9  18
ATOM     12  C   UNL     1       6.749   4.394  12.866  0.00  0.00    +0.000 C 
ATOM     13  O   UNL     1       5.914   3.520  12.703  0.00  0.00    +0.000 OA
ATOM     14  N   UNL     1       6.950   5.153  14.004  0.00  0.00    +0.000 N 
ATOM     15  C   UNL     1       6.274   4.948  15.221  0.00  0.00    +0.000 A 
ATOM     16  C   UNL     1       6.449   5.893  16.229  0.00  0.00    +0.000 A 
ATOM     17  C   UNL     1       5.851   5.682  17.477  0.00  0.00    +0.000 A 
ATOM     18  C   UNL     1       5.102   4.527  17.691  0.00  0.00    +0.000 A 
ATOM     19  C   UNL     1       4.930   3.662  16.631  0.00  0.00    +0.000 A 
ATOM     20  N   UNL     1       5.512   3.852  15.417  0.00  0.00    +0.000 NA
ATOM     21  H   UNL     1       7.610   5.912  13.971  0.00  0.00    +0.000 HD
BRANCH  12  23
ATOM     22  C   UNL     1       8.003   6.050  11.567  0.00  0.00    +0.000 C 
ATOM     23  C   UNL     1       7.679   4.764  11.756  0.00  0.00    +0.000 C 
ENDBRANCH  12  23
ENDBRANCH   9  18
ENDBRANCH   1   9
BRANCH   5  24
ATOM     24  O   UNL     1       1.370   9.301  19.713  0.00  0.00    +0.000 OA
BRANCH  24  25
ATOM     25  C   UNL     1       0.523  10.392  20.104  0.00  0.00    +0.000 C 
BRANCH  25  26
ATOM     26  C   UNL     1      -0.654  10.568  19.179  0.00  0.00    +0.000 A 
ATOM     27  C   UNL     1      -1.669  11.490  19.475  0.00  0.00    +0.000 A 
ATOM     28  C   UNL     1      -2.734  11.680  18.592  0.00  0.00    +0.000 A 
ATOM     29  C   UNL     1      -2.798  10.948  17.407  0.00  0.00    +0.000 A 
ATOM     30  C   UNL     1      -1.798  10.026  17.105  0.00  0.00    +0.000 A 
ATOM     31  C   UNL     1      -0.733   9.833  17.988  0.00  0.00    +0.000 A 
ENDBRANCH  25  26
ENDBRANCH  24  25
ENDBRANCH   5  24
TORSDOF 6
ENDMDL
MODEL 7
REMARK VINA RESULT:      -7.6      1.310      1.968
REMARK  Name = 
REMARK  6 active torsions:
REMARK  status: ('A' for Active; 'I' for Inactive)
REMARK    1  A    between atoms: C_2  and  C_3
REMARK    2  A    between atoms: C_9  and  S_10
REMARK    3  A    between atoms: S_10  and  N_13
REMARK    4  A    between atoms: C_17  and  O_19
REMARK    5  A    between atoms: O_19  and  C_20
REMARK    6  A    between atoms: C_20  and  C_21
REMARK                            x       y       z     vdW  Elec       q    Type
REMARK                         _______ _______ _______ _____ _____    ______ ____
ROOT
ATOM      1  N   UNL     1       2.881   4.657  18.934  0.00  0.00    +0.000 NA
ATOM      2  C   UNL     1       1.958   4.608  20.105  0.00  0.00    +0.000 C 
ATOM      3  C   UNL     1       1.948   5.905  20.922  0.00  0.00    +0.000 C 
ATOM      4  N   UNL     1       1.807   7.118  20.121  0.00  0.00    +0.000 N 
ATOM      5  C   UNL     1       1.428   8.276  20.794  0.00  0.00    +0.000 C 
ATOM      6  O   UNL     1       1.126   8.290  21.983  0.00  0.00    +0.000 OA
ATOM      7  C   UNL     1       2.511   7.172  18.835  0.00  0.00    +0.000 C 
ATOM      8  C   UNL     1       2.523   5.835  18.072  0.00  0.00    +0.000 C 
ENDROOT
BRANCH   1   9
ATOM      9  S   UNL     1       4.549   4.435  19.197  0.00  0.00    +0.000 S 
ATOM     10  O   UNL     1       4.710   3.153  19.850  0.00  0.00    +0.000 OA
ATOM     11  O   UNL     1       5.067   5.641  19.794  0.00  0.00    +0.000 OA
BRANCH   9  18
ATOM     12  C   UNL     1       6.214   3.502  12.645  0.00  0.00    +0.000 C 
ATOM     13  O   UNL     1       5.003   3.436  12.521  0.00  0.00    +0.000 OA
ATOM     14  N   UNL     1       6.918   3.829  13.788  0.00  0.00    +0.000 N 
ATOM     15  C   UNL     1       6.328   4.032  15.050  0.00  0.00    +0.000 A 
ATOM     16  C   UNL     1       7.134   4.523  16.073  0.00  0.00    +0.000 A 
ATOM     17  C   UNL     1       6.599   4.667  17.359  0.00  0.00    +0.000 A 
ATOM     18  C   UNL     1       5.274   4.305  17.593  0.00  0.00    +0.000 A 
ATOM     19  C   UNL     1       4.522   3.874  16.520  0.00  0.00    +0.000 A 
ATOM     20  N   UNL     1       5.033   3.723  15.270  0.00  0.00    +0.000 NA
ATOM     21  H   UNL     1       7.916   3.944  13.728  0.00  0.00    +0.000 HD
BRANCH  12  23
ATOM     22  C   UNL     1       7.231   1.991  11.007  0.00  0.00    +0.000 C 
ATOM     23  C   UNL     1       7.106   3.240  11.475  0.00  0.00    +0.000 C 
ENDBRANCH  12  23
ENDBRANCH   9  18
ENDBRANCH   1   9
BRANCH   5  24
ATOM     24  O   UNL     1       1.330   9.358  19.976  0.00  0.00    +0.000 OA
BRANCH  24  25
ATOM     25  C   UNL     1       0.047  10.000  19.975  0.00  0.00    +0.000 C 
BRANCH  25  26
ATOM     26  C   UNL     1       0.045  11.290  20.754  0.00  0.00    +0.000 A 
ATOM     27  C   UNL     1       0.945  12.319  20.441  0.00  0.00    +0.000 A 
ATOM     28  C   UNL     1       0.909  13.529  21.138  0.00  0.00    +0.000 A 
ATOM     29  C   UNL     1      -0.024  13.720  22.156  0.00  0.00    +0.000 A 
ATOM     30  C   UNL     1      -0.920  12.703  22.478  0.00  0.00    +0.000 A 
ATOM     31  C   UNL     1      -0.883  11.491  21.783  0.00  0.00    +0.000 A 
ENDBRANCH  25  26
ENDBRANCH  24  25
ENDBRANCH   5  24
TORSDOF 6
ENDMDL
MODEL 8
REMARK VINA RESULT:      -7.5      4.681     11.816
REMARK  Name = 
REMARK  6 active torsions:
REMARK  status: ('A' for Active; 'I' for Inactive)
REMARK    1  A    between atoms: C_2  and  C_3
REMARK    2  A    between atoms: C_9  and  S_10
REMARK    3  A    between atoms: S_10  and  N_13
REMARK    4  A    between atoms: C_17  and  O_19
REMARK    5  A    between atoms: O_19  and  C_20
REMARK    6  A    between atoms: C_20  and  C_21
REMARK                            x       y       z     vdW  Elec       q    Type
REMARK                         _______ _______ _______ _____ _____    ______ ____
ROOT
ATOM      1  N   UNL     1      -0.746  10.093  21.128  0.00  0.00    +0.000 NA
ATOM      2  C   UNL     1      -0.668  10.373  19.666  0.00  0.00    +0.000 C 
ATOM      3  C   UNL     1       0.704  10.055  19.061  0.00  0.00    +0.000 C 
ATOM      4  N   UNL     1       1.234   8.744  19.433  0.00  0.00    +0.000 N 
ATOM      5  C   UNL     1       2.272   8.242  18.653  0.00  0.00    +0.000 C 
ATOM      6  O   UNL     1       2.680   8.802  17.640  0.00  0.00    +0.000 OA
ATOM      7  C   UNL     1       1.012   8.283  20.806  0.00  0.00    +0.000 C 
ATOM      8  C   UNL     1      -0.366   8.660  21.379  0.00  0.00    +0.000 C 
ENDROOT
BRANCH   1   9
ATOM      9  S   UNL     1      -0.073  11.219  22.215  0.00  0.00    +0.000 S 
ATOM     10  O   UNL     1       0.954  11.943  21.495  0.00  0.00    +0.000 OA
ATOM     11  O   UNL     1       0.232  10.523  23.440  0.00  0.00    +0.000 OA
BRANCH   9  18
ATOM     12  C   UNL     1      -5.811  14.614  23.668  0.00  0.00    +0.000 C 
ATOM     13  O   UNL     1      -6.206  13.494  23.944  0.00  0.00    +0.000 OA
ATOM     14  N   UNL     1      -4.524  14.985  23.327  0.00  0.00    +0.000 N 
ATOM     15  C   UNL     1      -3.466  14.078  23.130  0.00  0.00    +0.000 A 
ATOM     16  C   UNL     1      -2.186  14.599  22.959  0.00  0.00    +0.000 A 
ATOM     17  C   UNL     1      -1.122  13.731  22.687  0.00  0.00    +0.000 A 
ATOM     18  C   UNL     1      -1.366  12.363  22.583  0.00  0.00    +0.000 A 
ATOM     19  C   UNL     1      -2.649  11.914  22.815  0.00  0.00    +0.000 A 
ATOM     20  N   UNL     1      -3.691  12.749  23.072  0.00  0.00    +0.000 NA
ATOM     21  H   UNL     1      -4.313  15.963  23.219  0.00  0.00    +0.000 HD
BRANCH  12  23
ATOM     22  C   UNL     1      -6.834  16.592  22.647  0.00  0.00    +0.000 C 
ATOM     23  C   UNL     1      -6.753  15.774  23.705  0.00  0.00    +0.000 C 
ENDBRANCH  12  23
ENDBRANCH   9  18
ENDBRANCH   1   9
BRANCH   5  24
ATOM     24  O   UNL     1       2.710   7.025  19.072  0.00  0.00    +0.000 OA
BRANCH  24  25
ATOM     25  C   UNL     1       2.964   6.080  18.023  0.00  0.00    +0.000 C 
BRANCH  25  26
ATOM     26  C   UNL     1       2.438   4.705  18.345  0.00  0.00    +0.000 A 
ATOM     27  C   UNL     1       1.626   4.491  19.469  0.00  0.00    +0.000 A 
ATOM     28  C   UNL     1       1.106   3.222  19.736  0.00  0.00    +0.000 A 
ATOM     29  C   UNL     1       1.396   2.155  18.886  0.00  0.00    +0.000 A 
ATOM     30  C   UNL     1       2.205   2.356  17.770  0.00  0.00    +0.000 A 
ATOM     31  C   UNL     1       2.728   3.624  17.502  0.00  0.00    +0.000 A 
ENDBRANCH  25  26
ENDBRANCH  24  25
ENDBRANCH   5  24
TORSDOF 6
ENDMDL
MODEL 9
REMARK VINA RESULT:      -7.5      4.561     10.140
REMARK  Name = 
REMARK  6 active torsions:
REMARK  status: ('A' for Active; 'I' for Inactive)
REMARK    1  A    between atoms: C_2  and  C_3
REMARK    2  A    between atoms: C_9  and  S_10
REMARK    3  A    between atoms: S_10  and  N_13
REMARK    4  A    between atoms: C_17  and  O_19
REMARK    5  A    between atoms: O_19  and  C_20
REMARK    6  A    between atoms: C_20  and  C_21
REMARK                            x       y       z     vdW  Elec       q    Type
REMARK                         _______ _______ _______ _____ _____    ______ ____
ROOT
ATOM      1  N   UNL     1      -0.447   9.833  20.927  0.00  0.00    +0.000 NA
ATOM      2  C   UNL     1      -0.508  10.056  19.454  0.00  0.00    +0.000 C 
ATOM      3  C   UNL     1       0.835   9.821  18.751  0.00  0.00    +0.000 C 
ATOM      4  N   UNL     1       1.497   8.573  19.125  0.00  0.00    +0.000 N 
ATOM      5  C   UNL     1       2.508   8.121  18.281  0.00  0.00    +0.000 C 
ATOM      6  O   UNL     1       2.788   8.668  17.219  0.00  0.00    +0.000 OA
ATOM      7  C   UNL     1       1.423   8.154  20.528  0.00  0.00    +0.000 C 
ATOM      8  C   UNL     1       0.067   8.446  21.197  0.00  0.00    +0.000 C 
ENDROOT
BRANCH   1   9
ATOM      9  S   UNL     1       0.216  11.053  21.914  0.00  0.00    +0.000 S 
ATOM     10  O   UNL     1       1.640  10.806  21.997  0.00  0.00    +0.000 OA
ATOM     11  O   UNL     1      -0.592  11.146  23.105  0.00  0.00    +0.000 OA
BRANCH   9  18
ATOM     12  C   UNL     1       0.614  16.872  18.372  0.00  0.00    +0.000 C 
ATOM     13  O   UNL     1       1.741  16.463  18.147  0.00  0.00    +0.000 OA
ATOM     14  N   UNL     1      -0.402  16.202  19.026  0.00  0.00    +0.000 N 
ATOM     15  C   UNL     1      -0.250  14.950  19.650  0.00  0.00    +0.000 A 
ATOM     16  C   UNL     1      -1.396  14.314  20.121  0.00  0.00    +0.000 A 
ATOM     17  C   UNL     1      -1.274  13.103  20.812  0.00  0.00    +0.000 A 
ATOM     18  C   UNL     1      -0.008  12.562  21.025  0.00  0.00    +0.000 A 
ATOM     19  C   UNL     1       1.077  13.221  20.486  0.00  0.00    +0.000 A 
ATOM     20  N   UNL     1       0.971  14.401  19.820  0.00  0.00    +0.000 NA
ATOM     21  H   UNL     1      -1.317  16.619  19.057  0.00  0.00    +0.000 HD
BRANCH  12  23
ATOM     22  C   UNL     1      -1.095  18.471  17.646  0.00  0.00    +0.000 C 
ATOM     23  C   UNL     1       0.198  18.228  17.899  0.00  0.00    +0.000 C 
ENDBRANCH  12  23
ENDBRANCH   9  18
ENDBRANCH   1   9
BRANCH   5  24
ATOM     24  O   UNL     1       3.076   6.961  18.707  0.00  0.00    +0.000 OA
BRANCH  24  25
ATOM     25  C   UNL     1       2.725   5.800  17.940  0.00  0.00    +0.000 C 
BRANCH  25  26
ATOM     26  C   UNL     1       2.117   4.712  18.786  0.00  0.00    +0.000 A 
ATOM     27  C   UNL     1       1.413   3.651  18.196  0.00  0.00    +0.000 A 
ATOM     28  C   UNL     1       0.891   2.622  18.983  0.00  0.00    +0.000 A 
ATOM     29  C   UNL     1       1.063   2.645  20.366  0.00  0.00    +0.000 A 
ATOM     30  C   UNL     1       1.756   3.696  20.963  0.00  0.00    +0.000 A 
ATOM     31  C   UNL     1       2.278   4.727  20.178  0.00  0.00    +0.000 A 
ENDBRANCH  25  26
ENDBRANCH  24  25
ENDBRANCH   5  24
TORSDOF 6
ENDMDL
