MODEL 1
REMARK VINA RESULT:      -7.2      0.000      0.000
REMARK  Name = 
REMARK  8 active torsions:
REMARK  status: ('A' for Active; 'I' for Inactive)
REMARK    1  A    between atoms: C_2  and  C_3
REMARK    2  A    between atoms: C_3  and  C_4
REMARK    3  A    between atoms: C_4  and  O_5
REMARK    4  A    between atoms: O_5  and  C_6
REMARK    5  A    between atoms: C_9  and  C_10
REMARK    6  A    between atoms: C_10  and  N_11
REMARK    7  A    between atoms: N_14  and  C_15
REMARK    8  A    between atoms: C_15  and  C_16
REMARK                            x       y       z     vdW  Elec       q    Type
REMARK                         _______ _______ _______ _____ _____    ______ ____
ROOT
ATOM      1  N   UNL     1       2.329   7.794  18.990  0.00  0.00    +0.000 NA
ATOM      2  C   UNL     1       1.826   8.605  17.885  0.00  0.00    +0.000 C 
ATOM      3  C   UNL     1       1.181   9.812  18.539  0.00  0.00    +0.000 C 
ATOM      4  N   UNL     1       0.828   9.393  19.899  0.00  0.00    +0.000 NA
ATOM      5  C   UNL     1       1.621   8.205  20.200  0.00  0.00    +0.000 C 
ENDROOT
BRANCH   1   6
ATOM      6  C   UNL     1       2.183   6.355  18.722  0.00  0.00    +0.000 C 
BRANCH   6  10
ATOM      7  C   UNL     1       5.462   4.649  16.448  0.00  0.00    +0.000 A 
ATOM      8  C   UNL     1       4.328   3.898  16.762  0.00  0.00    +0.000 A 
ATOM      9  C   UNL     1       3.282   4.457  17.489  0.00  0.00    +0.000 A 
ATOM     10  C   UNL     1       3.341   5.784  17.926  0.00  0.00    +0.000 A 
ATOM     11  C   UNL     1       4.471   6.548  17.598  0.00  0.00    +0.000 A 
ATOM     12  C   UNL     1       5.526   5.980  16.865  0.00  0.00    +0.000 A 
BRANCH   7  13
ATOM     13  O   UNL     1       6.550   4.178  15.748  0.00  0.00    +0.000 OA
BRANCH  13  14
ATOM     14  C   UNL     1       6.624   4.642  14.397  0.00  0.00    +0.000 C 
BRANCH  14  15
ATOM     15  C   UNL     1       5.656   3.887  13.497  0.00  0.00    +0.000 C 
BRANCH  15  17
ATOM     16  F   UNL     1       5.785   2.338  11.739  0.00  0.00    +0.000 F 
ATOM     17  C   UNL     1       6.379   3.457  12.233  0.00  0.00    +0.000 C 
ENDBRANCH  15  17
ENDBRANCH  14  15
ENDBRANCH  13  14
ENDBRANCH   7  13
ENDBRANCH   6  10
ENDBRANCH   1   6
BRANCH   4  18
ATOM     18  C   UNL     1       1.077  10.500  20.836  0.00  0.00    +0.000 C 
BRANCH  18  19
ATOM     19  C   UNL     1      -0.158  11.125  21.384  0.00  0.00    +0.000 A 
ATOM     20  C   UNL     1      -0.730  11.147  22.644  0.00  0.00    +0.000 A 
ATOM     21  C   UNL     1      -1.964  11.830  22.524  0.00  0.00    +0.000 A 
ATOM     22  C   UNL     1      -3.008  12.176  23.403  0.00  0.00    +0.000 A 
ATOM     23  C   UNL     1      -4.123  12.856  22.894  0.00  0.00    +0.000 A 
ATOM     24  C   UNL     1      -4.208  13.185  21.539  0.00  0.00    +0.000 A 
ATOM     25  C   UNL     1      -3.179  12.855  20.649  0.00  0.00    +0.000 A 
ATOM     26  C   UNL     1      -2.079  12.182  21.185  0.00  0.00    +0.000 A 
ATOM     27  O   UNL     1      -0.981  11.764  20.492  0.00  0.00    +0.000 OA
ENDBRANCH  18  19
ENDBRANCH   4  18
TORSDOF 8
ENDMDL
MODEL 2
REMARK VINA RESULT:      -7.2      1.502      2.556
REMARK  Name = 
REMARK  8 active torsions:
REMARK  status: ('A' for Active; 'I' for Inactive)
REMARK    1  A    between atoms: C_2  and  C_3
REMARK    2  A    between atoms: C_3  and  C_4
REMARK    3  A    between atoms: C_4  and  O_5
REMARK    4  A    between atoms: O_5  and  C_6
REMARK    5  A    between atoms: C_9  and  C_10
REMARK    6  A    between atoms: C_10  and  N_11
REMARK    7  A    between atoms: N_14  and  C_15
REMARK    8  A    between atoms: C_15  and  C_16
REMARK                            x       y       z     vdW  Elec       q    Type
REMARK                         _______ _______ _______ _____ _____    ______ ____
ROOT
ATOM      1  N   UNL     1       3.048   5.060  19.250  0.00  0.00    +0.000 NA
ATOM      2  C   UNL     1       2.181   4.887  20.412  0.00  0.00    +0.000 C 
ATOM      3  C   UNL     1       1.536   6.242  20.632  0.00  0.00    +0.000 C 
ATOM      4  N   UNL     1       2.434   7.222  20.016  0.00  0.00    +0.000 NA
ATOM      5  C   UNL     1       3.294   6.491  19.089  0.00  0.00    +0.000 C 
ENDROOT
BRANCH   1   6
ATOM      6  C   UNL     1       4.296   4.293  19.380  0.00  0.00    +0.000 C 
BRANCH   6  10
ATOM      7  C   UNL     1       6.803   4.482  15.842  0.00  0.00    +0.000 A 
ATOM      8  C   UNL     1       7.282   4.874  17.094  0.00  0.00    +0.000 A 
ATOM      9  C   UNL     1       6.470   4.806  18.221  0.00  0.00    +0.000 A 
ATOM     10  C   UNL     1       5.152   4.346  18.129  0.00  0.00    +0.000 A 
ATOM     11  C   UNL     1       4.672   3.935  16.877  0.00  0.00    +0.000 A 
ATOM     12  C   UNL     1       5.494   4.006  15.740  0.00  0.00    +0.000 A 
BRANCH   7  13
ATOM     13  O   UNL     1       7.527   4.528  14.672  0.00  0.00    +0.000 OA
BRANCH  13  14
ATOM     14  C   UNL     1       6.753   4.861  13.516  0.00  0.00    +0.000 C 
BRANCH  14  15
ATOM     15  C   UNL     1       6.934   3.827  12.413  0.00  0.00    +0.000 C 
BRANCH  15  17
ATOM     16  F   UNL     1       5.771   1.929  11.671  0.00  0.00    +0.000 F 
ATOM     17  C   UNL     1       5.586   3.215  12.075  0.00  0.00    +0.000 C 
ENDBRANCH  15  17
ENDBRANCH  14  15
ENDBRANCH  13  14
ENDBRANCH   7  13
ENDBRANCH   6  10
ENDBRANCH   1   6
BRANCH   4  18
ATOM     18  C   UNL     1       1.642   8.272  19.355  0.00  0.00    +0.000 C 
BRANCH  18  19
ATOM     19  C   UNL     1       0.865   9.130  20.291  0.00  0.00    +0.000 A 
ATOM     20  C   UNL     1       0.568   9.035  21.639  0.00  0.00    +0.000 A 
ATOM     21  C   UNL     1      -0.297  10.112  21.947  0.00  0.00    +0.000 A 
ATOM     22  C   UNL     1      -0.956  10.569  23.104  0.00  0.00    +0.000 A 
ATOM     23  C   UNL     1      -1.780  11.700  23.011  0.00  0.00    +0.000 A 
ATOM     24  C   UNL     1      -1.953  12.365  21.794  0.00  0.00    +0.000 A 
ATOM     25  C   UNL     1      -1.303  11.930  20.633  0.00  0.00    +0.000 A 
ATOM     26  C   UNL     1      -0.486  10.805  20.757  0.00  0.00    +0.000 A 
ATOM     27  O   UNL     1       0.225  10.217  19.752  0.00  0.00    +0.000 OA
ENDBRANCH  18  19
ENDBRANCH   4  18
TORSDOF 8
ENDMDL
MODEL 3
REMARK VINA RESULT:      -7.1      3.530      4.719
REMARK  Name = 
REMARK  8 active torsions:
REMARK  status: ('A' for Active; 'I' for Inactive)
REMARK    1  A    between atoms: C_2  and  C_3
REMARK    2  A    between atoms: C_3  and  C_4
REMARK    3  A    between atoms: C_4  and  O_5
REMARK    4  A    between atoms: O_5  and  C_6
REMARK    5  A    between atoms: C_9  and  C_10
REMARK    6  A    between atoms: C_10  and  N_11
REMARK    7  A    between atoms: N_14  and  C_15
REMARK    8  A    between atoms: C_15  and  C_16
REMARK                            x       y       z     vdW  Elec       q    Type
REMARK                         _______ _______ _______ _____ _____    ______ ____
ROOT
ATOM      1  N   UNL     1       0.598   8.992  21.186  0.00  0.00    +0.000 NA
ATOM      2  C   UNL     1      -0.328   9.060  22.312  0.00  0.00    +0.000 C 
ATOM      3  C   UNL     1      -0.796  10.502  22.356  0.00  0.00    +0.000 C 
ATOM      4  N   UNL     1       0.249  11.285  21.690  0.00  0.00    +0.000 NA
ATOM      5  C   UNL     1       1.039  10.353  20.891  0.00  0.00    +0.000 C 
ENDROOT
BRANCH   1   6
ATOM      6  C   UNL     1       1.727   8.089  21.462  0.00  0.00    +0.000 C 
BRANCH   6  10
ATOM      7  C   UNL     1       2.058   4.905  18.531  0.00  0.00    +0.000 A 
ATOM      8  C   UNL     1       2.486   6.204  18.245  0.00  0.00    +0.000 A 
ATOM      9  C   UNL     1       2.378   7.215  19.194  0.00  0.00    +0.000 A 
ATOM     10  C   UNL     1       1.834   6.958  20.457  0.00  0.00    +0.000 A 
ATOM     11  C   UNL     1       1.419   5.652  20.755  0.00  0.00    +0.000 A 
ATOM     12  C   UNL     1       1.529   4.633  19.794  0.00  0.00    +0.000 A 
BRANCH   7  13
ATOM     13  O   UNL     1       2.112   3.847  17.653  0.00  0.00    +0.000 OA
BRANCH  13  14
ATOM     14  C   UNL     1       2.030   2.562  18.276  0.00  0.00    +0.000 C 
BRANCH  14  15
ATOM     15  C   UNL     1       3.349   1.810  18.171  0.00  0.00    +0.000 C 
BRANCH  15  17
ATOM     16  F   UNL     1       3.507   2.203  20.479  0.00  0.00    +0.000 F 
ATOM     17  C   UNL     1       4.242   2.201  19.334  0.00  0.00    +0.000 C 
ENDBRANCH  15  17
ENDBRANCH  14  15
ENDBRANCH  13  14
ENDBRANCH   7  13
ENDBRANCH   6  10
ENDBRANCH   1   6
BRANCH   4  18
ATOM     18  C   UNL     1      -0.369  12.349  20.883  0.00  0.00    +0.000 C 
BRANCH  18  19
ATOM     19  C   UNL     1      -1.163  11.854  19.725  0.00  0.00    +0.000 A 
ATOM     20  C   UNL     1      -0.819  11.236  18.536  0.00  0.00    +0.000 A 
ATOM     21  C   UNL     1      -2.011  11.090  17.787  0.00  0.00    +0.000 A 
ATOM     22  C   UNL     1      -2.344  10.566  16.524  0.00  0.00    +0.000 A 
ATOM     23  C   UNL     1      -3.679  10.622  16.099  0.00  0.00    +0.000 A 
ATOM     24  C   UNL     1      -4.667  11.190  16.907  0.00  0.00    +0.000 A 
ATOM     25  C   UNL     1      -4.359  11.712  18.168  0.00  0.00    +0.000 A 
ATOM     26  C   UNL     1      -3.023  11.639  18.567  0.00  0.00    +0.000 A 
ATOM     27  O   UNL     1      -2.513  12.094  19.747  0.00  0.00    +0.000 OA
ENDBRANCH  18  19
ENDBRANCH   4  18
TORSDOF 8
ENDMDL
MODEL 4
REMARK VINA RESULT:      -7.0      3.860     11.370
REMARK  Name = 
REMARK  8 active torsions:
REMARK  status: ('A' for Active; 'I' for Inactive)
REMARK    1  A    between atoms: C_2  and  C_3
REMARK    2  A    between atoms: C_3  and  C_4
REMARK    3  A    between atoms: C_4  and  O_5
REMARK    4  A    between atoms: O_5  and  C_6
REMARK    5  A    between atoms: C_9  and  C_10
REMARK    6  A    between atoms: C_10  and  N_11
REMARK    7  A    between atoms: N_14  and  C_15
REMARK    8  A    between atoms: C_15  and  C_16
REMARK                            x       y       z     vdW  Elec       q    Type
REMARK                         _______ _______ _______ _____ _____    ______ ____
ROOT
ATOM      1  N   UNL     1       2.880   7.034  18.940  0.00  0.00    +0.000 NA
ATOM      2  C   UNL     1       2.298   5.792  19.441  0.00  0.00    +0.000 C 
ATOM      3  C   UNL     1       3.215   4.693  18.941  0.00  0.00    +0.000 C 
ATOM      4  N   UNL     1       3.894   5.239  17.763  0.00  0.00    +0.000 NA
ATOM      5  C   UNL     1       3.766   6.692  17.830  0.00  0.00    +0.000 C 
ENDROOT
BRANCH   1   6
ATOM      6  C   UNL     1       1.845   8.002  18.546  0.00  0.00    +0.000 C 
BRANCH   6  10
ATOM      7  C   UNL     1       0.428  10.327  21.926  0.00  0.00    +0.000 A 
ATOM      8  C   UNL     1       0.920   9.030  22.091  0.00  0.00    +0.000 A 
ATOM      9  C   UNL     1       1.373   8.296  21.000  0.00  0.00    +0.000 A 
ATOM     10  C   UNL     1       1.347   8.837  19.711  0.00  0.00    +0.000 A 
ATOM     11  C   UNL     1       0.871  10.146  19.543  0.00  0.00    +0.000 A 
ATOM     12  C   UNL     1       0.412  10.884  20.647  0.00  0.00    +0.000 A 
BRANCH   7  13
ATOM     13  O   UNL     1      -0.054  11.121  22.942  0.00  0.00    +0.000 OA
BRANCH  13  14
ATOM     14  C   UNL     1      -1.478  11.099  23.078  0.00  0.00    +0.000 C 
BRANCH  14  15
ATOM     15  C   UNL     1      -2.061  12.505  23.028  0.00  0.00    +0.000 C 
BRANCH  15  17
ATOM     16  F   UNL     1      -3.816  12.063  24.522  0.00  0.00    +0.000 F 
ATOM     17  C   UNL     1      -3.563  12.432  23.237  0.00  0.00    +0.000 C 
ENDBRANCH  15  17
ENDBRANCH  14  15
ENDBRANCH  13  14
ENDBRANCH   7  13
ENDBRANCH   6  10
ENDBRANCH   1   6
BRANCH   4  18
ATOM     18  C   UNL     1       5.295   4.788  17.747  0.00  0.00    +0.000 C 
BRANCH  18  19
ATOM     19  C   UNL     1       5.893   4.700  16.387  0.00  0.00    +0.000 A 
ATOM     20  C   UNL     1       6.963   5.332  15.779  0.00  0.00    +0.000 A 
ATOM     21  C   UNL     1       6.984   4.902  14.431  0.00  0.00    +0.000 A 
ATOM     22  C   UNL     1       7.787   5.169  13.306  0.00  0.00    +0.000 A 
ATOM     23  C   UNL     1       7.472   4.551  12.088  0.00  0.00    +0.000 A 
ATOM     24  C   UNL     1       6.380   3.686  11.982  0.00  0.00    +0.000 A 
ATOM     25  C   UNL     1       5.572   3.403  13.089  0.00  0.00    +0.000 A 
ATOM     26  C   UNL     1       5.912   4.029  14.289  0.00  0.00    +0.000 A 
ATOM     27  O   UNL     1       5.253   3.897  15.477  0.00  0.00    +0.000 OA
ENDBRANCH  18  19
ENDBRANCH   4  18
TORSDOF 8
ENDMDL
MODEL 5
REMARK VINA RESULT:      -7.0      3.704     10.453
REMARK  Name = 
REMARK  8 active torsions:
REMARK  status: ('A' for Active; 'I' for Inactive)
REMARK    1  A    between atoms: C_2  and  C_3
REMARK    2  A    between atoms: C_3  and  C_4
REMARK    3  A    between atoms: C_4  and  O_5
REMARK    4  A    between atoms: O_5  and  C_6
REMARK    5  A    between atoms: C_9  and  C_10
REMARK    6  A    between atoms: C_10  and  N_11
REMARK    7  A    between atoms: N_14  and  C_15
REMARK    8  A    between atoms: C_15  and  C_16
REMARK                            x       y       z     vdW  Elec       q    Type
REMARK                         _______ _______ _______ _____ _____    ______ ____
ROOT
ATOM      1  N   UNL     1       3.936   5.814  18.254  0.00  0.00    +0.000 NA
ATOM      2  C   UNL     1       4.413   7.078  17.701  0.00  0.00    +0.000 C 
ATOM      3  C   UNL     1       5.893   6.868  17.447  0.00  0.00    +0.000 C 
ATOM      4  N   UNL     1       6.308   5.790  18.349  0.00  0.00    +0.000 NA
ATOM      5  C   UNL     1       5.097   5.084  18.759  0.00  0.00    +0.000 C 
ENDROOT
BRANCH   1   6
ATOM      6  C   UNL     1       2.917   6.023  19.294  0.00  0.00    +0.000 C 
BRANCH   6  10
ATOM      7  C   UNL     1       0.907   9.861  19.027  0.00  0.00    +0.000 A 
ATOM      8  C   UNL     1       1.110   9.231  20.257  0.00  0.00    +0.000 A 
ATOM      9  C   UNL     1       1.758   8.002  20.330  0.00  0.00    +0.000 A 
ATOM     10  C   UNL     1       2.221   7.366  19.174  0.00  0.00    +0.000 A 
ATOM     11  C   UNL     1       2.035   8.003  17.938  0.00  0.00    +0.000 A 
ATOM     12  C   UNL     1       1.379   9.243  17.868  0.00  0.00    +0.000 A 
BRANCH   7  13
ATOM     13  O   UNL     1       0.265  11.067  18.857  0.00  0.00    +0.000 OA
BRANCH  13  14
ATOM     14  C   UNL     1       0.849  12.150  19.585  0.00  0.00    +0.000 C 
BRANCH  14  15
ATOM     15  C   UNL     1       0.888  13.422  18.749  0.00  0.00    +0.000 C 
BRANCH  15  17
ATOM     16  F   UNL     1       2.918  12.365  18.233  0.00  0.00    +0.000 F 
ATOM     17  C   UNL     1       2.239  13.532  18.068  0.00  0.00    +0.000 C 
ENDBRANCH  15  17
ENDBRANCH  14  15
ENDBRANCH  13  14
ENDBRANCH   7  13
ENDBRANCH   6  10
ENDBRANCH   1   6
BRANCH   4  18
ATOM     18  C   UNL     1       7.275   4.917  17.664  0.00  0.00    +0.000 C 
BRANCH  18  19
ATOM     19  C   UNL     1       6.946   4.642  16.238  0.00  0.00    +0.000 A 
ATOM     20  C   UNL     1       6.043   3.795  15.620  0.00  0.00    +0.000 A 
ATOM     21  C   UNL     1       6.261   3.907  14.226  0.00  0.00    +0.000 A 
ATOM     22  C   UNL     1       5.702   3.322  13.074  0.00  0.00    +0.000 A 
ATOM     23  C   UNL     1       6.216   3.677  11.819  0.00  0.00    +0.000 A 
ATOM     24  C   UNL     1       7.267   4.590  11.704  0.00  0.00    +0.000 A 
ATOM     25  C   UNL     1       7.834   5.186  12.836  0.00  0.00    +0.000 A 
ATOM     26  C   UNL     1       7.299   4.818  14.072  0.00  0.00    +0.000 A 
ATOM     27  O   UNL     1       7.711   5.273  15.290  0.00  0.00    +0.000 OA
ENDBRANCH  18  19
ENDBRANCH   4  18
TORSDOF 8
ENDMDL
MODEL 6
REMARK VINA RESULT:      -7.0      2.809      4.411
REMARK  Name = 
REMARK  8 active torsions:
REMARK  status: ('A' for Active; 'I' for Inactive)
REMARK    1  A    between atoms: C_2  and  C_3
REMARK    2  A    between atoms: C_3  and  C_4
REMARK    3  A    between atoms: C_4  and  O_5
REMARK    4  A    between atoms: O_5  and  C_6
REMARK    5  A    between atoms: C_9  and  C_10
REMARK    6  A    between atoms: C_10  and  N_11
REMARK    7  A    between atoms: N_14  and  C_15
REMARK    8  A    between atoms: C_15  and  C_16
REMARK                            x       y       z     vdW  Elec       q    Type
REMARK                         _______ _______ _______ _____ _____    ______ ____
ROOT
ATOM      1  N   UNL     1       0.406   9.196  21.428  0.00  0.00    +0.000 NA
ATOM      2  C   UNL     1      -0.509   9.292  22.562  0.00  0.00    +0.000 C 
ATOM      3  C   UNL     1      -0.965  10.738  22.584  0.00  0.00    +0.000 C 
ATOM      4  N   UNL     1       0.078  11.501  21.893  0.00  0.00    +0.000 NA
ATOM      5  C   UNL     1       0.854  10.548  21.104  0.00  0.00    +0.000 C 
ENDROOT
BRANCH   1   6
ATOM      6  C   UNL     1       1.531   8.290  21.709  0.00  0.00    +0.000 C 
BRANCH   6  10
ATOM      7  C   UNL     1       2.246   5.504  18.459  0.00  0.00    +0.000 A 
ATOM      8  C   UNL     1       2.392   6.882  18.281  0.00  0.00    +0.000 A 
ATOM      9  C   UNL     1       2.162   7.764  19.331  0.00  0.00    +0.000 A 
ATOM     10  C   UNL     1       1.778   7.295  20.591  0.00  0.00    +0.000 A 
ATOM     11  C   UNL     1       1.647   5.912  20.779  0.00  0.00    +0.000 A 
ATOM     12  C   UNL     1       1.878   5.023  19.716  0.00  0.00    +0.000 A 
BRANCH   7  13
ATOM     13  O   UNL     1       2.436   4.559  17.477  0.00  0.00    +0.000 OA
BRANCH  13  14
ATOM     14  C   UNL     1       3.450   3.595  17.778  0.00  0.00    +0.000 C 
BRANCH  14  15
ATOM     15  C   UNL     1       4.726   3.870  16.995  0.00  0.00    +0.000 C 
BRANCH  15  17
ATOM     16  F   UNL     1       5.290   4.532  19.175  0.00  0.00    +0.000 F 
ATOM     17  C   UNL     1       5.708   4.613  17.883  0.00  0.00    +0.000 C 
ENDBRANCH  15  17
ENDBRANCH  14  15
ENDBRANCH  13  14
ENDBRANCH   7  13
ENDBRANCH   6  10
ENDBRANCH   1   6
BRANCH   4  18
ATOM     18  C   UNL     1      -0.541  12.554  21.073  0.00  0.00    +0.000 C 
BRANCH  18  19
ATOM     19  C   UNL     1      -1.310  12.046  19.905  0.00  0.00    +0.000 A 
ATOM     20  C   UNL     1      -0.938  11.475  18.701  0.00  0.00    +0.000 A 
ATOM     21  C   UNL     1      -2.124  11.284  17.951  0.00  0.00    +0.000 A 
ATOM     22  C   UNL     1      -2.432  10.774  16.676  0.00  0.00    +0.000 A 
ATOM     23  C   UNL     1      -3.770  10.769  16.255  0.00  0.00    +0.000 A 
ATOM     24  C   UNL     1      -4.784  11.264  17.079  0.00  0.00    +0.000 A 
ATOM     25  C   UNL     1      -4.499  11.772  18.352  0.00  0.00    +0.000 A 
ATOM     26  C   UNL     1      -3.160  11.759  18.746  0.00  0.00    +0.000 A 
ATOM     27  O   UNL     1      -2.671  12.213  19.936  0.00  0.00    +0.000 OA
ENDBRANCH  18  19
ENDBRANCH   4  18
TORSDOF 8
ENDMDL
MODEL 7
REMARK VINA RESULT:      -6.9      1.254      1.957
REMARK  Name = 
REMARK  8 active torsions:
REMARK  status: ('A' for Active; 'I' for Inactive)
REMARK    1  A    between atoms: C_2  and  C_3
REMARK    2  A    between atoms: C_3  and  C_4
REMARK    3  A    between atoms: C_4  and  O_5
REMARK    4  A    between atoms: O_5  and  C_6
REMARK    5  A    between atoms: C_9  and  C_10
REMARK    6  A    between atoms: C_10  and  N_11
REMARK    7  A    between atoms: N_14  and  C_15
REMARK    8  A    between atoms: C_15  and  C_16
REMARK                            x       y       z     vdW  Elec       q    Type
REMARK                         _______ _______ _______ _____ _____    ______ ____
ROOT
ATOM      1  N   UNL     1       1.989   7.664  20.423  0.00  0.00    +0.000 NA
ATOM      2  C   UNL     1       1.799   8.227  19.090  0.00  0.00    +0.000 C 
ATOM      3  C   UNL     1       1.100   9.554  19.314  0.00  0.00    +0.000 C 
ATOM      4  N   UNL     1       0.425   9.440  20.610  0.00  0.00    +0.000 NA
ATOM      5  C   UNL     1       1.054   8.333  21.325  0.00  0.00    +0.000 C 
ENDROOT
BRANCH   1   6
ATOM      6  C   UNL     1       1.817   6.203  20.429  0.00  0.00    +0.000 C 
BRANCH   6  10
ATOM      7  C   UNL     1       4.253   4.254  17.412  0.00  0.00    +0.000 A 
ATOM      8  C   UNL     1       4.829   5.023  18.425  0.00  0.00    +0.000 A 
ATOM      9  C   UNL     1       4.038   5.641  19.388  0.00  0.00    +0.000 A 
ATOM     10  C   UNL     1       2.646   5.509  19.365  0.00  0.00    +0.000 A 
ATOM     11  C   UNL     1       2.064   4.723  18.359  0.00  0.00    +0.000 A 
ATOM     12  C   UNL     1       2.866   4.102  17.387  0.00  0.00    +0.000 A 
BRANCH   7  13
ATOM     13  O   UNL     1       4.953   3.620  16.410  0.00  0.00    +0.000 OA
BRANCH  13  14
ATOM     14  C   UNL     1       6.255   4.163  16.170  0.00  0.00    +0.000 C 
BRANCH  14  15
ATOM     15  C   UNL     1       6.312   4.894  14.836  0.00  0.00    +0.000 C 
BRANCH  15  17
ATOM     16  F   UNL     1       4.887   3.922  13.245  0.00  0.00    +0.000 F 
ATOM     17  C   UNL     1       6.166   3.889  13.708  0.00  0.00    +0.000 C 
ENDBRANCH  15  17
ENDBRANCH  14  15
ENDBRANCH  13  14
ENDBRANCH   7  13
ENDBRANCH   6  10
ENDBRANCH   1   6
BRANCH   4  18
ATOM     18  C   UNL     1       0.525  10.718  21.333  0.00  0.00    +0.000 C 
BRANCH  18  19
ATOM     19  C   UNL     1      -0.779  11.404  21.545  0.00  0.00    +0.000 A 
ATOM     20  C   UNL     1      -1.547  12.244  20.758  0.00  0.00    +0.000 A 
ATOM     21  C   UNL     1      -2.648  12.655  21.546  0.00  0.00    +0.000 A 
ATOM     22  C   UNL     1      -3.762  13.494  21.353  0.00  0.00    +0.000 A 
ATOM     23  C   UNL     1      -4.659  13.683  22.414  0.00  0.00    +0.000 A 
ATOM     24  C   UNL     1      -4.456  13.056  23.646  0.00  0.00    +0.000 A 
ATOM     25  C   UNL     1      -3.358  12.214  23.858  0.00  0.00    +0.000 A 
ATOM     26  C   UNL     1      -2.485  12.041  22.783  0.00  0.00    +0.000 A 
ATOM     27  O   UNL     1      -1.357  11.274  22.782  0.00  0.00    +0.000 OA
ENDBRANCH  18  19
ENDBRANCH   4  18
TORSDOF 8
ENDMDL
MODEL 8
REMARK VINA RESULT:      -6.9      3.255      4.514
REMARK  Name = 
REMARK  8 active torsions:
REMARK  status: ('A' for Active; 'I' for Inactive)
REMARK    1  A    between atoms: C_2  and  C_3
REMARK    2  A    between atoms: C_3  and  C_4
REMARK    3  A    between atoms: C_4  and  O_5
REMARK    4  A    between atoms: O_5  and  C_6
REMARK    5  A    between atoms: C_9  and  C_10
REMARK    6  A    between atoms: C_10  and  N_11
REMARK    7  A    between atoms: N_14  and  C_15
REMARK    8  A    between atoms: C_15  and  C_16
REMARK                            x       y       z     vdW  Elec       q    Type
REMARK                         _______ _______ _______ _____ _____    ______ ____
ROOT
ATOM      1  N   UNL     1       1.230  10.246  18.855  0.00  0.00    +0.000 NA
ATOM      2  C   UNL     1       1.779  11.598  18.815  0.00  0.00    +0.000 C 
ATOM      3  C   UNL     1       0.635  12.505  19.225  0.00  0.00    +0.000 C 
ATOM      4  N   UNL     1      -0.594  11.764  18.924  0.00  0.00    +0.000 NA
ATOM      5  C   UNL     1      -0.226  10.357  18.800  0.00  0.00    +0.000 C 
ENDROOT
BRANCH   1   6
ATOM      6  C   UNL     1       1.765   9.406  17.772  0.00  0.00    +0.000 C 
BRANCH   6  10
ATOM      7  C   UNL     1       3.582   5.715  19.153  0.00  0.00    +0.000 A 
ATOM      8  C   UNL     1       3.975   6.315  17.954  0.00  0.00    +0.000 A 
ATOM      9  C   UNL     1       3.387   7.499  17.524  0.00  0.00    +0.000 A 
ATOM     10  C   UNL     1       2.386   8.118  18.279  0.00  0.00    +0.000 A 
ATOM     11  C   UNL     1       2.000   7.529  19.492  0.00  0.00    +0.000 A 
ATOM     12  C   UNL     1       2.596   6.332  19.923  0.00  0.00    +0.000 A 
BRANCH   7  13
ATOM     13  O   UNL     1       4.096   4.538  19.650  0.00  0.00    +0.000 OA
BRANCH  13  14
ATOM     14  C   UNL     1       3.105   3.574  20.016  0.00  0.00    +0.000 C 
BRANCH  14  15
ATOM     15  C   UNL     1       2.686   2.729  18.821  0.00  0.00    +0.000 C 
BRANCH  15  17
ATOM     16  F   UNL     1       1.092   4.064  17.732  0.00  0.00    +0.000 F 
ATOM     17  C   UNL     1       1.215   2.969  18.530  0.00  0.00    +0.000 C 
ENDBRANCH  15  17
ENDBRANCH  14  15
ENDBRANCH  13  14
ENDBRANCH   7  13
ENDBRANCH   6  10
ENDBRANCH   1   6
BRANCH   4  18
ATOM     18  C   UNL     1      -1.587  12.005  19.983  0.00  0.00    +0.000 C 
BRANCH  18  19
ATOM     19  C   UNL     1      -2.997  12.018  19.506  0.00  0.00    +0.000 A 
ATOM     20  C   UNL     1      -3.599  11.640  18.318  0.00  0.00    +0.000 A 
ATOM     21  C   UNL     1      -4.969  11.981  18.425  0.00  0.00    +0.000 A 
ATOM     22  C   UNL     1      -6.095  11.877  17.587  0.00  0.00    +0.000 A 
ATOM     23  C   UNL     1      -7.327  12.364  18.046  0.00  0.00    +0.000 A 
ATOM     24  C   UNL     1      -7.443  12.947  19.311  0.00  0.00    +0.000 A 
ATOM     25  C   UNL     1      -6.336  13.055  20.161  0.00  0.00    +0.000 A 
ATOM     26  C   UNL     1      -5.125  12.558  19.679  0.00  0.00    +0.000 A 
ATOM     27  O   UNL     1      -3.932  12.573  20.341  0.00  0.00    +0.000 OA
ENDBRANCH  18  19
ENDBRANCH   4  18
TORSDOF 8
ENDMDL
MODEL 9
REMARK VINA RESULT:      -6.9      4.515      6.599
REMARK  Name = 
REMARK  8 active torsions:
REMARK  status: ('A' for Active; 'I' for Inactive)
REMARK    1  A    between atoms: C_2  and  C_3
REMARK    2  A    between atoms: C_3  and  C_4
REMARK    3  A    between atoms: C_4  and  O_5
REMARK    4  A    between atoms: O_5  and  C_6
REMARK    5  A    between atoms: C_9  and  C_10
REMARK    6  A    between atoms: C_10  and  N_11
REMARK    7  A    between atoms: N_14  and  C_15
REMARK    8  A    between atoms: C_15  and  C_16
REMARK                            x       y       z     vdW  Elec       q    Type
REMARK                         _______ _______ _______ _____ _____    ______ ____
ROOT
ATOM      1  N   UNL     1       4.867   4.519  18.107  0.00  0.00    +0.000 NA
ATOM      2  C   UNL     1       4.270   3.204  17.895  0.00  0.00    +0.000 C 
ATOM      3  C   UNL     1       3.169   3.095  18.933  0.00  0.00    +0.000 C 
ATOM      4  N   UNL     1       3.535   4.021  20.008  0.00  0.00    +0.000 NA
ATOM      5  C   UNL     1       4.509   4.958  19.454  0.00  0.00    +0.000 C 
ENDROOT
BRANCH   1   6
ATOM      6  C   UNL     1       6.323   4.498  17.899  0.00  0.00    +0.000 C 
BRANCH   6  10
ATOM      7  C   UNL     1       8.136   8.436  18.098  0.00  0.00    +0.000 A 
ATOM      8  C   UNL     1       8.488   7.428  18.998  0.00  0.00    +0.000 A 
ATOM      9  C   UNL     1       7.902   6.169  18.922  0.00  0.00    +0.000 A 
ATOM     10  C   UNL     1       6.944   5.881  17.945  0.00  0.00    +0.000 A 
ATOM     11  C   UNL     1       6.600   6.886  17.028  0.00  0.00    +0.000 A 
ATOM     12  C   UNL     1       7.193   8.157  17.108  0.00  0.00    +0.000 A 
BRANCH   7  13
ATOM     13  O   UNL     1       8.650   9.713  18.107  0.00  0.00    +0.000 OA
BRANCH  13  14
ATOM     14  C   UNL     1       9.173  10.127  19.372  0.00  0.00    +0.000 C 
BRANCH  14  15
ATOM     15  C   UNL     1      10.335  11.095  19.202  0.00  0.00    +0.000 C 
BRANCH  15  17
ATOM     16  F   UNL     1       9.456  12.541  17.575  0.00  0.00    +0.000 F 
ATOM     17  C   UNL     1      10.387  11.566  17.759  0.00  0.00    +0.000 C 
ENDBRANCH  15  17
ENDBRANCH  14  15
ENDBRANCH  13  14
ENDBRANCH   7  13
ENDBRANCH   6  10
ENDBRANCH   1   6
BRANCH   4  18
ATOM     18  C   UNL     1       2.327   4.688  20.519  0.00  0.00    +0.000 C 
BRANCH  18  19
ATOM     19  C   UNL     1       2.071   6.028  19.925  0.00  0.00    +0.000 A 
ATOM     20  C   UNL     1       2.285   6.563  18.667  0.00  0.00    +0.000 A 
ATOM     21  C   UNL     1       1.924   7.931  18.734  0.00  0.00    +0.000 A 
ATOM     22  C   UNL     1       1.915   9.010  17.831  0.00  0.00    +0.000 A 
ATOM     23  C   UNL     1       1.498  10.269  18.286  0.00  0.00    +0.000 A 
ATOM     24  C   UNL     1       1.101  10.458  19.612  0.00  0.00    +0.000 A 
ATOM     25  C   UNL     1       1.098   9.397  20.525  0.00  0.00    +0.000 A 
ATOM     26  C   UNL     1       1.513   8.155  20.043  0.00  0.00    +0.000 A 
ATOM     27  O   UNL     1       1.592   7.001  20.765  0.00  0.00    +0.000 OA
ENDBRANCH  18  19
ENDBRANCH   4  18
TORSDOF 8
ENDMDL
