MODEL 1
REMARK VINA RESULT:      -8.5      0.000      0.000
REMARK  Name = 
REMARK  9 active torsions:
REMARK  status: ('A' for Active; 'I' for Inactive)
REMARK    1  A    between atoms: C_1  and  O_2
REMARK    2  A    between atoms: O_2  and  C_3
REMARK    3  A    between atoms: C_8  and  C_9
REMARK    4  A    between atoms: C_9  and  N_10
REMARK    5  A    between atoms: C_11  and  C_13
REMARK    6  A    between atoms: C_16  and  C_17
REMARK    7  A    between atoms: C_17  and  N_18
REMARK    8  A    between atoms: C_20  and  N_21
REMARK    9  A    between atoms: C_26  and  O_27
REMARK                            x       y       z     vdW  Elec       q    Type
REMARK                         _______ _______ _______ _____ _____    ______ ____
ROOT
ATOM      1  C   UNL     1       0.610   9.691  19.755  0.00  0.00    +0.000 A 
ATOM      2  C   UNL     1       0.929   8.739  20.730  0.00  0.00    +0.000 A 
ATOM      3  C   UNL     1       1.778   7.677  20.420  0.00  0.00    +0.000 A 
ATOM      4  C   UNL     1       2.314   7.539  19.131  0.00  0.00    +0.000 A 
ATOM      5  C   UNL     1       1.984   8.484  18.151  0.00  0.00    +0.000 A 
ATOM      6  C   UNL     1       1.130   9.550  18.459  0.00  0.00    +0.000 A 
ENDROOT
BRANCH   1   8
ATOM      7  N   UNL     1      -0.905  11.442  18.971  0.00  0.00    +0.000 N 
ATOM      8  C   UNL     1      -0.314  10.823  20.058  0.00  0.00    +0.000 C 
ATOM      9  O   UNL     1      -0.522  11.147  21.221  0.00  0.00    +0.000 OA
ATOM     10  H   UNL     1      -0.932  10.961  18.083  0.00  0.00    +0.000 HD
BRANCH   7  11
ATOM     11  C   UNL     1      -1.870  12.504  19.141  0.00  0.00    +0.000 C 
BRANCH  11  17
ATOM     12  C   UNL     1      -3.629  11.417  17.593  0.00  0.00    +0.000 A 
ATOM     13  C   UNL     1      -4.958  11.006  17.391  0.00  0.00    +0.000 A 
ATOM     14  C   UNL     1      -5.957  11.327  18.306  0.00  0.00    +0.000 A 
ATOM     15  C   UNL     1      -5.634  12.038  19.454  0.00  0.00    +0.000 A 
ATOM     16  C   UNL     1      -4.311  12.410  19.688  0.00  0.00    +0.000 A 
ATOM     17  C   UNL     1      -3.283  12.104  18.772  0.00  0.00    +0.000 A 
BRANCH  12  19
ATOM     18  C   UNL     1      -3.097  10.902  15.357  0.00  0.00    +0.000 C 
ATOM     19  O   UNL     1      -2.632  11.142  16.688  0.00  0.00    +0.000 OA
ENDBRANCH  12  19
ENDBRANCH  11  17
ENDBRANCH   7  11
ENDBRANCH   1   8
BRANCH   4  20
ATOM     20  C   UNL     1       3.273   6.406  18.852  0.00  0.00    +0.000 C 
BRANCH  20  21
ATOM     21  N   UNL     1       4.028   6.603  17.628  0.00  0.00    +0.000 NA
ATOM     22  C   UNL     1       4.538   5.559  17.089  0.00  0.00    +0.000 C 
ATOM     23  C   UNL     1       4.691   4.080  17.212  0.00  0.00    +0.000 C 
ATOM     24  C   UNL     1       5.554   4.059  16.136  0.00  0.00    +0.000 C 
ATOM     25  C   UNL     1       5.410   5.509  15.911  0.00  0.00    +0.000 C 
ATOM     26  O   UNL     1       5.775   6.355  15.126  0.00  0.00    +0.000 OA
BRANCH  23  27
ATOM     27  N   UNL     1       4.167   3.195  18.049  0.00  0.00    +0.000 N 
ATOM     28  C   UNL     1       3.004   2.356  17.761  0.00  0.00    +0.000 C 
ATOM     29  C   UNL     1       2.272   2.278  19.094  0.00  0.00    +0.000 C 
ATOM     30  C   UNL     1       3.402   2.237  20.102  0.00  0.00    +0.000 C 
ATOM     31  C   UNL     1       4.510   3.076  19.470  0.00  0.00    +0.000 C 
ENDBRANCH  23  27
BRANCH  24  32
ATOM     32  O   UNL     1       6.183   3.137  15.506  0.00  0.00    +0.000 OA
ATOM     33  H   UNL     1       6.244   2.349  16.068  0.00  0.00    +0.000 HD
ENDBRANCH  24  32
ENDBRANCH  20  21
ENDBRANCH   4  20
TORSDOF 8
ENDMDL
MODEL 2
REMARK VINA RESULT:      -8.5      1.086      1.109
REMARK  Name = 
REMARK  9 active torsions:
REMARK  status: ('A' for Active; 'I' for Inactive)
REMARK    1  A    between atoms: C_1  and  O_2
REMARK    2  A    between atoms: O_2  and  C_3
REMARK    3  A    between atoms: C_8  and  C_9
REMARK    4  A    between atoms: C_9  and  N_10
REMARK    5  A    between atoms: C_11  and  C_13
REMARK    6  A    between atoms: C_16  and  C_17
REMARK    7  A    between atoms: C_17  and  N_18
REMARK    8  A    between atoms: C_20  and  N_21
REMARK    9  A    between atoms: C_26  and  O_27
REMARK                            x       y       z     vdW  Elec       q    Type
REMARK                         _______ _______ _______ _____ _____    ______ ____
ROOT
ATOM      1  C   UNL     1       0.744   9.951  19.465  0.00  0.00    +0.000 A 
ATOM      2  C   UNL     1       1.059   8.928  20.365  0.00  0.00    +0.000 A 
ATOM      3  C   UNL     1       1.842   7.849  19.954  0.00  0.00    +0.000 A 
ATOM      4  C   UNL     1       2.313   7.766  18.636  0.00  0.00    +0.000 A 
ATOM      5  C   UNL     1       1.987   8.784  17.730  0.00  0.00    +0.000 A 
ATOM      6  C   UNL     1       1.200   9.867  18.140  0.00  0.00    +0.000 A 
ENDROOT
BRANCH   1   8
ATOM      7  N   UNL     1      -1.322  11.234  19.226  0.00  0.00    +0.000 N 
ATOM      8  C   UNL     1      -0.110  11.103  19.877  0.00  0.00    +0.000 C 
ATOM      9  O   UNL     1       0.273  11.862  20.761  0.00  0.00    +0.000 OA
ATOM     10  H   UNL     1      -1.708  10.440  18.735  0.00  0.00    +0.000 HD
BRANCH   7  11
ATOM     11  C   UNL     1      -2.265  12.269  19.586  0.00  0.00    +0.000 C 
BRANCH  11  17
ATOM     12  C   UNL     1      -3.924  11.569  17.734  0.00  0.00    +0.000 A 
ATOM     13  C   UNL     1      -5.250  11.300  17.352  0.00  0.00    +0.000 A 
ATOM     14  C   UNL     1      -6.313  11.556  18.212  0.00  0.00    +0.000 A 
ATOM     15  C   UNL     1      -6.063  12.057  19.482  0.00  0.00    +0.000 A 
ATOM     16  C   UNL     1      -4.749  12.285  19.890  0.00  0.00    +0.000 A 
ATOM     17  C   UNL     1      -3.656  12.041  19.033  0.00  0.00    +0.000 A 
BRANCH  12  19
ATOM     18  C   UNL     1      -2.898  10.104  16.203  0.00  0.00    +0.000 C 
ATOM     19  O   UNL     1      -2.860  11.357  16.890  0.00  0.00    +0.000 OA
ENDBRANCH  12  19
ENDBRANCH  11  17
ENDBRANCH   7  11
ENDBRANCH   1   8
BRANCH   4  20
ATOM     20  C   UNL     1       3.203   6.610  18.245  0.00  0.00    +0.000 C 
BRANCH  20  21
ATOM     21  N   UNL     1       4.500   7.044  17.757  0.00  0.00    +0.000 NA
ATOM     22  C   UNL     1       5.396   6.141  17.616  0.00  0.00    +0.000 C 
ATOM     23  C   UNL     1       5.686   4.684  17.759  0.00  0.00    +0.000 C 
ATOM     24  C   UNL     1       7.014   4.896  17.447  0.00  0.00    +0.000 C 
ATOM     25  C   UNL     1       6.797   6.339  17.228  0.00  0.00    +0.000 C 
ATOM     26  O   UNL     1       7.416   7.312  16.864  0.00  0.00    +0.000 OA
BRANCH  23  27
ATOM     27  N   UNL     1       4.918   3.647  18.065  0.00  0.00    +0.000 N 
ATOM     28  C   UNL     1       4.012   2.973  17.135  0.00  0.00    +0.000 C 
ATOM     29  C   UNL     1       2.814   2.602  17.998  0.00  0.00    +0.000 C 
ATOM     30  C   UNL     1       3.449   2.246  19.327  0.00  0.00    +0.000 C 
ATOM     31  C   UNL     1       4.672   3.154  19.424  0.00  0.00    +0.000 C 
ENDBRANCH  23  27
BRANCH  24  32
ATOM     32  O   UNL     1       8.037   4.138  17.312  0.00  0.00    +0.000 OA
ATOM     33  H   UNL     1       8.346   4.177  16.394  0.00  0.00    +0.000 HD
ENDBRANCH  24  32
ENDBRANCH  20  21
ENDBRANCH   4  20
TORSDOF 8
ENDMDL
MODEL 3
REMARK VINA RESULT:      -8.5      1.941      3.123
REMARK  Name = 
REMARK  9 active torsions:
REMARK  status: ('A' for Active; 'I' for Inactive)
REMARK    1  A    between atoms: C_1  and  O_2
REMARK    2  A    between atoms: O_2  and  C_3
REMARK    3  A    between atoms: C_8  and  C_9
REMARK    4  A    between atoms: C_9  and  N_10
REMARK    5  A    between atoms: C_11  and  C_13
REMARK    6  A    between atoms: C_16  and  C_17
REMARK    7  A    between atoms: C_17  and  N_18
REMARK    8  A    between atoms: C_20  and  N_21
REMARK    9  A    between atoms: C_26  and  O_27
REMARK                            x       y       z     vdW  Elec       q    Type
REMARK                         _______ _______ _______ _____ _____    ______ ____
ROOT
ATOM      1  C   UNL     1       0.922   9.940  19.529  0.00  0.00    +0.000 A 
ATOM      2  C   UNL     1       1.334   9.730  18.208  0.00  0.00    +0.000 A 
ATOM      3  C   UNL     1       1.981   8.546  17.855  0.00  0.00    +0.000 A 
ATOM      4  C   UNL     1       2.238   7.556  18.814  0.00  0.00    +0.000 A 
ATOM      5  C   UNL     1       1.839   7.771  20.139  0.00  0.00    +0.000 A 
ATOM      6  C   UNL     1       1.191   8.960  20.497  0.00  0.00    +0.000 A 
ENDROOT
BRANCH   1   8
ATOM      7  N   UNL     1      -0.948  11.496  19.304  0.00  0.00    +0.000 N 
ATOM      8  C   UNL     1       0.249  11.208  19.933  0.00  0.00    +0.000 C 
ATOM      9  O   UNL     1       0.755  11.922  20.792  0.00  0.00    +0.000 OA
ATOM     10  H   UNL     1      -1.453  10.755  18.840  0.00  0.00    +0.000 HD
BRANCH   7  11
ATOM     11  C   UNL     1      -1.727  12.661  19.662  0.00  0.00    +0.000 C 
BRANCH  11  17
ATOM     12  C   UNL     1      -3.918  11.795  18.601  0.00  0.00    +0.000 A 
ATOM     13  C   UNL     1      -5.291  11.526  18.736  0.00  0.00    +0.000 A 
ATOM     14  C   UNL     1      -5.993  11.925  19.870  0.00  0.00    +0.000 A 
ATOM     15  C   UNL     1      -5.325  12.572  20.900  0.00  0.00    +0.000 A 
ATOM     16  C   UNL     1      -3.953  12.802  20.798  0.00  0.00    +0.000 A 
ATOM     17  C   UNL     1      -3.221  12.415  19.656  0.00  0.00    +0.000 A 
BRANCH  12  19
ATOM     18  C   UNL     1      -3.339  10.065  17.110  0.00  0.00    +0.000 C 
ATOM     19  O   UNL     1      -3.209  11.442  17.477  0.00  0.00    +0.000 OA
ENDBRANCH  12  19
ENDBRANCH  11  17
ENDBRANCH   7  11
ENDBRANCH   1   8
BRANCH   4  20
ATOM     20  C   UNL     1       2.891   6.265  18.379  0.00  0.00    +0.000 C 
BRANCH  20  21
ATOM     21  N   UNL     1       2.457   5.127  19.170  0.00  0.00    +0.000 NA
ATOM     22  C   UNL     1       3.321   4.205  19.377  0.00  0.00    +0.000 C 
ATOM     23  C   UNL     1       4.726   3.775  19.115  0.00  0.00    +0.000 C 
ATOM     24  C   UNL     1       4.485   2.555  19.714  0.00  0.00    +0.000 C 
ATOM     25  C   UNL     1       3.102   2.927  20.063  0.00  0.00    +0.000 C 
ATOM     26  O   UNL     1       2.155   2.471  20.663  0.00  0.00    +0.000 OA
BRANCH  23  27
ATOM     27  N   UNL     1       5.751   4.382  18.534  0.00  0.00    +0.000 N 
ATOM     28  C   UNL     1       6.599   5.389  19.171  0.00  0.00    +0.000 C 
ATOM     29  C   UNL     1       6.912   6.366  18.047  0.00  0.00    +0.000 C 
ATOM     30  C   UNL     1       7.042   5.463  16.837  0.00  0.00    +0.000 C 
ATOM     31  C   UNL     1       6.061   4.324  17.101  0.00  0.00    +0.000 C 
ENDBRANCH  23  27
BRANCH  24  32
ATOM     32  O   UNL     1       5.198   1.518  19.958  0.00  0.00    +0.000 OA
ATOM     33  H   UNL     1       5.007   1.202  20.855  0.00  0.00    +0.000 HD
ENDBRANCH  24  32
ENDBRANCH  20  21
ENDBRANCH   4  20
TORSDOF 8
ENDMDL
MODEL 4
REMARK VINA RESULT:      -8.5      1.644      2.899
REMARK  Name = 
REMARK  9 active torsions:
REMARK  status: ('A' for Active; 'I' for Inactive)
REMARK    1  A    between atoms: C_1  and  O_2
REMARK    2  A    between atoms: O_2  and  C_3
REMARK    3  A    between atoms: C_8  and  C_9
REMARK    4  A    between atoms: C_9  and  N_10
REMARK    5  A    between atoms: C_11  and  C_13
REMARK    6  A    between atoms: C_16  and  C_17
REMARK    7  A    between atoms: C_17  and  N_18
REMARK    8  A    between atoms: C_20  and  N_21
REMARK    9  A    between atoms: C_26  and  O_27
REMARK                            x       y       z     vdW  Elec       q    Type
REMARK                         _______ _______ _______ _____ _____    ______ ____
ROOT
ATOM      1  C   UNL     1       0.696   9.772  19.656  0.00  0.00    +0.000 A 
ATOM      2  C   UNL     1       1.215   9.575  18.371  0.00  0.00    +0.000 A 
ATOM      3  C   UNL     1       2.004   8.458  18.098  0.00  0.00    +0.000 A 
ATOM      4  C   UNL     1       2.299   7.525  19.102  0.00  0.00    +0.000 A 
ATOM      5  C   UNL     1       1.791   7.728  20.392  0.00  0.00    +0.000 A 
ATOM      6  C   UNL     1       1.001   8.850  20.669  0.00  0.00    +0.000 A 
ENDROOT
BRANCH   1   8
ATOM      7  N   UNL     1      -1.306  11.116  19.262  0.00  0.00    +0.000 N 
ATOM      8  C   UNL     1      -0.131  10.971  19.976  0.00  0.00    +0.000 C 
ATOM      9  O   UNL     1       0.238  11.755  20.843  0.00  0.00    +0.000 OA
ATOM     10  H   UNL     1      -1.698  10.315  18.788  0.00  0.00    +0.000 HD
BRANCH   7  11
ATOM     11  C   UNL     1      -2.225  12.199  19.531  0.00  0.00    +0.000 C 
BRANCH  11  17
ATOM     12  C   UNL     1      -3.773  11.580  17.558  0.00  0.00    +0.000 A 
ATOM     13  C   UNL     1      -5.076  11.353  17.082  0.00  0.00    +0.000 A 
ATOM     14  C   UNL     1      -6.188  11.621  17.876  0.00  0.00    +0.000 A 
ATOM     15  C   UNL     1      -6.012  12.091  19.169  0.00  0.00    +0.000 A 
ATOM     16  C   UNL     1      -4.723  12.275  19.669  0.00  0.00    +0.000 A 
ATOM     17  C   UNL     1      -3.581  12.019  18.882  0.00  0.00    +0.000 A 
BRANCH  12  19
ATOM     18  C   UNL     1      -2.926  10.658  15.563  0.00  0.00    +0.000 C 
ATOM     19  O   UNL     1      -2.661  11.356  16.783  0.00  0.00    +0.000 OA
ENDBRANCH  12  19
ENDBRANCH  11  17
ENDBRANCH   7  11
ENDBRANCH   1   8
BRANCH   4  20
ATOM     20  C   UNL     1       3.110   6.300  18.752  0.00  0.00    +0.000 C 
BRANCH  20  21
ATOM     21  N   UNL     1       2.567   5.086  19.333  0.00  0.00    +0.000 NA
ATOM     22  C   UNL     1       3.130   3.984  19.003  0.00  0.00    +0.000 C 
ATOM     23  C   UNL     1       4.221   3.375  18.187  0.00  0.00    +0.000 C 
ATOM     24  C   UNL     1       3.782   2.107  18.509  0.00  0.00    +0.000 C 
ATOM     25  C   UNL     1       2.714   2.630  19.382  0.00  0.00    +0.000 C 
ATOM     26  O   UNL     1       1.860   2.216  20.132  0.00  0.00    +0.000 OA
BRANCH  23  27
ATOM     27  N   UNL     1       5.199   3.906  17.465  0.00  0.00    +0.000 N 
ATOM     28  C   UNL     1       6.371   4.587  18.015  0.00  0.00    +0.000 C 
ATOM     29  C   UNL     1       6.634   5.715  17.027  0.00  0.00    +0.000 C 
ATOM     30  C   UNL     1       6.285   5.088  15.693  0.00  0.00    +0.000 C 
ATOM     31  C   UNL     1       5.159   4.106  16.013  0.00  0.00    +0.000 C 
ENDBRANCH  23  27
BRANCH  24  32
ATOM     32  O   UNL     1       4.181   0.921  18.234  0.00  0.00    +0.000 OA
ATOM     33  H   UNL     1       4.298   0.423  19.059  0.00  0.00    +0.000 HD
ENDBRANCH  24  32
ENDBRANCH  20  21
ENDBRANCH   4  20
TORSDOF 8
ENDMDL
MODEL 5
REMARK VINA RESULT:      -8.5      2.112      3.571
REMARK  Name = 
REMARK  9 active torsions:
REMARK  status: ('A' for Active; 'I' for Inactive)
REMARK    1  A    between atoms: C_1  and  O_2
REMARK    2  A    between atoms: O_2  and  C_3
REMARK    3  A    between atoms: C_8  and  C_9
REMARK    4  A    between atoms: C_9  and  N_10
REMARK    5  A    between atoms: C_11  and  C_13
REMARK    6  A    between atoms: C_16  and  C_17
REMARK    7  A    between atoms: C_17  and  N_18
REMARK    8  A    between atoms: C_20  and  N_21
REMARK    9  A    between atoms: C_26  and  O_27
REMARK                            x       y       z     vdW  Elec       q    Type
REMARK                         _______ _______ _______ _____ _____    ______ ____
ROOT
ATOM      1  C   UNL     1       2.096   7.998  18.957  0.00  0.00    +0.000 A 
ATOM      2  C   UNL     1       2.825   7.884  17.768  0.00  0.00    +0.000 A 
ATOM      3  C   UNL     1       3.548   6.723  17.497  0.00  0.00    +0.000 A 
ATOM      4  C   UNL     1       3.567   5.660  18.411  0.00  0.00    +0.000 A 
ATOM      5  C   UNL     1       2.849   5.778  19.609  0.00  0.00    +0.000 A 
ATOM      6  C   UNL     1       2.123   6.944  19.883  0.00  0.00    +0.000 A 
ENDROOT
BRANCH   1   8
ATOM      7  N   UNL     1       1.036  10.070  18.212  0.00  0.00    +0.000 N 
ATOM      8  C   UNL     1       1.333   9.239  19.277  0.00  0.00    +0.000 C 
ATOM      9  O   UNL     1       0.994   9.467  20.433  0.00  0.00    +0.000 OA
ATOM     10  H   UNL     1       1.075   9.702  17.273  0.00  0.00    +0.000 HD
BRANCH   7  11
ATOM     11  C   UNL     1       0.243  11.266  18.387  0.00  0.00    +0.000 C 
BRANCH  11  17
ATOM     12  C   UNL     1      -2.244  11.836  18.793  0.00  0.00    +0.000 A 
ATOM     13  C   UNL     1      -3.594  11.599  18.483  0.00  0.00    +0.000 A 
ATOM     14  C   UNL     1      -3.968  10.544  17.655  0.00  0.00    +0.000 A 
ATOM     15  C   UNL     1      -2.992   9.728  17.100  0.00  0.00    +0.000 A 
ATOM     16  C   UNL     1      -1.646   9.982  17.363  0.00  0.00    +0.000 A 
ATOM     17  C   UNL     1      -1.243  11.039  18.205  0.00  0.00    +0.000 A 
BRANCH  12  19
ATOM     18  C   UNL     1      -2.622  12.945  20.837  0.00  0.00    +0.000 C 
ATOM     19  O   UNL     1      -1.852  12.849  19.635  0.00  0.00    +0.000 OA
ENDBRANCH  12  19
ENDBRANCH  11  17
ENDBRANCH   7  11
ENDBRANCH   1   8
BRANCH   4  20
ATOM     20  C   UNL     1       4.317   4.398  18.056  0.00  0.00    +0.000 C 
BRANCH  20  21
ATOM     21  N   UNL     1       4.309   4.128  16.629  0.00  0.00    +0.000 NA
ATOM     22  C   UNL     1       5.336   4.505  15.964  0.00  0.00    +0.000 C 
ATOM     23  C   UNL     1       6.668   5.172  16.060  0.00  0.00    +0.000 C 
ATOM     24  C   UNL     1       6.805   5.142  14.687  0.00  0.00    +0.000 C 
ATOM     25  C   UNL     1       5.527   4.428  14.512  0.00  0.00    +0.000 C 
ATOM     26  O   UNL     1       4.868   3.934  13.625  0.00  0.00    +0.000 OA
BRANCH  23  27
ATOM     27  N   UNL     1       7.381   5.596  17.095  0.00  0.00    +0.000 N 
ATOM     28  C   UNL     1       7.859   4.748  18.186  0.00  0.00    +0.000 C 
ATOM     29  C   UNL     1       7.746   5.639  19.416  0.00  0.00    +0.000 C 
ATOM     30  C   UNL     1       8.113   7.008  18.880  0.00  0.00    +0.000 C 
ATOM     31  C   UNL     1       7.610   7.003  17.439  0.00  0.00    +0.000 C 
ENDBRANCH  23  27
BRANCH  24  32
ATOM     32  O   UNL     1       7.719   5.510  13.867  0.00  0.00    +0.000 OA
ATOM     33  H   UNL     1       7.645   6.465  13.713  0.00  0.00    +0.000 HD
ENDBRANCH  24  32
ENDBRANCH  20  21
ENDBRANCH   4  20
TORSDOF 8
ENDMDL
MODEL 6
REMARK VINA RESULT:      -8.5      2.659      3.990
REMARK  Name = 
REMARK  9 active torsions:
REMARK  status: ('A' for Active; 'I' for Inactive)
REMARK    1  A    between atoms: C_1  and  O_2
REMARK    2  A    between atoms: O_2  and  C_3
REMARK    3  A    between atoms: C_8  and  C_9
REMARK    4  A    between atoms: C_9  and  N_10
REMARK    5  A    between atoms: C_11  and  C_13
REMARK    6  A    between atoms: C_16  and  C_17
REMARK    7  A    between atoms: C_17  and  N_18
REMARK    8  A    between atoms: C_20  and  N_21
REMARK    9  A    between atoms: C_26  and  O_27
REMARK                            x       y       z     vdW  Elec       q    Type
REMARK                         _______ _______ _______ _____ _____    ______ ____
ROOT
ATOM      1  C   UNL     1       0.867   9.883  19.267  0.00  0.00    +0.000 A 
ATOM      2  C   UNL     1       1.069   8.960  20.299  0.00  0.00    +0.000 A 
ATOM      3  C   UNL     1       1.827   7.811  20.073  0.00  0.00    +0.000 A 
ATOM      4  C   UNL     1       2.388   7.558  18.813  0.00  0.00    +0.000 A 
ATOM      5  C   UNL     1       2.175   8.476  17.776  0.00  0.00    +0.000 A 
ATOM      6  C   UNL     1       1.412   9.628  17.999  0.00  0.00    +0.000 A 
ENDROOT
BRANCH   1   8
ATOM      7  N   UNL     1       0.410  11.922  20.535  0.00  0.00    +0.000 N 
ATOM      8  C   UNL     1       0.041  11.107  19.480  0.00  0.00    +0.000 C 
ATOM      9  O   UNL     1      -0.897  11.349  18.729  0.00  0.00    +0.000 OA
ATOM     10  H   UNL     1       1.338  11.837  20.923  0.00  0.00    +0.000 HD
BRANCH   7  11
ATOM     11  C   UNL     1      -0.271  13.170  20.798  0.00  0.00    +0.000 C 
BRANCH  11  17
ATOM     12  C   UNL     1      -1.711  12.220  22.721  0.00  0.00    +0.000 A 
ATOM     13  C   UNL     1      -2.938  12.208  23.407  0.00  0.00    +0.000 A 
ATOM     14  C   UNL     1      -4.040  12.905  22.920  0.00  0.00    +0.000 A 
ATOM     15  C   UNL     1      -3.923  13.649  21.755  0.00  0.00    +0.000 A 
ATOM     16  C   UNL     1      -2.698  13.706  21.090  0.00  0.00    +0.000 A 
ATOM     17  C   UNL     1      -1.569  13.003  21.559  0.00  0.00    +0.000 A 
BRANCH  12  19
ATOM     18  C   UNL     1      -0.819  10.099  23.224  0.00  0.00    +0.000 C 
ATOM     19  O   UNL     1      -0.618  11.513  23.162  0.00  0.00    +0.000 OA
ENDBRANCH  12  19
ENDBRANCH  11  17
ENDBRANCH   7  11
ENDBRANCH   1   8
BRANCH   4  20
ATOM     20  C   UNL     1       3.249   6.332  18.625  0.00  0.00    +0.000 C 
BRANCH  20  21
ATOM     21  N   UNL     1       2.680   5.150  19.248  0.00  0.00    +0.000 NA
ATOM     22  C   UNL     1       3.216   4.025  18.951  0.00  0.00    +0.000 C 
ATOM     23  C   UNL     1       4.290   3.364  18.153  0.00  0.00    +0.000 C 
ATOM     24  C   UNL     1       3.822   2.118  18.517  0.00  0.00    +0.000 C 
ATOM     25  C   UNL     1       2.771   2.694  19.376  0.00  0.00    +0.000 C 
ATOM     26  O   UNL     1       1.910   2.325  20.141  0.00  0.00    +0.000 OA
BRANCH  23  27
ATOM     27  N   UNL     1       5.277   3.849  17.411  0.00  0.00    +0.000 N 
ATOM     28  C   UNL     1       6.449   4.551  17.933  0.00  0.00    +0.000 C 
ATOM     29  C   UNL     1       6.728   5.622  16.887  0.00  0.00    +0.000 C 
ATOM     30  C   UNL     1       6.385   4.925  15.586  0.00  0.00    +0.000 C 
ATOM     31  C   UNL     1       5.250   3.970  15.950  0.00  0.00    +0.000 C 
ENDBRANCH  23  27
BRANCH  24  32
ATOM     32  O   UNL     1       4.194   0.915  18.281  0.00  0.00    +0.000 OA
ATOM     33  H   UNL     1       5.145   0.834  18.450  0.00  0.00    +0.000 HD
ENDBRANCH  24  32
ENDBRANCH  20  21
ENDBRANCH   4  20
TORSDOF 8
ENDMDL
MODEL 7
REMARK VINA RESULT:      -8.5      1.724      2.690
REMARK  Name = 
REMARK  9 active torsions:
REMARK  status: ('A' for Active; 'I' for Inactive)
REMARK    1  A    between atoms: C_1  and  O_2
REMARK    2  A    between atoms: O_2  and  C_3
REMARK    3  A    between atoms: C_8  and  C_9
REMARK    4  A    between atoms: C_9  and  N_10
REMARK    5  A    between atoms: C_11  and  C_13
REMARK    6  A    between atoms: C_16  and  C_17
REMARK    7  A    between atoms: C_17  and  N_18
REMARK    8  A    between atoms: C_20  and  N_21
REMARK    9  A    between atoms: C_26  and  O_27
REMARK                            x       y       z     vdW  Elec       q    Type
REMARK                         _______ _______ _______ _____ _____    ______ ____
ROOT
ATOM      1  C   UNL     1       0.629  10.056  19.486  0.00  0.00    +0.000 A 
ATOM      2  C   UNL     1       0.925   9.159  20.519  0.00  0.00    +0.000 A 
ATOM      3  C   UNL     1       1.696   8.026  20.263  0.00  0.00    +0.000 A 
ATOM      4  C   UNL     1       2.176   7.761  18.973  0.00  0.00    +0.000 A 
ATOM      5  C   UNL     1       1.869   8.651  17.935  0.00  0.00    +0.000 A 
ATOM      6  C   UNL     1       1.093   9.789  18.189  0.00  0.00    +0.000 A 
ENDROOT
BRANCH   1   8
ATOM      7  N   UNL     1      -1.550  11.159  19.396  0.00  0.00    +0.000 N 
ATOM      8  C   UNL     1      -0.213  11.263  19.732  0.00  0.00    +0.000 C 
ATOM      9  O   UNL     1       0.289  12.268  20.222  0.00  0.00    +0.000 OA
ATOM     10  H   UNL     1      -1.960  10.244  19.279  0.00  0.00    +0.000 HD
BRANCH   7  11
ATOM     11  C   UNL     1      -2.478  12.237  19.651  0.00  0.00    +0.000 C 
BRANCH  11  17
ATOM     12  C   UNL     1      -4.011  11.588  17.676  0.00  0.00    +0.000 A 
ATOM     13  C   UNL     1      -5.310  11.347  17.195  0.00  0.00    +0.000 A 
ATOM     14  C   UNL     1      -6.428  11.615  17.979  0.00  0.00    +0.000 A 
ATOM     15  C   UNL     1      -6.262  12.099  19.269  0.00  0.00    +0.000 A 
ATOM     16  C   UNL     1      -4.978  12.297  19.774  0.00  0.00    +0.000 A 
ATOM     17  C   UNL     1      -3.829  12.041  18.996  0.00  0.00    +0.000 A 
BRANCH  12  19
ATOM     18  C   UNL     1      -2.892  10.108  16.225  0.00  0.00    +0.000 C 
ATOM     19  O   UNL     1      -2.892  11.364  16.909  0.00  0.00    +0.000 OA
ENDBRANCH  12  19
ENDBRANCH  11  17
ENDBRANCH   7  11
ENDBRANCH   1   8
BRANCH   4  20
ATOM     20  C   UNL     1       3.054   6.552  18.749  0.00  0.00    +0.000 C 
BRANCH  20  21
ATOM     21  N   UNL     1       2.531   5.357  19.386  0.00  0.00    +0.000 NA
ATOM     22  C   UNL     1       3.073   4.244  19.060  0.00  0.00    +0.000 C 
ATOM     23  C   UNL     1       4.124   3.606  18.214  0.00  0.00    +0.000 C 
ATOM     24  C   UNL     1       3.692   2.350  18.588  0.00  0.00    +0.000 C 
ATOM     25  C   UNL     1       2.667   2.903  19.493  0.00  0.00    +0.000 C 
ATOM     26  O   UNL     1       1.845   2.514  20.290  0.00  0.00    +0.000 OA
BRANCH  23  27
ATOM     27  N   UNL     1       5.072   4.112  17.436  0.00  0.00    +0.000 N 
ATOM     28  C   UNL     1       5.001   4.197  15.977  0.00  0.00    +0.000 C 
ATOM     29  C   UNL     1       6.431   3.929  15.528  0.00  0.00    +0.000 C 
ATOM     30  C   UNL     1       7.259   4.601  16.603  0.00  0.00    +0.000 C 
ATOM     31  C   UNL     1       6.429   4.451  17.876  0.00  0.00    +0.000 C 
ENDBRANCH  23  27
BRANCH  24  32
ATOM     32  O   UNL     1       4.074   1.155  18.328  0.00  0.00    +0.000 OA
ATOM     33  H   UNL     1       4.112   0.644  19.151  0.00  0.00    +0.000 HD
ENDBRANCH  24  32
ENDBRANCH  20  21
ENDBRANCH   4  20
TORSDOF 8
ENDMDL
MODEL 8
REMARK VINA RESULT:      -8.4      1.680      2.616
REMARK  Name = 
REMARK  9 active torsions:
REMARK  status: ('A' for Active; 'I' for Inactive)
REMARK    1  A    between atoms: C_1  and  O_2
REMARK    2  A    between atoms: O_2  and  C_3
REMARK    3  A    between atoms: C_8  and  C_9
REMARK    4  A    between atoms: C_9  and  N_10
REMARK    5  A    between atoms: C_11  and  C_13
REMARK    6  A    between atoms: C_16  and  C_17
REMARK    7  A    between atoms: C_17  and  N_18
REMARK    8  A    between atoms: C_20  and  N_21
REMARK    9  A    between atoms: C_26  and  O_27
REMARK                            x       y       z     vdW  Elec       q    Type
REMARK                         _______ _______ _______ _____ _____    ______ ____
ROOT
ATOM      1  C   UNL     1       0.922   9.721  19.290  0.00  0.00    +0.000 A 
ATOM      2  C   UNL     1       0.851   9.082  20.533  0.00  0.00    +0.000 A 
ATOM      3  C   UNL     1       1.516   7.874  20.739  0.00  0.00    +0.000 A 
ATOM      4  C   UNL     1       2.254   7.276  19.707  0.00  0.00    +0.000 A 
ATOM      5  C   UNL     1       2.315   7.908  18.458  0.00  0.00    +0.000 A 
ATOM      6  C   UNL     1       1.647   9.120  18.248  0.00  0.00    +0.000 A 
ENDROOT
BRANCH   1   8
ATOM      7  N   UNL     1      -1.146  11.021  19.356  0.00  0.00    +0.000 N 
ATOM      8  C   UNL     1       0.201  11.003  19.040  0.00  0.00    +0.000 C 
ATOM      9  O   UNL     1       0.808  11.968  18.593  0.00  0.00    +0.000 OA
ATOM     10  H   UNL     1      -1.517  10.319  19.979  0.00  0.00    +0.000 HD
BRANCH   7  11
ATOM     11  C   UNL     1      -1.935  12.225  19.223  0.00  0.00    +0.000 C 
BRANCH  11  17
ATOM     12  C   UNL     1      -3.579  11.480  17.374  0.00  0.00    +0.000 A 
ATOM     13  C   UNL     1      -4.901  11.199  16.988  0.00  0.00    +0.000 A 
ATOM     14  C   UNL     1      -5.971  11.474  17.834  0.00  0.00    +0.000 A 
ATOM     15  C   UNL     1      -5.732  12.005  19.093  0.00  0.00    +0.000 A 
ATOM     16  C   UNL     1      -4.422  12.244  19.507  0.00  0.00    +0.000 A 
ATOM     17  C   UNL     1      -3.321  11.982  18.665  0.00  0.00    +0.000 A 
BRANCH  12  19
ATOM     18  C   UNL     1      -2.783  10.351  15.467  0.00  0.00    +0.000 C 
ATOM     19  O   UNL     1      -2.508  11.250  16.544  0.00  0.00    +0.000 OA
ENDBRANCH  12  19
ENDBRANCH  11  17
ENDBRANCH   7  11
ENDBRANCH   1   8
BRANCH   4  20
ATOM     20  C   UNL     1       3.006   5.996  19.988  0.00  0.00    +0.000 C 
BRANCH  20  21
ATOM     21  N   UNL     1       2.630   4.920  19.088  0.00  0.00    +0.000 NA
ATOM     22  C   UNL     1       3.467   4.617  18.168  0.00  0.00    +0.000 C 
ATOM     23  C   UNL     1       4.800   4.945  17.582  0.00  0.00    +0.000 C 
ATOM     24  C   UNL     1       4.585   4.060  16.545  0.00  0.00    +0.000 C 
ATOM     25  C   UNL     1       3.282   3.637  17.093  0.00  0.00    +0.000 C 
ATOM     26  O   UNL     1       2.406   2.837  16.856  0.00  0.00    +0.000 OA
BRANCH  23  27
ATOM     27  N   UNL     1       5.764   5.772  17.965  0.00  0.00    +0.000 N 
ATOM     28  C   UNL     1       6.103   7.029  17.298  0.00  0.00    +0.000 C 
ATOM     29  C   UNL     1       7.619   7.105  17.414  0.00  0.00    +0.000 C 
ATOM     30  C   UNL     1       7.888   6.508  18.780  0.00  0.00    +0.000 C 
ATOM     31  C   UNL     1       6.793   5.459  18.962  0.00  0.00    +0.000 C 
ENDBRANCH  23  27
BRANCH  24  32
ATOM     32  O   UNL     1       5.273   3.676  15.534  0.00  0.00    +0.000 OA
ATOM     33  H   UNL     1       5.301   2.707  15.516  0.00  0.00    +0.000 HD
ENDBRANCH  24  32
ENDBRANCH  20  21
ENDBRANCH   4  20
TORSDOF 8
ENDMDL
MODEL 9
REMARK VINA RESULT:      -8.3      1.833      2.648
REMARK  Name = 
REMARK  9 active torsions:
REMARK  status: ('A' for Active; 'I' for Inactive)
REMARK    1  A    between atoms: C_1  and  O_2
REMARK    2  A    between atoms: O_2  and  C_3
REMARK    3  A    between atoms: C_8  and  C_9
REMARK    4  A    between atoms: C_9  and  N_10
REMARK    5  A    between atoms: C_11  and  C_13
REMARK    6  A    between atoms: C_16  and  C_17
REMARK    7  A    between atoms: C_17  and  N_18
REMARK    8  A    between atoms: C_20  and  N_21
REMARK    9  A    between atoms: C_26  and  O_27
REMARK                            x       y       z     vdW  Elec       q    Type
REMARK                         _______ _______ _______ _____ _____    ______ ____
ROOT
ATOM      1  C   UNL     1       0.534  10.175  19.937  0.00  0.00    +0.000 A 
ATOM      2  C   UNL     1       0.939   9.088  20.720  0.00  0.00    +0.000 A 
ATOM      3  C   UNL     1       1.653   8.037  20.144  0.00  0.00    +0.000 A 
ATOM      4  C   UNL     1       1.964   8.046  18.776  0.00  0.00    +0.000 A 
ATOM      5  C   UNL     1       1.546   9.127  17.989  0.00  0.00    +0.000 A 
ATOM      6  C   UNL     1       0.828  10.183  18.565  0.00  0.00    +0.000 A 
ENDROOT
BRANCH   1   8
ATOM      7  N   UNL     1      -1.194  11.888  19.707  0.00  0.00    +0.000 N 
ATOM      8  C   UNL     1      -0.249  11.299  20.528  0.00  0.00    +0.000 C 
ATOM      9  O   UNL     1      -0.046  11.643  21.687  0.00  0.00    +0.000 OA
ATOM     10  H   UNL     1      -1.519  11.390  18.891  0.00  0.00    +0.000 HD
BRANCH   7  11
ATOM     11  C   UNL     1      -2.062  12.940  20.189  0.00  0.00    +0.000 C 
BRANCH  11  17
ATOM     12  C   UNL     1      -4.149  11.981  19.007  0.00  0.00    +0.000 A 
ATOM     13  C   UNL     1      -5.504  11.611  19.079  0.00  0.00    +0.000 A 
ATOM     14  C   UNL     1      -6.269  11.901  20.205  0.00  0.00    +0.000 A 
ATOM     15  C   UNL     1      -5.683  12.538  21.290  0.00  0.00    +0.000 A 
ATOM     16  C   UNL     1      -4.328  12.867  21.249  0.00  0.00    +0.000 A 
ATOM     17  C   UNL     1      -3.533  12.592  20.117  0.00  0.00    +0.000 A 
BRANCH  12  19
ATOM     18  C   UNL     1      -3.463  10.394  17.407  0.00  0.00    +0.000 C 
ATOM     19  O   UNL     1      -3.381  11.737  17.894  0.00  0.00    +0.000 OA
ENDBRANCH  12  19
ENDBRANCH  11  17
ENDBRANCH   7  11
ENDBRANCH   1   8
BRANCH   4  20
ATOM     20  C   UNL     1       2.786   6.916  18.203  0.00  0.00    +0.000 C 
BRANCH  20  21
ATOM     21  N   UNL     1       2.082   5.646  18.228  0.00  0.00    +0.000 NA
ATOM     22  C   UNL     1       2.797   4.588  18.136  0.00  0.00    +0.000 C 
ATOM     23  C   UNL     1       4.191   4.071  18.001  0.00  0.00    +0.000 C 
ATOM     24  C   UNL     1       3.721   2.781  17.863  0.00  0.00    +0.000 C 
ATOM     25  C   UNL     1       2.320   3.204  18.048  0.00  0.00    +0.000 C 
ATOM     26  O   UNL     1       1.219   2.711  18.135  0.00  0.00    +0.000 OA
BRANCH  23  27
ATOM     27  N   UNL     1       5.372   4.673  18.021  0.00  0.00    +0.000 N 
ATOM     28  C   UNL     1       6.352   4.631  16.935  0.00  0.00    +0.000 C 
ATOM     29  C   UNL     1       7.692   4.584  17.656  0.00  0.00    +0.000 C 
ATOM     30  C   UNL     1       7.462   5.473  18.861  0.00  0.00    +0.000 C 
ATOM     31  C   UNL     1       5.988   5.279  19.206  0.00  0.00    +0.000 C 
ENDBRANCH  23  27
BRANCH  24  32
ATOM     32  O   UNL     1       4.273   1.634  17.716  0.00  0.00    +0.000 OA
ATOM     33  H   UNL     1       3.788   0.975  18.236  0.00  0.00    +0.000 HD
ENDBRANCH  24  32
ENDBRANCH  20  21
ENDBRANCH   4  20
TORSDOF 8
ENDMDL
