MODEL 1
REMARK VINA RESULT:      -6.6      0.000      0.000
REMARK  Name = 
REMARK  6 active torsions:
REMARK  status: ('A' for Active; 'I' for Inactive)
REMARK    1  A    between atoms: C_1  and  C_2
REMARK    2  A    between atoms: C_2  and  O_3
REMARK    3  A    between atoms: O_3  and  C_4
REMARK    4  A    between atoms: N_10  and  C_11
REMARK    5  A    between atoms: C_12  and  N_13
REMARK    6  A    between atoms: C_17  and  N_18
REMARK                            x       y       z     vdW  Elec       q    Type
REMARK                         _______ _______ _______ _____ _____    ______ ____
ROOT
ATOM      1  C   UNL     1       0.334  12.600  19.959  0.00  0.00    +0.000 A 
ATOM      2  C   UNL     1       1.176  13.396  20.805  0.00  0.00    +0.000 A 
ATOM      3  C   UNL     1       0.732  14.212  21.894  0.00  0.00    +0.000 A 
ATOM      4  C   UNL     1      -0.628  14.288  22.225  0.00  0.00    +0.000 A 
ATOM      5  C   UNL     1      -1.529  13.566  21.429  0.00  0.00    +0.000 A 
ATOM      6  N   UNL     1      -2.866  13.478  21.462  0.00  0.00    +0.000 NA
ATOM      7  O   UNL     1      -3.253  12.629  20.434  0.00  0.00    +0.000 OA
ATOM      8  N   UNL     1      -2.077  12.188  19.754  0.00  0.00    +0.000 N 
ATOM      9  O   UNL     1      -2.233  11.429  18.769  0.00  0.00    +0.000 OA
ATOM     10  C   UNL     1      -1.016  12.759  20.331  0.00  0.00    +0.000 A 
ENDROOT
BRANCH   1  17
ATOM     11  C   UNL     1       2.584   5.986  19.433  0.00  0.00    +0.000 A 
ATOM     12  C   UNL     1       1.922   6.204  20.640  0.00  0.00    +0.000 A 
ATOM     13  C   UNL     1       1.334   7.445  20.919  0.00  0.00    +0.000 A 
ATOM     14  C   UNL     1       1.399   8.485  19.970  0.00  0.00    +0.000 A 
ATOM     15  N   UNL     1       0.887   9.762  20.124  0.00  0.00    +0.000 NA
ATOM     16  C   UNL     1       1.113  10.479  19.049  0.00  0.00    +0.000 A 
ATOM     17  N   UNL     1       0.744  11.782  18.900  0.00  0.00    +0.000 N 
ATOM     18  S   UNL     1       1.905   9.646  17.770  0.00  0.00    +0.000 S 
ATOM     19  C   UNL     1       2.036   8.240  18.755  0.00  0.00    +0.000 A 
ATOM     20  C   UNL     1       2.645   7.005  18.474  0.00  0.00    +0.000 A 
ATOM     21  H   UNL     1       0.323  11.986  17.991  0.00  0.00    +0.000 HD
BRANCH  11  22
ATOM     22  O   UNL     1       3.206   4.822  19.064  0.00  0.00    +0.000 OA
BRANCH  22  24
ATOM     23  C   UNL     1       1.553   3.307  18.231  0.00  0.00    +0.000 C 
ATOM     24  C   UNL     1       2.739   4.186  17.874  0.00  0.00    +0.000 C 
ENDBRANCH  22  24
ENDBRANCH  11  22
ENDBRANCH   1  17
BRANCH   2  25
ATOM     25  N   UNL     1       2.601  13.533  20.494  0.00  0.00    +0.000 N 
ATOM     26  O   UNL     1       2.908  13.667  19.302  0.00  0.00    +0.000 OA
ATOM     27  O   UNL     1       3.377  13.618  21.457  0.00  0.00    +0.000 OA
ENDBRANCH   2  25
BRANCH   4  28
ATOM     28  N   UNL     1      -1.106  15.123  23.288  0.00  0.00    +0.000 N 
ATOM     29  O   UNL     1      -1.548  16.231  22.961  0.00  0.00    +0.000 OA
ATOM     30  O   UNL     1      -0.982  14.698  24.441  0.00  0.00    +0.000 OA
ENDBRANCH   4  28
TORSDOF 5
ENDMDL
MODEL 2
REMARK VINA RESULT:      -6.6      3.732      9.634
REMARK  Name = 
REMARK  6 active torsions:
REMARK  status: ('A' for Active; 'I' for Inactive)
REMARK    1  A    between atoms: C_1  and  C_2
REMARK    2  A    between atoms: C_2  and  O_3
REMARK    3  A    between atoms: O_3  and  C_4
REMARK    4  A    between atoms: N_10  and  C_11
REMARK    5  A    between atoms: C_12  and  N_13
REMARK    6  A    between atoms: C_17  and  N_18
REMARK                            x       y       z     vdW  Elec       q    Type
REMARK                         _______ _______ _______ _____ _____    ______ ____
ROOT
ATOM      1  C   UNL     1       3.363   5.417  18.472  0.00  0.00    +0.000 A 
ATOM      2  C   UNL     1       2.577   4.283  18.861  0.00  0.00    +0.000 A 
ATOM      3  C   UNL     1       3.088   3.057  19.397  0.00  0.00    +0.000 A 
ATOM      4  C   UNL     1       4.464   2.877  19.589  0.00  0.00    +0.000 A 
ATOM      5  C   UNL     1       5.314   3.926  19.204  0.00  0.00    +0.000 A 
ATOM      6  N   UNL     1       6.650   4.033  19.216  0.00  0.00    +0.000 NA
ATOM      7  O   UNL     1       6.972   5.287  18.714  0.00  0.00    +0.000 OA
ATOM      8  N   UNL     1       5.756   5.961  18.386  0.00  0.00    +0.000 N 
ATOM      9  O   UNL     1       5.850   7.107  17.888  0.00  0.00    +0.000 OA
ATOM     10  C   UNL     1       4.733   5.146  18.660  0.00  0.00    +0.000 A 
ENDROOT
BRANCH   1  17
ATOM     11  C   UNL     1      -0.288  10.777  21.124  0.00  0.00    +0.000 A 
ATOM     12  C   UNL     1       0.277   9.997  22.132  0.00  0.00    +0.000 A 
ATOM     13  C   UNL     1       1.103   8.910  21.817  0.00  0.00    +0.000 A 
ATOM     14  C   UNL     1       1.380   8.603  20.470  0.00  0.00    +0.000 A 
ATOM     15  N   UNL     1       2.155   7.548  20.018  0.00  0.00    +0.000 NA
ATOM     16  C   UNL     1       2.215   7.553  18.707  0.00  0.00    +0.000 A 
ATOM     17  N   UNL     1       2.888   6.631  17.963  0.00  0.00    +0.000 N 
ATOM     18  S   UNL     1       1.389   8.854  17.943  0.00  0.00    +0.000 S 
ATOM     19  C   UNL     1       0.835   9.412  19.475  0.00  0.00    +0.000 A 
ATOM     20  C   UNL     1      -0.011  10.492  19.780  0.00  0.00    +0.000 A 
ATOM     21  H   UNL     1       3.437   7.042  17.205  0.00  0.00    +0.000 HD
BRANCH  11  22
ATOM     22  O   UNL     1      -1.120  11.848  21.317  0.00  0.00    +0.000 OA
BRANCH  22  24
ATOM     23  C   UNL     1      -2.644  12.235  23.120  0.00  0.00    +0.000 C 
ATOM     24  C   UNL     1      -1.208  12.370  22.643  0.00  0.00    +0.000 C 
ENDBRANCH  22  24
ENDBRANCH  11  22
ENDBRANCH   1  17
BRANCH   2  25
ATOM     25  N   UNL     1       1.138   4.264  18.587  0.00  0.00    +0.000 N 
ATOM     26  O   UNL     1       0.789   4.376  17.404  0.00  0.00    +0.000 OA
ATOM     27  O   UNL     1       0.390   4.024  19.544  0.00  0.00    +0.000 OA
ENDBRANCH   2  25
BRANCH   4  28
ATOM     28  N   UNL     1       5.008   1.650  20.090  0.00  0.00    +0.000 N 
ATOM     29  O   UNL     1       4.965   0.677  19.327  0.00  0.00    +0.000 OA
ATOM     30  O   UNL     1       5.416   1.645  21.256  0.00  0.00    +0.000 OA
ENDBRANCH   4  28
TORSDOF 5
ENDMDL
MODEL 3
REMARK VINA RESULT:      -6.4      1.366      1.579
REMARK  Name = 
REMARK  6 active torsions:
REMARK  status: ('A' for Active; 'I' for Inactive)
REMARK    1  A    between atoms: C_1  and  C_2
REMARK    2  A    between atoms: C_2  and  O_3
REMARK    3  A    between atoms: O_3  and  C_4
REMARK    4  A    between atoms: N_10  and  C_11
REMARK    5  A    between atoms: C_12  and  N_13
REMARK    6  A    between atoms: C_17  and  N_18
REMARK                            x       y       z     vdW  Elec       q    Type
REMARK                         _______ _______ _______ _____ _____    ______ ____
ROOT
ATOM      1  C   UNL     1       0.123  11.690  19.069  0.00  0.00    +0.000 A 
ATOM      2  C   UNL     1       0.629  12.632  20.025  0.00  0.00    +0.000 A 
ATOM      3  C   UNL     1      -0.167  13.460  20.882  0.00  0.00    +0.000 A 
ATOM      4  C   UNL     1      -1.566  13.397  20.841  0.00  0.00    +0.000 A 
ATOM      5  C   UNL     1      -2.148  12.524  19.910  0.00  0.00    +0.000 A 
ATOM      6  N   UNL     1      -3.431  12.283  19.603  0.00  0.00    +0.000 NA
ATOM      7  O   UNL     1      -3.446  11.329  18.595  0.00  0.00    +0.000 OA
ATOM      8  N   UNL     1      -2.094  10.985  18.287  0.00  0.00    +0.000 N 
ATOM      9  O   UNL     1      -1.908  10.151  17.371  0.00  0.00    +0.000 OA
ATOM     10  C   UNL     1      -1.286  11.713  19.063  0.00  0.00    +0.000 A 
ENDROOT
BRANCH   1  17
ATOM     11  C   UNL     1       3.103   5.389  19.784  0.00  0.00    +0.000 A 
ATOM     12  C   UNL     1       2.130   5.605  20.759  0.00  0.00    +0.000 A 
ATOM     13  C   UNL     1       1.365   6.780  20.756  0.00  0.00    +0.000 A 
ATOM     14  C   UNL     1       1.568   7.751  19.755  0.00  0.00    +0.000 A 
ATOM     15  N   UNL     1       0.904   8.961  19.649  0.00  0.00    +0.000 NA
ATOM     16  C   UNL     1       1.327   9.624  18.599  0.00  0.00    +0.000 A 
ATOM     17  N   UNL     1       0.878  10.858  18.234  0.00  0.00    +0.000 N 
ATOM     18  S   UNL     1       2.507   8.811  17.649  0.00  0.00    +0.000 S 
ATOM     19  C   UNL     1       2.521   7.504  18.770  0.00  0.00    +0.000 A 
ATOM     20  C   UNL     1       3.307   6.339  18.775  0.00  0.00    +0.000 A 
ATOM     21  H   UNL     1       0.690  10.944  17.232  0.00  0.00    +0.000 HD
BRANCH  11  22
ATOM     22  O   UNL     1       3.916   4.290  19.701  0.00  0.00    +0.000 OA
BRANCH  22  24
ATOM     23  C   UNL     1       3.134   2.232  18.765  0.00  0.00    +0.000 C 
ATOM     24  C   UNL     1       3.340   3.029  20.042  0.00  0.00    +0.000 C 
ENDBRANCH  22  24
ENDBRANCH  11  22
ENDBRANCH   1  17
BRANCH   2  25
ATOM     25  N   UNL     1       2.065  12.914  20.083  0.00  0.00    +0.000 N 
ATOM     26  O   UNL     1       2.656  13.049  19.003  0.00  0.00    +0.000 OA
ATOM     27  O   UNL     1       2.551  13.108  21.205  0.00  0.00    +0.000 OA
ENDBRANCH   2  25
BRANCH   4  28
ATOM     28  N   UNL     1      -2.388  14.238  21.661  0.00  0.00    +0.000 N 
ATOM     29  O   UNL     1      -2.550  15.400  21.269  0.00  0.00    +0.000 OA
ATOM     30  O   UNL     1      -2.816  13.757  22.715  0.00  0.00    +0.000 OA
ENDBRANCH   4  28
TORSDOF 5
ENDMDL
MODEL 4
REMARK VINA RESULT:      -6.4      3.827      9.324
REMARK  Name = 
REMARK  6 active torsions:
REMARK  status: ('A' for Active; 'I' for Inactive)
REMARK    1  A    between atoms: C_1  and  C_2
REMARK    2  A    between atoms: C_2  and  O_3
REMARK    3  A    between atoms: O_3  and  C_4
REMARK    4  A    between atoms: N_10  and  C_11
REMARK    5  A    between atoms: C_12  and  N_13
REMARK    6  A    between atoms: C_17  and  N_18
REMARK                            x       y       z     vdW  Elec       q    Type
REMARK                         _______ _______ _______ _____ _____    ______ ____
ROOT
ATOM      1  C   UNL     1       3.765   5.317  18.209  0.00  0.00    +0.000 A 
ATOM      2  C   UNL     1       5.048   4.904  18.697  0.00  0.00    +0.000 A 
ATOM      3  C   UNL     1       5.390   3.583  19.133  0.00  0.00    +0.000 A 
ATOM      4  C   UNL     1       4.441   2.552  19.108  0.00  0.00    +0.000 A 
ATOM      5  C   UNL     1       3.146   2.875  18.676  0.00  0.00    +0.000 A 
ATOM      6  N   UNL     1       2.031   2.135  18.588  0.00  0.00    +0.000 NA
ATOM      7  O   UNL     1       1.023   2.957  18.104  0.00  0.00    +0.000 OA
ATOM      8  N   UNL     1       1.572   4.259  17.892  0.00  0.00    +0.000 N 
ATOM      9  O   UNL     1       0.795   5.151  17.480  0.00  0.00    +0.000 OA
ATOM     10  C   UNL     1       2.860   4.238  18.249  0.00  0.00    +0.000 A 
ENDROOT
BRANCH   1  17
ATOM     11  C   UNL     1      -0.051  10.575  20.832  0.00  0.00    +0.000 A 
ATOM     12  C   UNL     1       0.332   9.678  21.828  0.00  0.00    +0.000 A 
ATOM     13  C   UNL     1       1.159   8.587  21.527  0.00  0.00    +0.000 A 
ATOM     14  C   UNL     1       1.619   8.394  20.210  0.00  0.00    +0.000 A 
ATOM     15  N   UNL     1       2.416   7.350  19.771  0.00  0.00    +0.000 NA
ATOM     16  C   UNL     1       2.667   7.474  18.489  0.00  0.00    +0.000 A 
ATOM     17  N   UNL     1       3.410   6.594  17.761  0.00  0.00    +0.000 N 
ATOM     18  S   UNL     1       2.007   8.878  17.748  0.00  0.00    +0.000 S 
ATOM     19  C   UNL     1       1.253   9.317  19.233  0.00  0.00    +0.000 A 
ATOM     20  C   UNL     1       0.409  10.403  19.520  0.00  0.00    +0.000 A 
ATOM     21  H   UNL     1       4.078   7.047  17.133  0.00  0.00    +0.000 HD
BRANCH  11  22
ATOM     22  O   UNL     1      -0.866  11.661  21.010  0.00  0.00    +0.000 OA
BRANCH  22  24
ATOM     23  C   UNL     1      -2.196  11.934  22.980  0.00  0.00    +0.000 C 
ATOM     24  C   UNL     1      -0.875  12.261  22.306  0.00  0.00    +0.000 C 
ENDBRANCH  22  24
ENDBRANCH  11  22
ENDBRANCH   1  17
BRANCH   2  25
ATOM     25  N   UNL     1       6.100   5.899  18.917  0.00  0.00    +0.000 N 
ATOM     26  O   UNL     1       6.866   5.707  19.871  0.00  0.00    +0.000 OA
ATOM     27  O   UNL     1       6.211   6.793  18.067  0.00  0.00    +0.000 OA
ENDBRANCH   2  25
BRANCH   4  28
ATOM     28  N   UNL     1       4.743   1.230  19.571  0.00  0.00    +0.000 N 
ATOM     29  O   UNL     1       4.346   0.295  18.864  0.00  0.00    +0.000 OA
ATOM     30  O   UNL     1       5.317   1.128  20.659  0.00  0.00    +0.000 OA
ENDBRANCH   4  28
TORSDOF 5
ENDMDL
MODEL 5
REMARK VINA RESULT:      -6.3      3.929      9.419
REMARK  Name = 
REMARK  6 active torsions:
REMARK  status: ('A' for Active; 'I' for Inactive)
REMARK    1  A    between atoms: C_1  and  C_2
REMARK    2  A    between atoms: C_2  and  O_3
REMARK    3  A    between atoms: O_3  and  C_4
REMARK    4  A    between atoms: N_10  and  C_11
REMARK    5  A    between atoms: C_12  and  N_13
REMARK    6  A    between atoms: C_17  and  N_18
REMARK                            x       y       z     vdW  Elec       q    Type
REMARK                         _______ _______ _______ _____ _____    ______ ____
ROOT
ATOM      1  C   UNL     1       3.895   4.989  18.389  0.00  0.00    +0.000 A 
ATOM      2  C   UNL     1       5.183   4.684  18.941  0.00  0.00    +0.000 A 
ATOM      3  C   UNL     1       5.558   3.441  19.546  0.00  0.00    +0.000 A 
ATOM      4  C   UNL     1       4.642   2.384  19.641  0.00  0.00    +0.000 A 
ATOM      5  C   UNL     1       3.345   2.606  19.155  0.00  0.00    +0.000 A 
ATOM      6  N   UNL     1       2.255   1.825  19.148  0.00  0.00    +0.000 NA
ATOM      7  O   UNL     1       1.230   2.546  18.551  0.00  0.00    +0.000 OA
ATOM      8  N   UNL     1       1.742   3.827  18.182  0.00  0.00    +0.000 N 
ATOM      9  O   UNL     1       0.944   4.634  17.650  0.00  0.00    +0.000 OA
ATOM     10  C   UNL     1       3.023   3.894  18.555  0.00  0.00    +0.000 A 
ENDROOT
BRANCH   1  17
ATOM     11  C   UNL     1       0.015  10.487  20.341  0.00  0.00    +0.000 A 
ATOM     12  C   UNL     1       0.432   9.742  21.442  0.00  0.00    +0.000 A 
ATOM     13  C   UNL     1       1.276   8.635  21.278  0.00  0.00    +0.000 A 
ATOM     14  C   UNL     1       1.720   8.271  19.991  0.00  0.00    +0.000 A 
ATOM     15  N   UNL     1       2.530   7.192  19.683  0.00  0.00    +0.000 NA
ATOM     16  C   UNL     1       2.759   7.144  18.392  0.00  0.00    +0.000 A 
ATOM     17  N   UNL     1       3.508   6.187  17.777  0.00  0.00    +0.000 N 
ATOM     18  S   UNL     1       2.059   8.423  17.479  0.00  0.00    +0.000 S 
ATOM     19  C   UNL     1       1.320   9.046  18.904  0.00  0.00    +0.000 A 
ATOM     20  C   UNL     1       0.459  10.146  19.056  0.00  0.00    +0.000 A 
ATOM     21  H   UNL     1       4.157   6.561  17.082  0.00  0.00    +0.000 HD
BRANCH  11  22
ATOM     22  O   UNL     1      -0.818  11.573  20.383  0.00  0.00    +0.000 OA
BRANCH  22  24
ATOM     23  C   UNL     1      -0.625  13.682  19.270  0.00  0.00    +0.000 C 
ATOM     24  C   UNL     1      -1.082  12.238  19.148  0.00  0.00    +0.000 C 
ENDBRANCH  22  24
ENDBRANCH  11  22
ENDBRANCH   1  17
BRANCH   2  25
ATOM     25  N   UNL     1       6.199   5.733  19.046  0.00  0.00    +0.000 N 
ATOM     26  O   UNL     1       7.006   5.644  19.981  0.00  0.00    +0.000 OA
ATOM     27  O   UNL     1       6.242   6.563  18.128  0.00  0.00    +0.000 OA
ENDBRANCH   2  25
BRANCH   4  28
ATOM     28  N   UNL     1       4.978   1.142  20.272  0.00  0.00    +0.000 N 
ATOM     29  O   UNL     1       5.269   1.196  21.473  0.00  0.00    +0.000 OA
ATOM     30  O   UNL     1       5.010   0.135  19.558  0.00  0.00    +0.000 OA
ENDBRANCH   4  28
TORSDOF 5
ENDMDL
MODEL 6
REMARK VINA RESULT:      -6.2      1.179      1.591
REMARK  Name = 
REMARK  6 active torsions:
REMARK  status: ('A' for Active; 'I' for Inactive)
REMARK    1  A    between atoms: C_1  and  C_2
REMARK    2  A    between atoms: C_2  and  O_3
REMARK    3  A    between atoms: O_3  and  C_4
REMARK    4  A    between atoms: N_10  and  C_11
REMARK    5  A    between atoms: C_12  and  N_13
REMARK    6  A    between atoms: C_17  and  N_18
REMARK                            x       y       z     vdW  Elec       q    Type
REMARK                         _______ _______ _______ _____ _____    ______ ____
ROOT
ATOM      1  C   UNL     1      -0.284  12.339  19.499  0.00  0.00    +0.000 A 
ATOM      2  C   UNL     1       0.345  13.211  20.448  0.00  0.00    +0.000 A 
ATOM      3  C   UNL     1      -0.334  14.016  21.418  0.00  0.00    +0.000 A 
ATOM      4  C   UNL     1      -1.732  14.001  21.511  0.00  0.00    +0.000 A 
ATOM      5  C   UNL     1      -2.433  13.200  20.597  0.00  0.00    +0.000 A 
ATOM      6  N   UNL     1      -3.747  13.017  20.405  0.00  0.00    +0.000 NA
ATOM      7  O   UNL     1      -3.893  12.120  19.356  0.00  0.00    +0.000 OA
ATOM      8  N   UNL     1      -2.591  11.750  18.901  0.00  0.00    +0.000 N 
ATOM      9  O   UNL     1      -2.524  10.961  17.929  0.00  0.00    +0.000 OA
ATOM     10  C   UNL     1      -1.685  12.408  19.630  0.00  0.00    +0.000 A 
ENDROOT
BRANCH   1  17
ATOM     11  C   UNL     1       2.807   6.054  19.679  0.00  0.00    +0.000 A 
ATOM     12  C   UNL     1       1.975   6.243  20.781  0.00  0.00    +0.000 A 
ATOM     13  C   UNL     1       1.208   7.411  20.905  0.00  0.00    +0.000 A 
ATOM     14  C   UNL     1       1.267   8.402  19.905  0.00  0.00    +0.000 A 
ATOM     15  N   UNL     1       0.586   9.607  19.913  0.00  0.00    +0.000 NA
ATOM     16  C   UNL     1       0.859  10.294  18.829  0.00  0.00    +0.000 A 
ATOM     17  N   UNL     1       0.356  11.530  18.553  0.00  0.00    +0.000 N 
ATOM     18  S   UNL     1       1.905   9.510  17.712  0.00  0.00    +0.000 S 
ATOM     19  C   UNL     1       2.079   8.183  18.795  0.00  0.00    +0.000 A 
ATOM     20  C   UNL     1       2.866   7.025  18.671  0.00  0.00    +0.000 A 
ATOM     21  H   UNL     1       0.034  11.633  17.588  0.00  0.00    +0.000 HD
BRANCH  11  22
ATOM     22  O   UNL     1       3.609   4.964  19.465  0.00  0.00    +0.000 OA
BRANCH  22  24
ATOM     23  C   UNL     1       5.967   5.217  19.148  0.00  0.00    +0.000 C 
ATOM     24  C   UNL     1       4.618   5.088  18.462  0.00  0.00    +0.000 C 
ENDBRANCH  22  24
ENDBRANCH  11  22
ENDBRANCH   1  17
BRANCH   2  25
ATOM     25  N   UNL     1       1.790  13.444  20.380  0.00  0.00    +0.000 N 
ATOM     26  O   UNL     1       2.455  13.147  21.380  0.00  0.00    +0.000 OA
ATOM     27  O   UNL     1       2.245  13.813  19.288  0.00  0.00    +0.000 OA
ENDBRANCH   2  25
BRANCH   4  28
ATOM     28  N   UNL     1      -2.440  14.822  22.449  0.00  0.00    +0.000 N 
ATOM     29  O   UNL     1      -2.623  14.340  23.574  0.00  0.00    +0.000 OA
ATOM     30  O   UNL     1      -2.862  15.910  22.044  0.00  0.00    +0.000 OA
ENDBRANCH   4  28
TORSDOF 5
ENDMDL
MODEL 7
REMARK VINA RESULT:      -6.1      1.577      2.063
REMARK  Name = 
REMARK  6 active torsions:
REMARK  status: ('A' for Active; 'I' for Inactive)
REMARK    1  A    between atoms: C_1  and  C_2
REMARK    2  A    between atoms: C_2  and  O_3
REMARK    3  A    between atoms: O_3  and  C_4
REMARK    4  A    between atoms: N_10  and  C_11
REMARK    5  A    between atoms: C_12  and  N_13
REMARK    6  A    between atoms: C_17  and  N_18
REMARK                            x       y       z     vdW  Elec       q    Type
REMARK                         _______ _______ _______ _____ _____    ______ ____
ROOT
ATOM      1  C   UNL     1      -0.093  11.640  18.902  0.00  0.00    +0.000 A 
ATOM      2  C   UNL     1       0.376  12.578  19.880  0.00  0.00    +0.000 A 
ATOM      3  C   UNL     1      -0.450  13.378  20.733  0.00  0.00    +0.000 A 
ATOM      4  C   UNL     1      -1.847  13.289  20.665  0.00  0.00    +0.000 A 
ATOM      5  C   UNL     1      -2.395  12.418  19.712  0.00  0.00    +0.000 A 
ATOM      6  N   UNL     1      -3.667  12.156  19.378  0.00  0.00    +0.000 NA
ATOM      7  O   UNL     1      -3.645  11.217  18.357  0.00  0.00    +0.000 OA
ATOM      8  N   UNL     1      -2.282  10.904  18.069  0.00  0.00    +0.000 N 
ATOM      9  O   UNL     1      -2.062  10.086  17.145  0.00  0.00    +0.000 OA
ATOM     10  C   UNL     1      -1.502  11.636  18.869  0.00  0.00    +0.000 A 
ENDROOT
BRANCH   1  17
ATOM     11  C   UNL     1       3.271   5.545  19.692  0.00  0.00    +0.000 A 
ATOM     12  C   UNL     1       2.307   5.726  20.683  0.00  0.00    +0.000 A 
ATOM     13  C   UNL     1       1.473   6.853  20.670  0.00  0.00    +0.000 A 
ATOM     14  C   UNL     1       1.597   7.810  19.644  0.00  0.00    +0.000 A 
ATOM     15  N   UNL     1       0.861   8.976  19.525  0.00  0.00    +0.000 NA
ATOM     16  C   UNL     1       1.222   9.638  18.452  0.00  0.00    +0.000 A 
ATOM     17  N   UNL     1       0.693  10.834  18.069  0.00  0.00    +0.000 N 
ATOM     18  S   UNL     1       2.430   8.875  17.495  0.00  0.00    +0.000 S 
ATOM     19  C   UNL     1       2.544   7.597  18.644  0.00  0.00    +0.000 A 
ATOM     20  C   UNL     1       3.397   6.481  18.658  0.00  0.00    +0.000 A 
ATOM     21  H   UNL     1       0.480  10.885  17.070  0.00  0.00    +0.000 HD
BRANCH  11  22
ATOM     22  O   UNL     1       4.147   4.494  19.616  0.00  0.00    +0.000 OA
BRANCH  22  24
ATOM     23  C   UNL     1       6.385   5.218  19.182  0.00  0.00    +0.000 C 
ATOM     24  C   UNL     1       5.148   4.556  18.600  0.00  0.00    +0.000 C 
ENDBRANCH  22  24
ENDBRANCH  11  22
ENDBRANCH   1  17
BRANCH   2  25
ATOM     25  N   UNL     1       1.805  12.887  19.967  0.00  0.00    +0.000 N 
ATOM     26  O   UNL     1       2.283  13.027  21.101  0.00  0.00    +0.000 OA
ATOM     27  O   UNL     1       2.446  12.873  18.908  0.00  0.00    +0.000 OA
ENDBRANCH   2  25
BRANCH   4  28
ATOM     28  N   UNL     1      -2.701  14.101  21.482  0.00  0.00    +0.000 N 
ATOM     29  O   UNL     1      -2.861  15.272  21.115  0.00  0.00    +0.000 OA
ATOM     30  O   UNL     1      -3.154  13.591  22.510  0.00  0.00    +0.000 OA
ENDBRANCH   4  28
TORSDOF 5
ENDMDL
MODEL 8
REMARK VINA RESULT:      -6.1      1.851      3.859
REMARK  Name = 
REMARK  6 active torsions:
REMARK  status: ('A' for Active; 'I' for Inactive)
REMARK    1  A    between atoms: C_1  and  C_2
REMARK    2  A    between atoms: C_2  and  O_3
REMARK    3  A    between atoms: O_3  and  C_4
REMARK    4  A    between atoms: N_10  and  C_11
REMARK    5  A    between atoms: C_12  and  N_13
REMARK    6  A    between atoms: C_17  and  N_18
REMARK                            x       y       z     vdW  Elec       q    Type
REMARK                         _______ _______ _______ _____ _____    ______ ____
ROOT
ATOM      1  C   UNL     1      -1.931  13.514  21.304  0.00  0.00    +0.000 A 
ATOM      2  C   UNL     1      -3.259  13.470  21.843  0.00  0.00    +0.000 A 
ATOM      3  C   UNL     1      -3.690  14.103  23.054  0.00  0.00    +0.000 A 
ATOM      4  C   UNL     1      -2.794  14.850  23.830  0.00  0.00    +0.000 A 
ATOM      5  C   UNL     1      -1.462  14.920  23.394  0.00  0.00    +0.000 A 
ATOM      6  N   UNL     1      -0.382  15.503  23.934  0.00  0.00    +0.000 NA
ATOM      7  O   UNL     1       0.692  15.255  23.090  0.00  0.00    +0.000 OA
ATOM      8  N   UNL     1       0.220  14.481  21.986  0.00  0.00    +0.000 N 
ATOM      9  O   UNL     1       1.063  14.133  21.126  0.00  0.00    +0.000 OA
ATOM     10  C   UNL     1      -1.084  14.250  22.157  0.00  0.00    +0.000 A 
ENDROOT
BRANCH   1  17
ATOM     11  C   UNL     1       1.883   7.843  19.759  0.00  0.00    +0.000 A 
ATOM     12  C   UNL     1       1.384   7.782  21.059  0.00  0.00    +0.000 A 
ATOM     13  C   UNL     1       0.539   8.788  21.548  0.00  0.00    +0.000 A 
ATOM     14  C   UNL     1       0.176   9.868  20.720  0.00  0.00    +0.000 A 
ATOM     15  N   UNL     1      -0.626  10.937  21.080  0.00  0.00    +0.000 NA
ATOM     16  C   UNL     1      -0.769  11.763  20.071  0.00  0.00    +0.000 A 
ATOM     17  N   UNL     1      -1.489  12.919  20.117  0.00  0.00    +0.000 N 
ATOM     18  S   UNL     1       0.006  11.278  18.615  0.00  0.00    +0.000 S 
ATOM     19  C   UNL     1       0.657   9.897  19.412  0.00  0.00    +0.000 A 
ATOM     20  C   UNL     1       1.521   8.905  18.919  0.00  0.00    +0.000 A 
ATOM     21  H   UNL     1      -2.085  13.061  19.299  0.00  0.00    +0.000 HD
BRANCH  11  22
ATOM     22  O   UNL     1       2.726   6.928  19.186  0.00  0.00    +0.000 OA
BRANCH  22  24
ATOM     23  C   UNL     1       2.021   4.995  17.966  0.00  0.00    +0.000 C 
ATOM     24  C   UNL     1       2.384   5.550  19.333  0.00  0.00    +0.000 C 
ENDBRANCH  22  24
ENDBRANCH  11  22
ENDBRANCH   1  17
BRANCH   2  25
ATOM     25  N   UNL     1      -4.270  12.611  21.223  0.00  0.00    +0.000 N 
ATOM     26  O   UNL     1      -5.135  12.130  21.968  0.00  0.00    +0.000 OA
ATOM     27  O   UNL     1      -4.248  12.525  19.988  0.00  0.00    +0.000 OA
ENDBRANCH   2  25
BRANCH   4  28
ATOM     28  N   UNL     1      -3.187  15.467  25.063  0.00  0.00    +0.000 N 
ATOM     29  O   UNL     1      -2.768  14.938  26.100  0.00  0.00    +0.000 OA
ATOM     30  O   UNL     1      -3.956  16.430  24.994  0.00  0.00    +0.000 OA
ENDBRANCH   4  28
TORSDOF 5
ENDMDL
MODEL 9
REMARK VINA RESULT:      -6.1      4.452      7.002
REMARK  Name = 
REMARK  6 active torsions:
REMARK  status: ('A' for Active; 'I' for Inactive)
REMARK    1  A    between atoms: C_1  and  C_2
REMARK    2  A    between atoms: C_2  and  O_3
REMARK    3  A    between atoms: O_3  and  C_4
REMARK    4  A    between atoms: N_10  and  C_11
REMARK    5  A    between atoms: C_12  and  N_13
REMARK    6  A    between atoms: C_17  and  N_18
REMARK                            x       y       z     vdW  Elec       q    Type
REMARK                         _______ _______ _______ _____ _____    ______ ____
ROOT
ATOM      1  C   UNL     1      -2.495  11.648  18.789  0.00  0.00    +0.000 A 
ATOM      2  C   UNL     1      -3.222  11.411  17.576  0.00  0.00    +0.000 A 
ATOM      3  C   UNL     1      -4.605  11.713  17.360  0.00  0.00    +0.000 A 
ATOM      4  C   UNL     1      -5.379  12.294  18.374  0.00  0.00    +0.000 A 
ATOM      5  C   UNL     1      -4.756  12.531  19.609  0.00  0.00    +0.000 A 
ATOM      6  N   UNL     1      -5.233  13.018  20.763  0.00  0.00    +0.000 NA
ATOM      7  O   UNL     1      -4.186  13.033  21.674  0.00  0.00    +0.000 OA
ATOM      8  N   UNL     1      -3.021  12.525  21.021  0.00  0.00    +0.000 N 
ATOM      9  O   UNL     1      -1.973  12.436  21.702  0.00  0.00    +0.000 OA
ATOM     10  C   UNL     1      -3.347  12.197  19.768  0.00  0.00    +0.000 A 
ENDROOT
BRANCH   1  17
ATOM     11  C   UNL     1       3.417  15.379  18.321  0.00  0.00    +0.000 A 
ATOM     12  C   UNL     1       2.297  16.206  18.374  0.00  0.00    +0.000 A 
ATOM     13  C   UNL     1       1.015  15.663  18.536  0.00  0.00    +0.000 A 
ATOM     14  C   UNL     1       0.850  14.269  18.658  0.00  0.00    +0.000 A 
ATOM     15  N   UNL     1      -0.354  13.600  18.796  0.00  0.00    +0.000 NA
ATOM     16  C   UNL     1      -0.151  12.307  18.892  0.00  0.00    +0.000 A 
ATOM     17  N   UNL     1      -1.141  11.379  19.020  0.00  0.00    +0.000 N 
ATOM     18  S   UNL     1       1.499  11.824  18.874  0.00  0.00    +0.000 S 
ATOM     19  C   UNL     1       1.984  13.459  18.636  0.00  0.00    +0.000 A 
ATOM     20  C   UNL     1       3.271  13.992  18.455  0.00  0.00    +0.000 A 
ATOM     21  H   UNL     1      -0.942  10.666  19.726  0.00  0.00    +0.000 HD
BRANCH  11  22
ATOM     22  O   UNL     1       4.710  15.799  18.150  0.00  0.00    +0.000 OA
BRANCH  22  24
ATOM     23  C   UNL     1       7.061  15.356  18.175  0.00  0.00    +0.000 C 
ATOM     24  C   UNL     1       5.684  14.798  17.855  0.00  0.00    +0.000 C 
ENDBRANCH  22  24
ENDBRANCH  11  22
ENDBRANCH   1  17
BRANCH   2  25
ATOM     25  N   UNL     1      -2.589  10.679  16.477  0.00  0.00    +0.000 N 
ATOM     26  O   UNL     1      -1.887   9.705  16.780  0.00  0.00    +0.000 OA
ATOM     27  O   UNL     1      -2.896  11.023  15.327  0.00  0.00    +0.000 OA
ENDBRANCH   2  25
BRANCH   4  28
ATOM     28  N   UNL     1      -6.774  12.575  18.199  0.00  0.00    +0.000 N 
ATOM     29  O   UNL     1      -7.564  11.834  18.797  0.00  0.00    +0.000 OA
ATOM     30  O   UNL     1      -7.074  13.487  17.423  0.00  0.00    +0.000 OA
ENDBRANCH   4  28
TORSDOF 5
ENDMDL
