MODEL 1
REMARK VINA RESULT:      -7.8      0.000      0.000
REMARK  Name = 
REMARK  8 active torsions:
REMARK  status: ('A' for Active; 'I' for Inactive)
REMARK    1  A    between atoms: C_2  and  C_3
REMARK    2  A    between atoms: C_2  and  C_11
REMARK    3  A    between atoms: C_4  and  C_5
REMARK    4  A    between atoms: C_14  and  O_15
REMARK    5  A    between atoms: O_15  and  C_16
REMARK    6  A    between atoms: C_16  and  C_17
REMARK    7  A    between atoms: C_17  and  C_18
REMARK    8  A    between atoms: C_18  and  N_19
REMARK                            x       y       z     vdW  Elec       q    Type
REMARK                         _______ _______ _______ _____ _____    ______ ____
ROOT
ATOM      1  C   UNL     1       6.563   5.388  17.363  0.00  0.00    +0.000 A 
ATOM      2  C   UNL     1       7.366   5.188  18.495  0.00  0.00    +0.000 A 
ATOM      3  C   UNL     1       8.131   6.231  19.014  0.00  0.00    +0.000 A 
ATOM      4  C   UNL     1       8.089   7.485  18.417  0.00  0.00    +0.000 A 
ATOM      5  C   UNL     1       7.281   7.691  17.292  0.00  0.00    +0.000 A 
ATOM      6  C   UNL     1       6.516   6.649  16.766  0.00  0.00    +0.000 A 
ENDROOT
BRANCH   1   8
ATOM      7  O   UNL     1       5.828   3.940  15.640  0.00  0.00    +0.000 OA
ATOM      8  C   UNL     1       5.712   4.302  16.808  0.00  0.00    +0.000 C 
BRANCH   8   9
ATOM      9  C   UNL     1       4.726   3.685  17.723  0.00  0.00    +0.000 C 
ATOM     10  C   UNL     1       3.882   4.458  18.421  0.00  0.00    +0.000 C 
BRANCH  10  11
ATOM     11  C   UNL     1       2.952   3.899  19.405  0.00  0.00    +0.000 A 
ATOM     12  C   UNL     1       1.597   4.210  19.346  0.00  0.00    +0.000 A 
ATOM     13  C   UNL     1       0.745   3.676  20.310  0.00  0.00    +0.000 A 
ATOM     14  C   UNL     1       1.269   2.855  21.300  0.00  0.00    +0.000 A 
ATOM     15  C   UNL     1       2.629   2.599  21.288  0.00  0.00    +0.000 A 
ATOM     16  N   UNL     1       3.477   3.104  20.368  0.00  0.00    +0.000 NA
ENDBRANCH  10  11
ENDBRANCH   8   9
ENDBRANCH   1   8
BRANCH   4  17
ATOM     17  O   UNL     1       8.779   8.579  18.834  0.00  0.00    +0.000 OA
BRANCH  17  18
ATOM     18  C   UNL     1       8.543   9.837  18.185  0.00  0.00    +0.000 C 
BRANCH  18  19
ATOM     19  C   UNL     1       9.631  10.744  18.736  0.00  0.00    +0.000 C 
BRANCH  19  20
ATOM     20  C   UNL     1       9.326  12.243  18.790  0.00  0.00    +0.000 C 
BRANCH  20  21
ATOM     21  N   UNL     1      10.565  13.000  19.068  0.00  0.00    +0.000 NA
ATOM     22  C   UNL     1      10.365  14.465  19.114  0.00  0.00    +0.000 C 
ATOM     23  C   UNL     1      10.291  15.168  17.740  0.00  0.00    +0.000 C 
ATOM     24  O   UNL     1      11.332  14.768  16.839  0.00  0.00    +0.000 OA
ATOM     25  C   UNL     1      11.392  13.342  16.730  0.00  0.00    +0.000 C 
ATOM     26  C   UNL     1      11.663  12.735  18.110  0.00  0.00    +0.000 C 
ENDBRANCH  20  21
ENDBRANCH  19  20
ENDBRANCH  18  19
ENDBRANCH  17  18
ENDBRANCH   4  17
TORSDOF 8
ENDMDL
MODEL 2
REMARK VINA RESULT:      -7.4      1.066      1.484
REMARK  Name = 
REMARK  8 active torsions:
REMARK  status: ('A' for Active; 'I' for Inactive)
REMARK    1  A    between atoms: C_2  and  C_3
REMARK    2  A    between atoms: C_2  and  C_11
REMARK    3  A    between atoms: C_4  and  C_5
REMARK    4  A    between atoms: C_14  and  O_15
REMARK    5  A    between atoms: O_15  and  C_16
REMARK    6  A    between atoms: C_16  and  C_17
REMARK    7  A    between atoms: C_17  and  C_18
REMARK    8  A    between atoms: C_18  and  N_19
REMARK                            x       y       z     vdW  Elec       q    Type
REMARK                         _______ _______ _______ _____ _____    ______ ____
ROOT
ATOM      1  C   UNL     1       6.401   5.473  16.877  0.00  0.00    +0.000 A 
ATOM      2  C   UNL     1       7.302   5.017  17.850  0.00  0.00    +0.000 A 
ATOM      3  C   UNL     1       8.079   5.917  18.576  0.00  0.00    +0.000 A 
ATOM      4  C   UNL     1       7.953   7.282  18.346  0.00  0.00    +0.000 A 
ATOM      5  C   UNL     1       7.048   7.744  17.382  0.00  0.00    +0.000 A 
ATOM      6  C   UNL     1       6.270   6.845  16.651  0.00  0.00    +0.000 A 
ENDROOT
BRANCH   1   8
ATOM      7  O   UNL     1       5.744   4.309  14.923  0.00  0.00    +0.000 OA
ATOM      8  C   UNL     1       5.536   4.536  16.112  0.00  0.00    +0.000 C 
BRANCH   8   9
ATOM      9  C   UNL     1       4.420   3.899  16.847  0.00  0.00    +0.000 C 
ATOM     10  C   UNL     1       3.672   4.622  17.690  0.00  0.00    +0.000 C 
BRANCH  10  11
ATOM     11  C   UNL     1       2.616   4.015  18.506  0.00  0.00    +0.000 A 
ATOM     12  C   UNL     1       1.853   2.968  18.000  0.00  0.00    +0.000 A 
ATOM     13  C   UNL     1       0.844   2.429  18.796  0.00  0.00    +0.000 A 
ATOM     14  C   UNL     1       0.628   2.951  20.064  0.00  0.00    +0.000 A 
ATOM     15  C   UNL     1       1.430   3.995  20.489  0.00  0.00    +0.000 A 
ATOM     16  N   UNL     1       2.412   4.538  19.739  0.00  0.00    +0.000 NA
ENDBRANCH  10  11
ENDBRANCH   8   9
ENDBRANCH   1   8
BRANCH   4  17
ATOM     17  O   UNL     1       8.646   8.256  18.993  0.00  0.00    +0.000 OA
BRANCH  17  18
ATOM     18  C   UNL     1       8.886   9.500  18.319  0.00  0.00    +0.000 C 
BRANCH  18  19
ATOM     19  C   UNL     1       9.201  10.472  19.444  0.00  0.00    +0.000 C 
BRANCH  19  20
ATOM     20  C   UNL     1      10.407  11.394  19.249  0.00  0.00    +0.000 C 
BRANCH  20  21
ATOM     21  N   UNL     1      10.083  12.445  18.261  0.00  0.00    +0.000 NA
ATOM     22  C   UNL     1      11.158  12.677  17.272  0.00  0.00    +0.000 C 
ATOM     23  C   UNL     1      12.332  13.555  17.760  0.00  0.00    +0.000 C 
ATOM     24  O   UNL     1      11.909  14.752  18.427  0.00  0.00    +0.000 OA
ATOM     25  C   UNL     1      10.969  14.453  19.465  0.00  0.00    +0.000 C 
ATOM     26  C   UNL     1       9.746  13.757  18.861  0.00  0.00    +0.000 C 
ENDBRANCH  20  21
ENDBRANCH  19  20
ENDBRANCH  18  19
ENDBRANCH  17  18
ENDBRANCH   4  17
TORSDOF 8
ENDMDL
MODEL 3
REMARK VINA RESULT:      -7.4      6.179     10.025
REMARK  Name = 
REMARK  8 active torsions:
REMARK  status: ('A' for Active; 'I' for Inactive)
REMARK    1  A    between atoms: C_2  and  C_3
REMARK    2  A    between atoms: C_2  and  C_11
REMARK    3  A    between atoms: C_4  and  C_5
REMARK    4  A    between atoms: C_14  and  O_15
REMARK    5  A    between atoms: O_15  and  C_16
REMARK    6  A    between atoms: C_16  and  C_17
REMARK    7  A    between atoms: C_17  and  C_18
REMARK    8  A    between atoms: C_18  and  N_19
REMARK                            x       y       z     vdW  Elec       q    Type
REMARK                         _______ _______ _______ _____ _____    ______ ____
ROOT
ATOM      1  C   UNL     1       1.804   8.511  19.085  0.00  0.00    +0.000 A 
ATOM      2  C   UNL     1       1.973   7.476  20.015  0.00  0.00    +0.000 A 
ATOM      3  C   UNL     1       2.848   6.423  19.754  0.00  0.00    +0.000 A 
ATOM      4  C   UNL     1       3.573   6.403  18.568  0.00  0.00    +0.000 A 
ATOM      5  C   UNL     1       3.415   7.440  17.640  0.00  0.00    +0.000 A 
ATOM      6  C   UNL     1       2.537   8.494  17.896  0.00  0.00    +0.000 A 
ENDROOT
BRANCH   1   8
ATOM      7  O   UNL     1       0.987  10.305  20.396  0.00  0.00    +0.000 OA
ATOM      8  C   UNL     1       0.902   9.662  19.353  0.00  0.00    +0.000 C 
BRANCH   8   9
ATOM      9  C   UNL     1      -0.096   9.992  18.311  0.00  0.00    +0.000 C 
ATOM     10  C   UNL     1      -1.298  10.471  18.660  0.00  0.00    +0.000 C 
BRANCH  10  11
ATOM     11  C   UNL     1      -2.349  10.726  17.671  0.00  0.00    +0.000 A 
ATOM     12  C   UNL     1      -3.529  11.359  18.047  0.00  0.00    +0.000 A 
ATOM     13  C   UNL     1      -4.514  11.567  17.084  0.00  0.00    +0.000 A 
ATOM     14  C   UNL     1      -4.293  11.136  15.783  0.00  0.00    +0.000 A 
ATOM     15  C   UNL     1      -3.093  10.511  15.494  0.00  0.00    +0.000 A 
ATOM     16  N   UNL     1      -2.122  10.294  16.406  0.00  0.00    +0.000 NA
ENDBRANCH  10  11
ENDBRANCH   8   9
ENDBRANCH   1   8
BRANCH   4  17
ATOM     17  O   UNL     1       4.460   5.440  18.205  0.00  0.00    +0.000 OA
BRANCH  17  18
ATOM     18  C   UNL     1       4.513   5.029  16.830  0.00  0.00    +0.000 C 
BRANCH  18  19
ATOM     19  C   UNL     1       3.891   3.642  16.839  0.00  0.00    +0.000 C 
BRANCH  19  20
ATOM     20  C   UNL     1       2.439   3.534  17.313  0.00  0.00    +0.000 C 
BRANCH  20  21
ATOM     21  N   UNL     1       2.237   2.258  18.031  0.00  0.00    +0.000 NA
ATOM     22  C   UNL     1       0.994   2.220  18.832  0.00  0.00    +0.000 C 
ATOM     23  C   UNL     1       1.065   2.934  20.200  0.00  0.00    +0.000 C 
ATOM     24  O   UNL     1       2.235   2.597  20.958  0.00  0.00    +0.000 OA
ATOM     25  C   UNL     1       3.420   2.781  20.174  0.00  0.00    +0.000 C 
ATOM     26  C   UNL     1       3.353   1.887  18.932  0.00  0.00    +0.000 C 
ENDBRANCH  20  21
ENDBRANCH  19  20
ENDBRANCH  18  19
ENDBRANCH  17  18
ENDBRANCH   4  17
TORSDOF 8
ENDMDL
MODEL 4
REMARK VINA RESULT:      -7.3      6.257     10.078
REMARK  Name = 
REMARK  8 active torsions:
REMARK  status: ('A' for Active; 'I' for Inactive)
REMARK    1  A    between atoms: C_2  and  C_3
REMARK    2  A    between atoms: C_2  and  C_11
REMARK    3  A    between atoms: C_4  and  C_5
REMARK    4  A    between atoms: C_14  and  O_15
REMARK    5  A    between atoms: O_15  and  C_16
REMARK    6  A    between atoms: C_16  and  C_17
REMARK    7  A    between atoms: C_17  and  C_18
REMARK    8  A    between atoms: C_18  and  N_19
REMARK                            x       y       z     vdW  Elec       q    Type
REMARK                         _______ _______ _______ _____ _____    ______ ____
ROOT
ATOM      1  C   UNL     1       1.606   8.885  19.185  0.00  0.00    +0.000 A 
ATOM      2  C   UNL     1       2.287   8.813  17.961  0.00  0.00    +0.000 A 
ATOM      3  C   UNL     1       3.108   7.725  17.669  0.00  0.00    +0.000 A 
ATOM      4  C   UNL     1       3.245   6.693  18.590  0.00  0.00    +0.000 A 
ATOM      5  C   UNL     1       2.559   6.757  19.810  0.00  0.00    +0.000 A 
ATOM      6  C   UNL     1       1.739   7.846  20.108  0.00  0.00    +0.000 A 
ENDROOT
BRANCH   1   8
ATOM      7  O   UNL     1       0.736  10.566  20.607  0.00  0.00    +0.000 OA
ATOM      8  C   UNL     1       0.699  10.018  19.509  0.00  0.00    +0.000 C 
BRANCH   8   9
ATOM      9  C   UNL     1      -0.245  10.447  18.452  0.00  0.00    +0.000 C 
ATOM     10  C   UNL     1      -1.540  10.112  18.533  0.00  0.00    +0.000 C 
BRANCH  10  11
ATOM     11  C   UNL     1      -2.492  10.437  17.467  0.00  0.00    +0.000 A 
ATOM     12  C   UNL     1      -3.677  11.102  17.764  0.00  0.00    +0.000 A 
ATOM     13  C   UNL     1      -4.569  11.376  16.728  0.00  0.00    +0.000 A 
ATOM     14  C   UNL     1      -4.252  10.977  15.437  0.00  0.00    +0.000 A 
ATOM     15  C   UNL     1      -3.054  10.317  15.229  0.00  0.00    +0.000 A 
ATOM     16  N   UNL     1      -2.174  10.036  16.212  0.00  0.00    +0.000 NA
ENDBRANCH  10  11
ENDBRANCH   8   9
ENDBRANCH   1   8
BRANCH   4  17
ATOM     17  O   UNL     1       4.005   5.581  18.418  0.00  0.00    +0.000 OA
BRANCH  17  18
ATOM     18  C   UNL     1       3.874   4.833  17.200  0.00  0.00    +0.000 C 
BRANCH  18  19
ATOM     19  C   UNL     1       3.868   3.384  17.658  0.00  0.00    +0.000 C 
BRANCH  19  20
ATOM     20  C   UNL     1       4.243   3.115  19.118  0.00  0.00    +0.000 C 
BRANCH  20  21
ATOM     21  N   UNL     1       3.276   2.174  19.721  0.00  0.00    +0.000 NA
ATOM     22  C   UNL     1       1.958   2.169  19.049  0.00  0.00    +0.000 C 
ATOM     23  C   UNL     1       1.012   3.328  19.434  0.00  0.00    +0.000 C 
ATOM     24  O   UNL     1       0.923   3.543  20.849  0.00  0.00    +0.000 OA
ATOM     25  C   UNL     1       2.226   3.675  21.428  0.00  0.00    +0.000 C 
ATOM     26  C   UNL     1       3.032   2.399  21.165  0.00  0.00    +0.000 C 
ENDBRANCH  20  21
ENDBRANCH  19  20
ENDBRANCH  18  19
ENDBRANCH  17  18
ENDBRANCH   4  17
TORSDOF 8
ENDMDL
MODEL 5
REMARK VINA RESULT:      -7.3      6.185      8.669
REMARK  Name = 
REMARK  8 active torsions:
REMARK  status: ('A' for Active; 'I' for Inactive)
REMARK    1  A    between atoms: C_2  and  C_3
REMARK    2  A    between atoms: C_2  and  C_11
REMARK    3  A    between atoms: C_4  and  C_5
REMARK    4  A    between atoms: C_14  and  O_15
REMARK    5  A    between atoms: O_15  and  C_16
REMARK    6  A    between atoms: C_16  and  C_17
REMARK    7  A    between atoms: C_17  and  C_18
REMARK    8  A    between atoms: C_18  and  N_19
REMARK                            x       y       z     vdW  Elec       q    Type
REMARK                         _______ _______ _______ _____ _____    ______ ____
ROOT
ATOM      1  C   UNL     1       1.246   9.396  19.297  0.00  0.00    +0.000 A 
ATOM      2  C   UNL     1       1.291   8.659  20.489  0.00  0.00    +0.000 A 
ATOM      3  C   UNL     1       1.861   7.387  20.515  0.00  0.00    +0.000 A 
ATOM      4  C   UNL     1       2.404   6.848  19.355  0.00  0.00    +0.000 A 
ATOM      5  C   UNL     1       2.370   7.585  18.165  0.00  0.00    +0.000 A 
ATOM      6  C   UNL     1       1.798   8.857  18.133  0.00  0.00    +0.000 A 
ENDROOT
BRANCH   1   8
ATOM      7  O   UNL     1       1.235  11.709  19.801  0.00  0.00    +0.000 OA
ATOM      8  C   UNL     1       0.673  10.768  19.248  0.00  0.00    +0.000 C 
BRANCH   8   9
ATOM      9  C   UNL     1      -0.598  10.941  18.510  0.00  0.00    +0.000 C 
ATOM     10  C   UNL     1      -1.667  11.463  19.126  0.00  0.00    +0.000 C 
BRANCH  10  11
ATOM     11  C   UNL     1      -2.969  11.570  18.463  0.00  0.00    +0.000 A 
ATOM     12  C   UNL     1      -3.126  11.139  17.150  0.00  0.00    +0.000 A 
ATOM     13  C   UNL     1      -4.373  11.274  16.545  0.00  0.00    +0.000 A 
ATOM     14  C   UNL     1      -5.420  11.836  17.265  0.00  0.00    +0.000 A 
ATOM     15  C   UNL     1      -5.178  12.242  18.565  0.00  0.00    +0.000 A 
ATOM     16  N   UNL     1      -3.980  12.125  19.175  0.00  0.00    +0.000 NA
ENDBRANCH  10  11
ENDBRANCH   8   9
ENDBRANCH   1   8
BRANCH   4  17
ATOM     17  O   UNL     1       2.993   5.628  19.256  0.00  0.00    +0.000 OA
BRANCH  17  18
ATOM     18  C   UNL     1       3.374   5.145  17.959  0.00  0.00    +0.000 C 
BRANCH  18  19
ATOM     19  C   UNL     1       4.716   4.472  18.198  0.00  0.00    +0.000 C 
BRANCH  19  20
ATOM     20  C   UNL     1       5.676   5.161  19.172  0.00  0.00    +0.000 C 
BRANCH  20  21
ATOM     21  N   UNL     1       7.068   5.014  18.695  0.00  0.00    +0.000 NA
ATOM     22  C   UNL     1       7.885   6.234  18.873  0.00  0.00    +0.000 C 
ATOM     23  C   UNL     1       7.679   7.333  17.807  0.00  0.00    +0.000 C 
ATOM     24  O   UNL     1       7.695   6.833  16.463  0.00  0.00    +0.000 OA
ATOM     25  C   UNL     1       6.785   5.738  16.315  0.00  0.00    +0.000 C 
ATOM     26  C   UNL     1       7.182   4.611  17.275  0.00  0.00    +0.000 C 
ENDBRANCH  20  21
ENDBRANCH  19  20
ENDBRANCH  18  19
ENDBRANCH  17  18
ENDBRANCH   4  17
TORSDOF 8
ENDMDL
MODEL 6
REMARK VINA RESULT:      -7.3      0.736      1.437
REMARK  Name = 
REMARK  8 active torsions:
REMARK  status: ('A' for Active; 'I' for Inactive)
REMARK    1  A    between atoms: C_2  and  C_3
REMARK    2  A    between atoms: C_2  and  C_11
REMARK    3  A    between atoms: C_4  and  C_5
REMARK    4  A    between atoms: C_14  and  O_15
REMARK    5  A    between atoms: O_15  and  C_16
REMARK    6  A    between atoms: C_16  and  C_17
REMARK    7  A    between atoms: C_17  and  C_18
REMARK    8  A    between atoms: C_18  and  N_19
REMARK                            x       y       z     vdW  Elec       q    Type
REMARK                         _______ _______ _______ _____ _____    ______ ____
ROOT
ATOM      1  C   UNL     1       6.617   5.581  17.429  0.00  0.00    +0.000 A 
ATOM      2  C   UNL     1       6.501   6.832  16.806  0.00  0.00    +0.000 A 
ATOM      3  C   UNL     1       7.241   7.922  17.262  0.00  0.00    +0.000 A 
ATOM      4  C   UNL     1       8.113   7.769  18.333  0.00  0.00    +0.000 A 
ATOM      5  C   UNL     1       8.238   6.518  18.952  0.00  0.00    +0.000 A 
ATOM      6  C   UNL     1       7.497   5.425  18.501  0.00  0.00    +0.000 A 
ENDROOT
BRANCH   1   8
ATOM      7  O   UNL     1       6.022   3.968  15.801  0.00  0.00    +0.000 OA
ATOM      8  C   UNL     1       5.865   4.394  16.942  0.00  0.00    +0.000 C 
BRANCH   8   9
ATOM      9  C   UNL     1       4.922   3.759  17.891  0.00  0.00    +0.000 C 
ATOM     10  C   UNL     1       3.848   4.434  18.323  0.00  0.00    +0.000 C 
BRANCH  10  11
ATOM     11  C   UNL     1       2.938   3.880  19.330  0.00  0.00    +0.000 A 
ATOM     12  C   UNL     1       1.570   4.111  19.242  0.00  0.00    +0.000 A 
ATOM     13  C   UNL     1       0.737   3.587  20.228  0.00  0.00    +0.000 A 
ATOM     14  C   UNL     1       1.294   2.854  21.268  0.00  0.00    +0.000 A 
ATOM     15  C   UNL     1       2.666   2.674  21.282  0.00  0.00    +0.000 A 
ATOM     16  N   UNL     1       3.496   3.172  20.342  0.00  0.00    +0.000 NA
ENDBRANCH  10  11
ENDBRANCH   8   9
ENDBRANCH   1   8
BRANCH   4  17
ATOM     17  O   UNL     1       8.891   8.749  18.861  0.00  0.00    +0.000 OA
BRANCH  17  18
ATOM     18  C   UNL     1       8.559  10.119  18.590  0.00  0.00    +0.000 C 
BRANCH  18  19
ATOM     19  C   UNL     1       9.872  10.729  18.126  0.00  0.00    +0.000 C 
BRANCH  19  20
ATOM     20  C   UNL     1       9.855  12.215  17.754  0.00  0.00    +0.000 C 
BRANCH  20  21
ATOM     21  N   UNL     1      11.238  12.731  17.685  0.00  0.00    +0.000 NA
ATOM     22  C   UNL     1      11.891  12.852  19.006  0.00  0.00    +0.000 C 
ATOM     23  C   UNL     1      11.507  14.105  19.825  0.00  0.00    +0.000 C 
ATOM     24  O   UNL     1      11.548  15.318  19.061  0.00  0.00    +0.000 OA
ATOM     25  C   UNL     1      10.788  15.188  17.855  0.00  0.00    +0.000 C 
ATOM     26  C   UNL     1      11.361  14.045  17.011  0.00  0.00    +0.000 C 
ENDBRANCH  20  21
ENDBRANCH  19  20
ENDBRANCH  18  19
ENDBRANCH  17  18
ENDBRANCH   4  17
TORSDOF 8
ENDMDL
MODEL 7
REMARK VINA RESULT:      -7.3      1.057      1.203
REMARK  Name = 
REMARK  8 active torsions:
REMARK  status: ('A' for Active; 'I' for Inactive)
REMARK    1  A    between atoms: C_2  and  C_3
REMARK    2  A    between atoms: C_2  and  C_11
REMARK    3  A    between atoms: C_4  and  C_5
REMARK    4  A    between atoms: C_14  and  O_15
REMARK    5  A    between atoms: O_15  and  C_16
REMARK    6  A    between atoms: C_16  and  C_17
REMARK    7  A    between atoms: C_17  and  C_18
REMARK    8  A    between atoms: C_18  and  N_19
REMARK                            x       y       z     vdW  Elec       q    Type
REMARK                         _______ _______ _______ _____ _____    ______ ____
ROOT
ATOM      1  C   UNL     1       6.474   5.024  17.124  0.00  0.00    +0.000 A 
ATOM      2  C   UNL     1       7.295   4.776  18.233  0.00  0.00    +0.000 A 
ATOM      3  C   UNL     1       8.019   5.810  18.825  0.00  0.00    +0.000 A 
ATOM      4  C   UNL     1       7.917   7.102  18.324  0.00  0.00    +0.000 A 
ATOM      5  C   UNL     1       7.090   7.356  17.222  0.00  0.00    +0.000 A 
ATOM      6  C   UNL     1       6.366   6.323  16.624  0.00  0.00    +0.000 A 
ENDROOT
BRANCH   1   8
ATOM      7  O   UNL     1       6.075   3.342  15.507  0.00  0.00    +0.000 OA
ATOM      8  C   UNL     1       5.666   3.946  16.494  0.00  0.00    +0.000 C 
BRANCH   8   9
ATOM      9  C   UNL     1       4.354   3.641  17.110  0.00  0.00    +0.000 C 
ATOM     10  C   UNL     1       4.009   4.213  18.271  0.00  0.00    +0.000 C 
BRANCH  10  11
ATOM     11  C   UNL     1       2.761   3.873  18.962  0.00  0.00    +0.000 A 
ATOM     12  C   UNL     1       2.004   2.783  18.548  0.00  0.00    +0.000 A 
ATOM     13  C   UNL     1       0.814   2.501  19.215  0.00  0.00    +0.000 A 
ATOM     14  C   UNL     1       0.417   3.316  20.268  0.00  0.00    +0.000 A 
ATOM     15  C   UNL     1       1.227   4.383  20.613  0.00  0.00    +0.000 A 
ATOM     16  N   UNL     1       2.383   4.680  19.983  0.00  0.00    +0.000 NA
ENDBRANCH  10  11
ENDBRANCH   8   9
ENDBRANCH   1   8
BRANCH   4  17
ATOM     17  O   UNL     1       8.562   8.191  18.817  0.00  0.00    +0.000 OA
BRANCH  17  18
ATOM     18  C   UNL     1       8.387   9.457  18.163  0.00  0.00    +0.000 C 
BRANCH  18  19
ATOM     19  C   UNL     1       9.448  10.344  18.793  0.00  0.00    +0.000 C 
BRANCH  19  20
ATOM     20  C   UNL     1       9.701  11.702  18.132  0.00  0.00    +0.000 C 
BRANCH  20  21
ATOM     21  N   UNL     1       9.801  12.754  19.165  0.00  0.00    +0.000 NA
ATOM     22  C   UNL     1       8.624  13.650  19.212  0.00  0.00    +0.000 C 
ATOM     23  C   UNL     1       8.593  14.762  18.140  0.00  0.00    +0.000 C 
ATOM     24  O   UNL     1       9.836  15.467  18.015  0.00  0.00    +0.000 OA
ATOM     25  C   UNL     1      10.924  14.555  17.838  0.00  0.00    +0.000 C 
ATOM     26  C   UNL     1      11.002  13.612  19.043  0.00  0.00    +0.000 C 
ENDBRANCH  20  21
ENDBRANCH  19  20
ENDBRANCH  18  19
ENDBRANCH  17  18
ENDBRANCH   4  17
TORSDOF 8
ENDMDL
MODEL 8
REMARK VINA RESULT:      -7.1      6.220      9.204
REMARK  Name = 
REMARK  8 active torsions:
REMARK  status: ('A' for Active; 'I' for Inactive)
REMARK    1  A    between atoms: C_2  and  C_3
REMARK    2  A    between atoms: C_2  and  C_11
REMARK    3  A    between atoms: C_4  and  C_5
REMARK    4  A    between atoms: C_14  and  O_15
REMARK    5  A    between atoms: O_15  and  C_16
REMARK    6  A    between atoms: C_16  and  C_17
REMARK    7  A    between atoms: C_17  and  C_18
REMARK    8  A    between atoms: C_18  and  N_19
REMARK                            x       y       z     vdW  Elec       q    Type
REMARK                         _______ _______ _______ _____ _____    ______ ____
ROOT
ATOM      1  C   UNL     1       1.059   9.501  20.027  0.00  0.00    +0.000 A 
ATOM      2  C   UNL     1       1.597   9.310  18.745  0.00  0.00    +0.000 A 
ATOM      3  C   UNL     1       2.219   8.109  18.409  0.00  0.00    +0.000 A 
ATOM      4  C   UNL     1       2.296   7.084  19.344  0.00  0.00    +0.000 A 
ATOM      5  C   UNL     1       1.753   7.267  20.622  0.00  0.00    +0.000 A 
ATOM      6  C   UNL     1       1.132   8.469  20.964  0.00  0.00    +0.000 A 
ENDROOT
BRANCH   1   8
ATOM      7  O   UNL     1       0.945  11.650  21.014  0.00  0.00    +0.000 OA
ATOM      8  C   UNL     1       0.362  10.760  20.401  0.00  0.00    +0.000 C 
BRANCH   8   9
ATOM      9  C   UNL     1      -1.059  10.886  20.004  0.00  0.00    +0.000 C 
ATOM     10  C   UNL     1      -1.377  11.277  18.762  0.00  0.00    +0.000 C 
BRANCH  10  11
ATOM     11  C   UNL     1      -2.765  11.502  18.352  0.00  0.00    +0.000 A 
ATOM     12  C   UNL     1      -3.178  11.180  17.063  0.00  0.00    +0.000 A 
ATOM     13  C   UNL     1      -4.500  11.426  16.701  0.00  0.00    +0.000 A 
ATOM     14  C   UNL     1      -5.365  11.986  17.633  0.00  0.00    +0.000 A 
ATOM     15  C   UNL     1      -4.873  12.279  18.892  0.00  0.00    +0.000 A 
ATOM     16  N   UNL     1      -3.597  12.054  19.268  0.00  0.00    +0.000 NA
ENDBRANCH  10  11
ENDBRANCH   8   9
ENDBRANCH   1   8
BRANCH   4  17
ATOM     17  O   UNL     1       2.867   5.869  19.134  0.00  0.00    +0.000 OA
BRANCH  17  18
ATOM     18  C   UNL     1       2.463   5.101  17.990  0.00  0.00    +0.000 C 
BRANCH  18  19
ATOM     19  C   UNL     1       3.412   3.915  17.991  0.00  0.00    +0.000 C 
BRANCH  19  20
ATOM     20  C   UNL     1       4.855   4.178  17.552  0.00  0.00    +0.000 C 
BRANCH  20  21
ATOM     21  N   UNL     1       4.881   5.218  16.502  0.00  0.00    +0.000 NA
ATOM     22  C   UNL     1       5.439   4.746  15.216  0.00  0.00    +0.000 C 
ATOM     23  C   UNL     1       6.981   4.690  15.142  0.00  0.00    +0.000 C 
ATOM     24  O   UNL     1       7.617   5.878  15.633  0.00  0.00    +0.000 OA
ATOM     25  C   UNL     1       7.136   6.213  16.939  0.00  0.00    +0.000 C 
ATOM     26  C   UNL     1       5.622   6.442  16.881  0.00  0.00    +0.000 C 
ENDBRANCH  20  21
ENDBRANCH  19  20
ENDBRANCH  18  19
ENDBRANCH  17  18
ENDBRANCH   4  17
TORSDOF 8
ENDMDL
MODEL 9
REMARK VINA RESULT:      -7.1      1.756      2.284
REMARK  Name = 
REMARK  8 active torsions:
REMARK  status: ('A' for Active; 'I' for Inactive)
REMARK    1  A    between atoms: C_2  and  C_3
REMARK    2  A    between atoms: C_2  and  C_11
REMARK    3  A    between atoms: C_4  and  C_5
REMARK    4  A    between atoms: C_14  and  O_15
REMARK    5  A    between atoms: O_15  and  C_16
REMARK    6  A    between atoms: C_16  and  C_17
REMARK    7  A    between atoms: C_17  and  C_18
REMARK    8  A    between atoms: C_18  and  N_19
REMARK                            x       y       z     vdW  Elec       q    Type
REMARK                         _______ _______ _______ _____ _____    ______ ____
ROOT
ATOM      1  C   UNL     1       6.764   5.424  17.342  0.00  0.00    +0.000 A 
ATOM      2  C   UNL     1       7.424   5.230  18.564  0.00  0.00    +0.000 A 
ATOM      3  C   UNL     1       8.147   6.267  19.152  0.00  0.00    +0.000 A 
ATOM      4  C   UNL     1       8.205   7.509  18.532  0.00  0.00    +0.000 A 
ATOM      5  C   UNL     1       7.539   7.710  17.316  0.00  0.00    +0.000 A 
ATOM      6  C   UNL     1       6.817   6.674  16.722  0.00  0.00    +0.000 A 
ENDROOT
BRANCH   1   8
ATOM      7  O   UNL     1       6.202   3.959  15.569  0.00  0.00    +0.000 OA
ATOM      8  C   UNL     1       5.959   4.345  16.710  0.00  0.00    +0.000 C 
BRANCH   8   9
ATOM      9  C   UNL     1       4.860   3.767  17.514  0.00  0.00    +0.000 C 
ATOM     10  C   UNL     1       3.725   4.456  17.693  0.00  0.00    +0.000 C 
BRANCH  10  11
ATOM     11  C   UNL     1       2.646   3.964  18.554  0.00  0.00    +0.000 A 
ATOM     12  C   UNL     1       2.585   4.345  19.891  0.00  0.00    +0.000 A 
ATOM     13  C   UNL     1       1.557   3.841  20.685  0.00  0.00    +0.000 A 
ATOM     14  C   UNL     1       0.628   2.974  20.123  0.00  0.00    +0.000 A 
ATOM     15  C   UNL     1       0.763   2.644  18.786  0.00  0.00    +0.000 A 
ATOM     16  N   UNL     1       1.750   3.114  17.995  0.00  0.00    +0.000 NA
ENDBRANCH  10  11
ENDBRANCH   8   9
ENDBRANCH   1   8
BRANCH   4  17
ATOM     17  O   UNL     1       8.866   8.596  19.008  0.00  0.00    +0.000 OA
BRANCH  17  18
ATOM     18  C   UNL     1       8.693   9.858  18.346  0.00  0.00    +0.000 C 
BRANCH  18  19
ATOM     19  C   UNL     1       9.579  10.809  19.133  0.00  0.00    +0.000 C 
BRANCH  19  20
ATOM     20  C   UNL     1       9.350  12.309  18.922  0.00  0.00    +0.000 C 
BRANCH  20  21
ATOM     21  N   UNL     1       9.990  13.074  20.012  0.00  0.00    +0.000 NA
ATOM     22  C   UNL     1       9.724  12.521  21.358  0.00  0.00    +0.000 C 
ATOM     23  C   UNL     1       8.350  12.883  21.964  0.00  0.00    +0.000 C 
ATOM     24  O   UNL     1       8.027  14.276  21.852  0.00  0.00    +0.000 OA
ATOM     25  C   UNL     1       8.173  14.726  20.501  0.00  0.00    +0.000 C 
ATOM     26  C   UNL     1       9.620  14.508  20.044  0.00  0.00    +0.000 C 
ENDBRANCH  20  21
ENDBRANCH  19  20
ENDBRANCH  18  19
ENDBRANCH  17  18
ENDBRANCH   4  17
TORSDOF 8
ENDMDL
