MODEL 1
REMARK VINA RESULT:      -7.7      0.000      0.000
REMARK  Name = 
REMARK  5 active torsions:
REMARK  status: ('A' for Active; 'I' for Inactive)
REMARK    1  A    between atoms: C_1  and  S_2
REMARK    2  A    between atoms: S_2  and  C_3
REMARK    3  A    between atoms: C_5  and  C_6
REMARK    4  A    between atoms: C_13  and  C_14
REMARK    5  A    between atoms: C_18  and  O_19
REMARK                            x       y       z     vdW  Elec       q    Type
REMARK                         _______ _______ _______ _____ _____    ______ ____
ROOT
ATOM      1  C   UNL     1       6.243   4.229  14.044  0.00  0.00    +0.000 A 
ATOM      2  N   UNL     1       5.135   3.911  14.659  0.00  0.00    +0.000 NA
ATOM      3  C   UNL     1       5.233   4.508  15.902  0.00  0.00    +0.000 A 
ATOM      4  C   UNL     1       6.458   5.167  16.052  0.00  0.00    +0.000 A 
ATOM      5  N   UNL     1       7.064   4.983  14.826  0.00  0.00    +0.000 N 
ATOM      6  H   UNL     1       7.974   5.305  14.547  0.00  0.00    +0.000 HD
ENDROOT
BRANCH   3   7
ATOM      7  C   UNL     1       4.184   4.374  16.903  0.00  0.00    +0.000 A 
ATOM      8  C   UNL     1       3.586   5.526  17.436  0.00  0.00    +0.000 A 
ATOM      9  C   UNL     1       2.486   5.423  18.293  0.00  0.00    +0.000 A 
ATOM     10  C   UNL     1       1.987   4.167  18.617  0.00  0.00    +0.000 A 
ATOM     11  F   UNL     1       0.901   4.068  19.392  0.00  0.00    +0.000 F 
ATOM     12  C   UNL     1       2.596   3.014  18.144  0.00  0.00    +0.000 A 
ATOM     13  C   UNL     1       3.712   3.118  17.318  0.00  0.00    +0.000 A 
ENDBRANCH   3   7
BRANCH   4  14
ATOM     14  C   UNL     1       7.113   5.879  17.154  0.00  0.00    +0.000 A 
ATOM     15  C   UNL     1       7.455   7.230  17.047  0.00  0.00    +0.000 A 
ATOM     16  C   UNL     1       8.139   7.842  18.087  0.00  0.00    +0.000 A 
ATOM     17  N   UNL     1       8.453   7.222  19.242  0.00  0.00    +0.000 NA
ATOM     18  C   UNL     1       8.071   5.941  19.330  0.00  0.00    +0.000 A 
ATOM     19  C   UNL     1       7.425   5.220  18.346  0.00  0.00    +0.000 A 
BRANCH  18  20
ATOM     20  O   UNL     1       8.366   5.363  20.519  0.00  0.00    +0.000 OA
ATOM     21  H   UNL     1       7.464   5.203  20.852  0.00  0.00    +0.000 HD
ENDBRANCH  18  20
ENDBRANCH   4  14
BRANCH   1  23
ATOM     22  C   UNL     1       5.225   3.092  11.793  0.00  0.00    +0.000 C 
ATOM     23  S   UNL     1       6.741   3.817  12.449  0.00  0.00    +0.000 S 
ENDBRANCH   1  23
TORSDOF 4
ENDMDL
MODEL 2
REMARK VINA RESULT:      -7.7      3.611      4.966
REMARK  Name = 
REMARK  5 active torsions:
REMARK  status: ('A' for Active; 'I' for Inactive)
REMARK    1  A    between atoms: C_1  and  S_2
REMARK    2  A    between atoms: S_2  and  C_3
REMARK    3  A    between atoms: C_5  and  C_6
REMARK    4  A    between atoms: C_13  and  C_14
REMARK    5  A    between atoms: C_18  and  O_19
REMARK                            x       y       z     vdW  Elec       q    Type
REMARK                         _______ _______ _______ _____ _____    ______ ____
ROOT
ATOM      1  C   UNL     1       4.772   5.209  16.565  0.00  0.00    +0.000 A 
ATOM      2  N   UNL     1       4.348   4.230  17.320  0.00  0.00    +0.000 NA
ATOM      3  C   UNL     1       3.418   4.808  18.165  0.00  0.00    +0.000 A 
ATOM      4  C   UNL     1       3.314   6.184  17.937  0.00  0.00    +0.000 A 
ATOM      5  N   UNL     1       4.182   6.393  16.885  0.00  0.00    +0.000 N 
ATOM      6  H   UNL     1       4.393   7.270  16.440  0.00  0.00    +0.000 HD
ENDROOT
BRANCH   3   7
ATOM      7  C   UNL     1       2.719   4.035  19.181  0.00  0.00    +0.000 A 
ATOM      8  C   UNL     1       3.443   3.474  20.244  0.00  0.00    +0.000 A 
ATOM      9  C   UNL     1       2.780   2.846  21.302  0.00  0.00    +0.000 A 
ATOM     10  C   UNL     1       1.392   2.779  21.295  0.00  0.00    +0.000 A 
ATOM     11  F   UNL     1       0.752   2.227  22.333  0.00  0.00    +0.000 F 
ATOM     12  C   UNL     1       0.659   3.278  20.228  0.00  0.00    +0.000 A 
ATOM     13  C   UNL     1       1.323   3.873  19.159  0.00  0.00    +0.000 A 
ENDBRANCH   3   7
BRANCH   4  14
ATOM     14  C   UNL     1       2.570   7.277  18.572  0.00  0.00    +0.000 A 
ATOM     15  C   UNL     1       2.263   7.253  19.935  0.00  0.00    +0.000 A 
ATOM     16  C   UNL     1       1.494   8.272  20.476  0.00  0.00    +0.000 A 
ATOM     17  N   UNL     1       1.062   9.337  19.772  0.00  0.00    +0.000 NA
ATOM     18  C   UNL     1       1.413   9.352  18.478  0.00  0.00    +0.000 A 
ATOM     19  C   UNL     1       2.136   8.375  17.825  0.00  0.00    +0.000 A 
BRANCH  18  20
ATOM     20  O   UNL     1       0.997  10.456  17.812  0.00  0.00    +0.000 OA
ATOM     21  H   UNL     1       0.530  10.033  17.069  0.00  0.00    +0.000 HD
ENDBRANCH  18  20
ENDBRANCH   4  14
BRANCH   1  23
ATOM     22  C   UNL     1       7.391   4.588  16.175  0.00  0.00    +0.000 C 
ATOM     23  S   UNL     1       5.925   5.156  15.289  0.00  0.00    +0.000 S 
ENDBRANCH   1  23
TORSDOF 4
ENDMDL
MODEL 3
REMARK VINA RESULT:      -7.6      3.601      5.498
REMARK  Name = 
REMARK  5 active torsions:
REMARK  status: ('A' for Active; 'I' for Inactive)
REMARK    1  A    between atoms: C_1  and  S_2
REMARK    2  A    between atoms: S_2  and  C_3
REMARK    3  A    between atoms: C_5  and  C_6
REMARK    4  A    between atoms: C_13  and  C_14
REMARK    5  A    between atoms: C_18  and  O_19
REMARK                            x       y       z     vdW  Elec       q    Type
REMARK                         _______ _______ _______ _____ _____    ______ ____
ROOT
ATOM      1  C   UNL     1       5.290   5.667  16.889  0.00  0.00    +0.000 A 
ATOM      2  N   UNL     1       4.662   6.789  17.123  0.00  0.00    +0.000 NA
ATOM      3  C   UNL     1       3.611   6.443  17.953  0.00  0.00    +0.000 A 
ATOM      4  C   UNL     1       3.584   5.064  18.187  0.00  0.00    +0.000 A 
ATOM      5  N   UNL     1       4.694   4.610  17.505  0.00  0.00    +0.000 N 
ATOM      6  H   UNL     1       5.008   3.657  17.426  0.00  0.00    +0.000 HD
ENDROOT
BRANCH   3   7
ATOM      7  C   UNL     1       2.656   7.431  18.434  0.00  0.00    +0.000 A 
ATOM      8  C   UNL     1       2.238   7.394  19.773  0.00  0.00    +0.000 A 
ATOM      9  C   UNL     1       1.430   8.410  20.292  0.00  0.00    +0.000 A 
ATOM     10  C   UNL     1       1.040   9.461  19.471  0.00  0.00    +0.000 A 
ATOM     11  F   UNL     1       0.313  10.462  19.980  0.00  0.00    +0.000 F 
ATOM     12  C   UNL     1       1.397   9.489  18.131  0.00  0.00    +0.000 A 
ATOM     13  C   UNL     1       2.173   8.459  17.607  0.00  0.00    +0.000 A 
ENDBRANCH   3   7
BRANCH   4  14
ATOM     14  C   UNL     1       2.676   4.162  18.901  0.00  0.00    +0.000 A 
ATOM     15  C   UNL     1       1.649   3.485  18.236  0.00  0.00    +0.000 A 
ATOM     16  C   UNL     1       0.769   2.700  18.965  0.00  0.00    +0.000 A 
ATOM     17  N   UNL     1       0.874   2.496  20.293  0.00  0.00    +0.000 NA
ATOM     18  C   UNL     1       1.896   3.123  20.893  0.00  0.00    +0.000 A 
ATOM     19  C   UNL     1       2.804   3.959  20.277  0.00  0.00    +0.000 A 
BRANCH  18  20
ATOM     20  O   UNL     1       1.994   2.862  22.218  0.00  0.00    +0.000 OA
ATOM     21  H   UNL     1       2.737   2.231  22.206  0.00  0.00    +0.000 HD
ENDBRANCH  18  20
ENDBRANCH   4  14
BRANCH   1  23
ATOM     22  C   UNL     1       6.177   4.018  14.916  0.00  0.00    +0.000 C 
ATOM     23  S   UNL     1       6.702   5.407  15.941  0.00  0.00    +0.000 S 
ENDBRANCH   1  23
TORSDOF 4
ENDMDL
MODEL 4
REMARK VINA RESULT:      -7.6      0.288      1.091
REMARK  Name = 
REMARK  5 active torsions:
REMARK  status: ('A' for Active; 'I' for Inactive)
REMARK    1  A    between atoms: C_1  and  S_2
REMARK    2  A    between atoms: S_2  and  C_3
REMARK    3  A    between atoms: C_5  and  C_6
REMARK    4  A    between atoms: C_13  and  C_14
REMARK    5  A    between atoms: C_18  and  O_19
REMARK                            x       y       z     vdW  Elec       q    Type
REMARK                         _______ _______ _______ _____ _____    ______ ____
ROOT
ATOM      1  C   UNL     1       6.364   4.320  13.972  0.00  0.00    +0.000 A 
ATOM      2  N   UNL     1       5.248   3.984  14.562  0.00  0.00    +0.000 NA
ATOM      3  C   UNL     1       5.319   4.561  15.816  0.00  0.00    +0.000 A 
ATOM      4  C   UNL     1       6.536   5.228  15.998  0.00  0.00    +0.000 A 
ATOM      5  N   UNL     1       7.164   5.068  14.780  0.00  0.00    +0.000 N 
ATOM      6  H   UNL     1       8.077   5.403  14.521  0.00  0.00    +0.000 HD
ENDROOT
BRANCH   3   7
ATOM      7  C   UNL     1       4.255   4.403  16.796  0.00  0.00    +0.000 A 
ATOM      8  C   UNL     1       3.906   3.117  17.237  0.00  0.00    +0.000 A 
ATOM      9  C   UNL     1       2.985   2.948  18.275  0.00  0.00    +0.000 A 
ATOM     10  C   UNL     1       2.413   4.066  18.870  0.00  0.00    +0.000 A 
ATOM     11  F   UNL     1       1.573   3.908  19.900  0.00  0.00    +0.000 F 
ATOM     12  C   UNL     1       2.702   5.343  18.413  0.00  0.00    +0.000 A 
ATOM     13  C   UNL     1       3.593   5.508  17.358  0.00  0.00    +0.000 A 
ENDBRANCH   3   7
BRANCH   4  14
ATOM     14  C   UNL     1       7.166   5.927  17.122  0.00  0.00    +0.000 A 
ATOM     15  C   UNL     1       7.494   7.284  17.044  0.00  0.00    +0.000 A 
ATOM     16  C   UNL     1       8.155   7.884  18.105  0.00  0.00    +0.000 A 
ATOM     17  N   UNL     1       8.458   7.248  19.254  0.00  0.00    +0.000 NA
ATOM     18  C   UNL     1       8.090   5.961  19.313  0.00  0.00    +0.000 A 
ATOM     19  C   UNL     1       7.467   5.251  18.307  0.00  0.00    +0.000 A 
BRANCH  18  20
ATOM     20  O   UNL     1       8.374   5.365  20.496  0.00  0.00    +0.000 OA
ATOM     21  H   UNL     1       9.346   5.427  20.481  0.00  0.00    +0.000 HD
ENDBRANCH  18  20
ENDBRANCH   4  14
BRANCH   1  23
ATOM     22  C   UNL     1       5.621   2.764  11.868  0.00  0.00    +0.000 C 
ATOM     23  S   UNL     1       6.892   3.939  12.379  0.00  0.00    +0.000 S 
ENDBRANCH   1  23
TORSDOF 4
ENDMDL
MODEL 5
REMARK VINA RESULT:      -7.6      3.254      4.644
REMARK  Name = 
REMARK  5 active torsions:
REMARK  status: ('A' for Active; 'I' for Inactive)
REMARK    1  A    between atoms: C_1  and  S_2
REMARK    2  A    between atoms: S_2  and  C_3
REMARK    3  A    between atoms: C_5  and  C_6
REMARK    4  A    between atoms: C_13  and  C_14
REMARK    5  A    between atoms: C_18  and  O_19
REMARK                            x       y       z     vdW  Elec       q    Type
REMARK                         _______ _______ _______ _____ _____    ______ ____
ROOT
ATOM      1  C   UNL     1       2.532   8.261  17.967  0.00  0.00    +0.000 A 
ATOM      2  N   UNL     1       1.915   7.199  18.412  0.00  0.00    +0.000 NA
ATOM      3  C   UNL     1       2.784   6.152  18.167  0.00  0.00    +0.000 A 
ATOM      4  C   UNL     1       3.939   6.596  17.514  0.00  0.00    +0.000 A 
ATOM      5  N   UNL     1       3.745   7.959  17.429  0.00  0.00    +0.000 N 
ATOM      6  H   UNL     1       4.362   8.632  17.008  0.00  0.00    +0.000 HD
ENDROOT
BRANCH   3   7
ATOM      7  C   UNL     1       2.448   4.779  18.513  0.00  0.00    +0.000 A 
ATOM      8  C   UNL     1       1.842   4.505  19.749  0.00  0.00    +0.000 A 
ATOM      9  C   UNL     1       1.387   3.217  20.047  0.00  0.00    +0.000 A 
ATOM     10  C   UNL     1       1.539   2.204  19.108  0.00  0.00    +0.000 A 
ATOM     11  F   UNL     1       1.055   0.984  19.368  0.00  0.00    +0.000 F 
ATOM     12  C   UNL     1       2.184   2.440  17.902  0.00  0.00    +0.000 A 
ATOM     13  C   UNL     1       2.667   3.715  17.622  0.00  0.00    +0.000 A 
ENDBRANCH   3   7
BRANCH   4  14
ATOM     14  C   UNL     1       5.122   5.933  16.957  0.00  0.00    +0.000 A 
ATOM     15  C   UNL     1       5.350   5.887  15.579  0.00  0.00    +0.000 A 
ATOM     16  C   UNL     1       6.444   5.185  15.094  0.00  0.00    +0.000 A 
ATOM     17  N   UNL     1       7.353   4.580  15.883  0.00  0.00    +0.000 NA
ATOM     18  C   UNL     1       7.130   4.681  17.201  0.00  0.00    +0.000 A 
ATOM     19  C   UNL     1       6.056   5.315  17.792  0.00  0.00    +0.000 A 
BRANCH  18  20
ATOM     20  O   UNL     1       8.085   4.097  17.963  0.00  0.00    +0.000 OA
ATOM     21  H   UNL     1       8.041   3.188  17.612  0.00  0.00    +0.000 HD
ENDBRANCH  18  20
ENDBRANCH   4  14
BRANCH   1  23
ATOM     22  C   UNL     1       0.862   9.870  19.387  0.00  0.00    +0.000 C 
ATOM     23  S   UNL     1       2.002   9.898  17.989  0.00  0.00    +0.000 S 
ENDBRANCH   1  23
TORSDOF 4
ENDMDL
MODEL 6
REMARK VINA RESULT:      -7.5      3.449      5.300
REMARK  Name = 
REMARK  5 active torsions:
REMARK  status: ('A' for Active; 'I' for Inactive)
REMARK    1  A    between atoms: C_1  and  S_2
REMARK    2  A    between atoms: S_2  and  C_3
REMARK    3  A    between atoms: C_5  and  C_6
REMARK    4  A    between atoms: C_13  and  C_14
REMARK    5  A    between atoms: C_18  and  O_19
REMARK                            x       y       z     vdW  Elec       q    Type
REMARK                         _______ _______ _______ _____ _____    ______ ____
ROOT
ATOM      1  C   UNL     1       5.322   5.508  16.653  0.00  0.00    +0.000 A 
ATOM      2  N   UNL     1       4.776   6.656  16.954  0.00  0.00    +0.000 NA
ATOM      3  C   UNL     1       3.757   6.346  17.836  0.00  0.00    +0.000 A 
ATOM      4  C   UNL     1       3.663   4.964  18.034  0.00  0.00    +0.000 A 
ATOM      5  N   UNL     1       4.703   4.468  17.274  0.00  0.00    +0.000 N 
ATOM      6  H   UNL     1       4.955   3.502  17.152  0.00  0.00    +0.000 HD
ENDROOT
BRANCH   3   7
ATOM      7  C   UNL     1       2.891   7.371  18.399  0.00  0.00    +0.000 A 
ATOM      8  C   UNL     1       2.443   8.422  17.585  0.00  0.00    +0.000 A 
ATOM      9  C   UNL     1       1.503   9.340  18.063  0.00  0.00    +0.000 A 
ATOM     10  C   UNL     1       1.014   9.205  19.357  0.00  0.00    +0.000 A 
ATOM     11  F   UNL     1       0.074  10.049  19.798  0.00  0.00    +0.000 F 
ATOM     12  C   UNL     1       1.483   8.206  20.197  0.00  0.00    +0.000 A 
ATOM     13  C   UNL     1       2.444   7.314  19.730  0.00  0.00    +0.000 A 
ENDBRANCH   3   7
BRANCH   4  14
ATOM     14  C   UNL     1       2.746   4.093  18.776  0.00  0.00    +0.000 A 
ATOM     15  C   UNL     1       1.647   3.494  18.155  0.00  0.00    +0.000 A 
ATOM     16  C   UNL     1       0.766   2.738  18.914  0.00  0.00    +0.000 A 
ATOM     17  N   UNL     1       0.934   2.491  20.228  0.00  0.00    +0.000 NA
ATOM     18  C   UNL     1       2.021   3.044  20.783  0.00  0.00    +0.000 A 
ATOM     19  C   UNL     1       2.940   3.846  20.138  0.00  0.00    +0.000 A 
BRANCH  18  20
ATOM     20  O   UNL     1       2.179   2.741  22.094  0.00  0.00    +0.000 OA
ATOM     21  H   UNL     1       1.857   1.821  22.090  0.00  0.00    +0.000 HD
ENDBRANCH  18  20
ENDBRANCH   4  14
BRANCH   1  23
ATOM     22  C   UNL     1       5.895   4.126  14.381  0.00  0.00    +0.000 C 
ATOM     23  S   UNL     1       6.660   5.196  15.615  0.00  0.00    +0.000 S 
ENDBRANCH   1  23
TORSDOF 4
ENDMDL
MODEL 7
REMARK VINA RESULT:      -7.5      3.333      4.478
REMARK  Name = 
REMARK  5 active torsions:
REMARK  status: ('A' for Active; 'I' for Inactive)
REMARK    1  A    between atoms: C_1  and  S_2
REMARK    2  A    between atoms: S_2  and  C_3
REMARK    3  A    between atoms: C_5  and  C_6
REMARK    4  A    between atoms: C_13  and  C_14
REMARK    5  A    between atoms: C_18  and  O_19
REMARK                            x       y       z     vdW  Elec       q    Type
REMARK                         _______ _______ _______ _____ _____    ______ ____
ROOT
ATOM      1  C   UNL     1       5.214   4.961  16.699  0.00  0.00    +0.000 A 
ATOM      2  N   UNL     1       4.723   4.021  17.462  0.00  0.00    +0.000 NA
ATOM      3  C   UNL     1       3.713   4.633  18.179  0.00  0.00    +0.000 A 
ATOM      4  C   UNL     1       3.625   5.994  17.869  0.00  0.00    +0.000 A 
ATOM      5  N   UNL     1       4.591   6.155  16.896  0.00  0.00    +0.000 N 
ATOM      6  H   UNL     1       4.840   7.009  16.426  0.00  0.00    +0.000 HD
ENDROOT
BRANCH   3   7
ATOM      7  C   UNL     1       2.922   3.909  19.163  0.00  0.00    +0.000 A 
ATOM      8  C   UNL     1       3.553   3.361  20.291  0.00  0.00    +0.000 A 
ATOM      9  C   UNL     1       2.798   2.782  21.316  0.00  0.00    +0.000 A 
ATOM     10  C   UNL     1       1.413   2.750  21.210  0.00  0.00    +0.000 A 
ATOM     11  F   UNL     1       0.686   2.246  22.214  0.00  0.00    +0.000 F 
ATOM     12  C   UNL     1       0.772   3.237  20.080  0.00  0.00    +0.000 A 
ATOM     13  C   UNL     1       1.527   3.782  19.046  0.00  0.00    +0.000 A 
ENDBRANCH   3   7
BRANCH   4  14
ATOM     14  C   UNL     1       2.818   7.112  18.368  0.00  0.00    +0.000 A 
ATOM     15  C   UNL     1       2.458   8.178  17.539  0.00  0.00    +0.000 A 
ATOM     16  C   UNL     1       1.757   9.248  18.074  0.00  0.00    +0.000 A 
ATOM     17  N   UNL     1       1.341   9.303  19.355  0.00  0.00    +0.000 NA
ATOM     18  C   UNL     1       1.664   8.245  20.111  0.00  0.00    +0.000 A 
ATOM     19  C   UNL     1       2.393   7.149  19.698  0.00  0.00    +0.000 A 
BRANCH  18  20
ATOM     20  O   UNL     1       1.196   8.318  21.380  0.00  0.00    +0.000 OA
ATOM     21  H   UNL     1       0.314   7.923  21.252  0.00  0.00    +0.000 HD
ENDBRANCH  18  20
ENDBRANCH   4  14
BRANCH   1  23
ATOM     22  C   UNL     1       5.602   4.185  14.122  0.00  0.00    +0.000 C 
ATOM     23  S   UNL     1       6.486   4.852  15.546  0.00  0.00    +0.000 S 
ENDBRANCH   1  23
TORSDOF 4
ENDMDL
MODEL 8
REMARK VINA RESULT:      -7.4      3.317      4.748
REMARK  Name = 
REMARK  5 active torsions:
REMARK  status: ('A' for Active; 'I' for Inactive)
REMARK    1  A    between atoms: C_1  and  S_2
REMARK    2  A    between atoms: S_2  and  C_3
REMARK    3  A    between atoms: C_5  and  C_6
REMARK    4  A    between atoms: C_13  and  C_14
REMARK    5  A    between atoms: C_18  and  O_19
REMARK                            x       y       z     vdW  Elec       q    Type
REMARK                         _______ _______ _______ _____ _____    ______ ____
ROOT
ATOM      1  C   UNL     1       2.455   8.440  17.997  0.00  0.00    +0.000 A 
ATOM      2  N   UNL     1       1.801   7.391  18.420  0.00  0.00    +0.000 NA
ATOM      3  C   UNL     1       2.653   6.325  18.200  0.00  0.00    +0.000 A 
ATOM      4  C   UNL     1       3.838   6.744  17.585  0.00  0.00    +0.000 A 
ATOM      5  N   UNL     1       3.678   8.111  17.497  0.00  0.00    +0.000 N 
ATOM      6  H   UNL     1       4.323   8.771  17.097  0.00  0.00    +0.000 HD
ENDROOT
BRANCH   3   7
ATOM      7  C   UNL     1       2.275   4.959  18.532  0.00  0.00    +0.000 A 
ATOM      8  C   UNL     1       2.390   3.954  17.560  0.00  0.00    +0.000 A 
ATOM      9  C   UNL     1       2.166   2.615  17.894  0.00  0.00    +0.000 A 
ATOM     10  C   UNL     1       1.825   2.283  19.200  0.00  0.00    +0.000 A 
ATOM     11  F   UNL     1       1.664   0.998  19.533  0.00  0.00    +0.000 F 
ATOM     12  C   UNL     1       1.653   3.267  20.163  0.00  0.00    +0.000 A 
ATOM     13  C   UNL     1       1.844   4.602  19.821  0.00  0.00    +0.000 A 
ENDBRANCH   3   7
BRANCH   4  14
ATOM     14  C   UNL     1       5.023   6.055  17.064  0.00  0.00    +0.000 A 
ATOM     15  C   UNL     1       5.269   5.967  15.691  0.00  0.00    +0.000 A 
ATOM     16  C   UNL     1       6.363   5.242  15.242  0.00  0.00    +0.000 A 
ATOM     17  N   UNL     1       7.256   4.653  16.062  0.00  0.00    +0.000 NA
ATOM     18  C   UNL     1       7.016   4.795  17.372  0.00  0.00    +0.000 A 
ATOM     19  C   UNL     1       5.940   5.455  17.930  0.00  0.00    +0.000 A 
BRANCH  18  20
ATOM     20  O   UNL     1       7.955   4.225  18.165  0.00  0.00    +0.000 OA
ATOM     21  H   UNL     1       7.805   3.287  17.948  0.00  0.00    +0.000 HD
ENDBRANCH  18  20
ENDBRANCH   4  14
BRANCH   1  23
ATOM     22  C   UNL     1       0.767  10.081  19.358  0.00  0.00    +0.000 C 
ATOM     23  S   UNL     1       1.961  10.088  18.006  0.00  0.00    +0.000 S 
ENDBRANCH   1  23
TORSDOF 4
ENDMDL
MODEL 9
REMARK VINA RESULT:      -7.4      3.428      4.753
REMARK  Name = 
REMARK  5 active torsions:
REMARK  status: ('A' for Active; 'I' for Inactive)
REMARK    1  A    between atoms: C_1  and  S_2
REMARK    2  A    between atoms: S_2  and  C_3
REMARK    3  A    between atoms: C_5  and  C_6
REMARK    4  A    between atoms: C_13  and  C_14
REMARK    5  A    between atoms: C_18  and  O_19
REMARK                            x       y       z     vdW  Elec       q    Type
REMARK                         _______ _______ _______ _____ _____    ______ ____
ROOT
ATOM      1  C   UNL     1       2.581   8.213  17.944  0.00  0.00    +0.000 A 
ATOM      2  N   UNL     1       1.913   7.153  18.311  0.00  0.00    +0.000 NA
ATOM      3  C   UNL     1       2.812   6.109  18.204  0.00  0.00    +0.000 A 
ATOM      4  C   UNL     1       4.046   6.552  17.715  0.00  0.00    +0.000 A 
ATOM      5  N   UNL     1       3.859   7.913  17.586  0.00  0.00    +0.000 N 
ATOM      6  H   UNL     1       4.527   8.585  17.247  0.00  0.00    +0.000 HD
ENDROOT
BRANCH   3   7
ATOM      7  C   UNL     1       2.437   4.737  18.517  0.00  0.00    +0.000 A 
ATOM      8  C   UNL     1       1.759   4.461  19.714  0.00  0.00    +0.000 A 
ATOM      9  C   UNL     1       1.268   3.178  19.972  0.00  0.00    +0.000 A 
ATOM     10  C   UNL     1       1.458   2.171  19.032  0.00  0.00    +0.000 A 
ATOM     11  F   UNL     1       0.942   0.957  19.253  0.00  0.00    +0.000 F 
ATOM     12  C   UNL     1       2.173   2.409  17.868  0.00  0.00    +0.000 A 
ATOM     13  C   UNL     1       2.690   3.679  17.628  0.00  0.00    +0.000 A 
ENDBRANCH   3   7
BRANCH   4  14
ATOM     14  C   UNL     1       5.299   5.890  17.338  0.00  0.00    +0.000 A 
ATOM     15  C   UNL     1       6.091   5.238  18.287  0.00  0.00    +0.000 A 
ATOM     16  C   UNL     1       7.305   4.691  17.898  0.00  0.00    +0.000 A 
ATOM     17  N   UNL     1       7.753   4.694  16.627  0.00  0.00    +0.000 NA
ATOM     18  C   UNL     1       6.948   5.287  15.735  0.00  0.00    +0.000 A 
ATOM     19  C   UNL     1       5.744   5.901  16.014  0.00  0.00    +0.000 A 
BRANCH  18  20
ATOM     20  O   UNL     1       7.411   5.236  14.463  0.00  0.00    +0.000 OA
ATOM     21  H   UNL     1       7.424   4.271  14.332  0.00  0.00    +0.000 HD
ENDBRANCH  18  20
ENDBRANCH   4  14
BRANCH   1  23
ATOM     22  C   UNL     1       0.835   9.872  19.208  0.00  0.00    +0.000 C 
ATOM     23  S   UNL     1       2.045   9.847  17.870  0.00  0.00    +0.000 S 
ENDBRANCH   1  23
TORSDOF 4
ENDMDL
