MODEL 1
REMARK VINA RESULT:      -5.5      0.000      0.000
REMARK  Name = 
REMARK  24 active torsions:
REMARK  status: ('A' for Active; 'I' for Inactive)
REMARK    1  A    between atoms: C_1  and  C_2
REMARK    2  A    between atoms: C_2  and  C_3
REMARK    3  A    between atoms: C_3  and  C_4
REMARK    4  A    between atoms: C_4  and  C_5
REMARK    5  A    between atoms: C_5  and  C_6
REMARK    6  A    between atoms: C_6  and  C_7
REMARK    7  A    between atoms: C_7  and  C_8
REMARK    8  A    between atoms: C_8  and  C_9
REMARK    9  A    between atoms: C_9  and  C_10
REMARK   10  A    between atoms: C_10  and  C_11
REMARK   11  A    between atoms: C_11  and  C_12
REMARK   12  A    between atoms: C_12  and  C_13
REMARK   13  A    between atoms: C_13  and  C_14
REMARK   14  A    between atoms: C_14  and  C_15
REMARK   15  A    between atoms: C_15  and  C_16
REMARK   16  A    between atoms: C_16  and  O_17
REMARK   17  A    between atoms: O_17  and  C_18
REMARK   18  A    between atoms: C_18  and  C_19
REMARK   19  A    between atoms: C_19  and  C_20
REMARK   20  A    between atoms: C_19  and  O_29
REMARK   21  A    between atoms: C_20  and  N_21
REMARK   22  A    between atoms: C_25  and  C_26
REMARK   23  A    between atoms: C_26  and  O_27
REMARK   24  A    between atoms: O_29  and  C_30
REMARK                            x       y       z     vdW  Elec       q    Type
REMARK                         _______ _______ _______ _____ _____    ______ ____
ROOT
ATOM      1  C   UNL     1       2.421   6.776  18.580  0.00  0.00    +0.000 C 
ENDROOT
BRANCH   1   2
ATOM      2  O   UNL     1       2.635   8.172  18.373  0.00  0.00    +0.000 OA
BRANCH   2   3
ATOM      3  C   UNL     1       1.455   8.853  17.990  0.00  0.00    +0.000 C 
BRANCH   3   4
ATOM      4  C   UNL     1       1.136   9.913  19.051  0.00  0.00    +0.000 C 
BRANCH   4   5
ATOM      5  O   UNL     1       0.616   9.231  20.185  0.00  0.00    +0.000 OA
ATOM      6  C   UNL     1       0.547   9.982  21.388  0.00  0.00    +0.000 C 
ENDBRANCH   4   5
BRANCH   4   7
ATOM      7  C   UNL     1       0.284  11.077  18.509  0.00  0.00    +0.000 C 
BRANCH   7   8
ATOM      8  N   UNL     1      -1.178  10.822  18.347  0.00  0.00    +0.000 N 
ATOM      9  C   UNL     1      -1.575  10.014  17.337  0.00  0.00    +0.000 A 
ATOM     10  C   UNL     1      -2.911   9.920  16.972  0.00  0.00    +0.000 A 
ATOM     11  C   UNL     1      -3.857  10.684  17.646  0.00  0.00    +0.000 A 
ATOM     12  C   UNL     1      -3.454  11.496  18.696  0.00  0.00    +0.000 A 
ATOM     13  C   UNL     1      -2.103  11.527  19.030  0.00  0.00    +0.000 A 
BRANCH  12  14
ATOM     14  C   UNL     1      -4.397  12.400  19.424  0.00  0.00    +0.000 C 
BRANCH  14  15
ATOM     15  O   UNL     1      -3.671  12.992  20.483  0.00  0.00    +0.000 OA
ATOM     16  H   UNL     1      -4.198  12.882  21.300  0.00  0.00    +0.000 HD
ENDBRANCH  14  15
ENDBRANCH  12  14
ENDBRANCH   7   8
ENDBRANCH   4   7
ENDBRANCH   3   4
ENDBRANCH   2   3
ENDBRANCH   1   2
BRANCH   1  17
ATOM     17  C   UNL     1       2.528   6.531  20.078  0.00  0.00    +0.000 C 
BRANCH  17  18
ATOM     18  C   UNL     1       1.516   5.502  20.560  0.00  0.00    +0.000 C 
BRANCH  18  19
ATOM     19  C   UNL     1       2.219   4.347  21.268  0.00  0.00    +0.000 C 
BRANCH  19  20
ATOM     20  C   UNL     1       1.728   3.015  20.719  0.00  0.00    +0.000 C 
BRANCH  20  21
ATOM     21  C   UNL     1       0.863   3.209  19.482  0.00  0.00    +0.000 C 
BRANCH  21  22
ATOM     22  C   UNL     1       1.634   2.774  18.243  0.00  0.00    +0.000 C 
BRANCH  22  23
ATOM     23  C   UNL     1       3.002   2.222  18.613  0.00  0.00    +0.000 C 
BRANCH  23  24
ATOM     24  C   UNL     1       4.093   3.047  17.944  0.00  0.00    +0.000 C 
BRANCH  24  25
ATOM     25  C   UNL     1       4.813   3.914  18.967  0.00  0.00    +0.000 C 
BRANCH  25  26
ATOM     26  C   UNL     1       6.123   4.435  18.391  0.00  0.00    +0.000 C 
BRANCH  26  27
ATOM     27  C   UNL     1       6.082   5.950  18.264  0.00  0.00    +0.000 C 
BRANCH  27  28
ATOM     28  C   UNL     1       6.345   6.379  16.826  0.00  0.00    +0.000 C 
BRANCH  28  29
ATOM     29  C   UNL     1       5.143   6.061  15.945  0.00  0.00    +0.000 C 
BRANCH  29  31
ATOM     30  C   UNL     1       6.995   4.818  14.803  0.00  0.00    +0.000 C 
ATOM     31  C   UNL     1       5.493   5.003  14.903  0.00  0.00    +0.000 C 
ENDBRANCH  29  31
ENDBRANCH  28  29
ENDBRANCH  27  28
ENDBRANCH  26  27
ENDBRANCH  25  26
ENDBRANCH  24  25
ENDBRANCH  23  24
ENDBRANCH  22  23
ENDBRANCH  21  22
ENDBRANCH  20  21
ENDBRANCH  19  20
ENDBRANCH  18  19
ENDBRANCH  17  18
ENDBRANCH   1  17
TORSDOF 22
ENDMDL
MODEL 2
REMARK VINA RESULT:      -5.5      3.155      8.258
REMARK  Name = 
REMARK  24 active torsions:
REMARK  status: ('A' for Active; 'I' for Inactive)
REMARK    1  A    between atoms: C_1  and  C_2
REMARK    2  A    between atoms: C_2  and  C_3
REMARK    3  A    between atoms: C_3  and  C_4
REMARK    4  A    between atoms: C_4  and  C_5
REMARK    5  A    between atoms: C_5  and  C_6
REMARK    6  A    between atoms: C_6  and  C_7
REMARK    7  A    between atoms: C_7  and  C_8
REMARK    8  A    between atoms: C_8  and  C_9
REMARK    9  A    between atoms: C_9  and  C_10
REMARK   10  A    between atoms: C_10  and  C_11
REMARK   11  A    between atoms: C_11  and  C_12
REMARK   12  A    between atoms: C_12  and  C_13
REMARK   13  A    between atoms: C_13  and  C_14
REMARK   14  A    between atoms: C_14  and  C_15
REMARK   15  A    between atoms: C_15  and  C_16
REMARK   16  A    between atoms: C_16  and  O_17
REMARK   17  A    between atoms: O_17  and  C_18
REMARK   18  A    between atoms: C_18  and  C_19
REMARK   19  A    between atoms: C_19  and  C_20
REMARK   20  A    between atoms: C_19  and  O_29
REMARK   21  A    between atoms: C_20  and  N_21
REMARK   22  A    between atoms: C_25  and  C_26
REMARK   23  A    between atoms: C_26  and  O_27
REMARK   24  A    between atoms: O_29  and  C_30
REMARK                            x       y       z     vdW  Elec       q    Type
REMARK                         _______ _______ _______ _____ _____    ______ ____
ROOT
ATOM      1  C   UNL     1       4.200   7.102  17.958  0.00  0.00    +0.000 C 
ENDROOT
BRANCH   1   2
ATOM      2  O   UNL     1       4.642   6.493  16.746  0.00  0.00    +0.000 OA
BRANCH   2   3
ATOM      3  C   UNL     1       5.879   5.820  16.893  0.00  0.00    +0.000 C 
BRANCH   3   4
ATOM      4  C   UNL     1       5.764   4.837  18.065  0.00  0.00    +0.000 C 
BRANCH   4   5
ATOM      5  O   UNL     1       7.071   4.660  18.597  0.00  0.00    +0.000 OA
ATOM      6  C   UNL     1       7.737   5.838  19.022  0.00  0.00    +0.000 C 
ENDBRANCH   4   5
BRANCH   4   7
ATOM      7  C   UNL     1       4.997   3.550  17.704  0.00  0.00    +0.000 C 
BRANCH   7   8
ATOM      8  N   UNL     1       3.608   3.422  18.233  0.00  0.00    +0.000 N 
ATOM      9  C   UNL     1       2.581   3.716  17.403  0.00  0.00    +0.000 A 
ATOM     10  C   UNL     1       1.285   3.856  17.881  0.00  0.00    +0.000 A 
ATOM     11  C   UNL     1       1.040   3.705  19.241  0.00  0.00    +0.000 A 
ATOM     12  C   UNL     1       2.089   3.381  20.090  0.00  0.00    +0.000 A 
ATOM     13  C   UNL     1       3.361   3.230  19.545  0.00  0.00    +0.000 A 
BRANCH  12  14
ATOM     14  C   UNL     1       1.922   3.271  21.572  0.00  0.00    +0.000 C 
BRANCH  14  15
ATOM     15  O   UNL     1       2.926   2.392  22.039  0.00  0.00    +0.000 OA
ATOM     16  H   UNL     1       3.089   1.731  21.337  0.00  0.00    +0.000 HD
ENDBRANCH  14  15
ENDBRANCH  12  14
ENDBRANCH   7   8
ENDBRANCH   4   7
ENDBRANCH   3   4
ENDBRANCH   2   3
ENDBRANCH   1   2
BRANCH   1  17
ATOM     17  C   UNL     1       3.049   8.028  17.593  0.00  0.00    +0.000 C 
BRANCH  17  18
ATOM     18  C   UNL     1       1.927   7.972  18.621  0.00  0.00    +0.000 C 
BRANCH  18  19
ATOM     19  C   UNL     1       2.306   7.057  19.781  0.00  0.00    +0.000 C 
BRANCH  19  20
ATOM     20  C   UNL     1       1.420   7.338  20.986  0.00  0.00    +0.000 C 
BRANCH  20  21
ATOM     21  C   UNL     1       1.916   8.545  21.770  0.00  0.00    +0.000 C 
BRANCH  21  22
ATOM     22  C   UNL     1       0.735   9.259  22.413  0.00  0.00    +0.000 C 
BRANCH  22  23
ATOM     23  C   UNL     1      -0.571   8.887  21.730  0.00  0.00    +0.000 C 
BRANCH  23  24
ATOM     24  C   UNL     1      -0.785   9.764  20.505  0.00  0.00    +0.000 C 
BRANCH  24  25
ATOM     25  C   UNL     1      -0.575  11.231  20.852  0.00  0.00    +0.000 C 
BRANCH  25  26
ATOM     26  C   UNL     1      -0.031  11.988  19.648  0.00  0.00    +0.000 C 
BRANCH  26  27
ATOM     27  C   UNL     1      -1.151  12.735  18.941  0.00  0.00    +0.000 C 
BRANCH  27  28
ATOM     28  C   UNL     1      -1.644  11.950  17.730  0.00  0.00    +0.000 C 
BRANCH  28  29
ATOM     29  C   UNL     1      -3.001  11.321  18.018  0.00  0.00    +0.000 C 
BRANCH  29  31
ATOM     30  C   UNL     1      -2.833   9.829  16.011  0.00  0.00    +0.000 C 
ATOM     31  C   UNL     1      -3.055   9.882  17.511  0.00  0.00    +0.000 C 
ENDBRANCH  29  31
ENDBRANCH  28  29
ENDBRANCH  27  28
ENDBRANCH  26  27
ENDBRANCH  25  26
ENDBRANCH  24  25
ENDBRANCH  23  24
ENDBRANCH  22  23
ENDBRANCH  21  22
ENDBRANCH  20  21
ENDBRANCH  19  20
ENDBRANCH  18  19
ENDBRANCH  17  18
ENDBRANCH   1  17
TORSDOF 22
ENDMDL
MODEL 3
REMARK VINA RESULT:      -5.5      1.851      3.841
REMARK  Name = 
REMARK  24 active torsions:
REMARK  status: ('A' for Active; 'I' for Inactive)
REMARK    1  A    between atoms: C_1  and  C_2
REMARK    2  A    between atoms: C_2  and  C_3
REMARK    3  A    between atoms: C_3  and  C_4
REMARK    4  A    between atoms: C_4  and  C_5
REMARK    5  A    between atoms: C_5  and  C_6
REMARK    6  A    between atoms: C_6  and  C_7
REMARK    7  A    between atoms: C_7  and  C_8
REMARK    8  A    between atoms: C_8  and  C_9
REMARK    9  A    between atoms: C_9  and  C_10
REMARK   10  A    between atoms: C_10  and  C_11
REMARK   11  A    between atoms: C_11  and  C_12
REMARK   12  A    between atoms: C_12  and  C_13
REMARK   13  A    between atoms: C_13  and  C_14
REMARK   14  A    between atoms: C_14  and  C_15
REMARK   15  A    between atoms: C_15  and  C_16
REMARK   16  A    between atoms: C_16  and  O_17
REMARK   17  A    between atoms: O_17  and  C_18
REMARK   18  A    between atoms: C_18  and  C_19
REMARK   19  A    between atoms: C_19  and  C_20
REMARK   20  A    between atoms: C_19  and  O_29
REMARK   21  A    between atoms: C_20  and  N_21
REMARK   22  A    between atoms: C_25  and  C_26
REMARK   23  A    between atoms: C_26  and  O_27
REMARK   24  A    between atoms: O_29  and  C_30
REMARK                            x       y       z     vdW  Elec       q    Type
REMARK                         _______ _______ _______ _____ _____    ______ ____
ROOT
ATOM      1  C   UNL     1       1.108  10.029  19.190  0.00  0.00    +0.000 C 
ENDROOT
BRANCH   1   2
ATOM      2  O   UNL     1      -0.064  10.830  19.046  0.00  0.00    +0.000 OA
BRANCH   2   3
ATOM      3  C   UNL     1      -0.990  10.280  18.127  0.00  0.00    +0.000 C 
BRANCH   3   4
ATOM      4  C   UNL     1      -2.344  10.973  18.323  0.00  0.00    +0.000 C 
BRANCH   4   5
ATOM      5  O   UNL     1      -2.959  11.067  17.044  0.00  0.00    +0.000 OA
ATOM      6  C   UNL     1      -2.531  10.122  16.075  0.00  0.00    +0.000 C 
ENDBRANCH   4   5
BRANCH   4   7
ATOM      7  C   UNL     1      -2.242  12.285  19.125  0.00  0.00    +0.000 C 
BRANCH   7   8
ATOM      8  N   UNL     1      -3.376  12.605  20.041  0.00  0.00    +0.000 N 
ATOM      9  C   UNL     1      -3.083  13.034  21.291  0.00  0.00    +0.000 A 
ATOM     10  C   UNL     1      -4.062  13.119  22.271  0.00  0.00    +0.000 A 
ATOM     11  C   UNL     1      -5.366  12.742  21.968  0.00  0.00    +0.000 A 
ATOM     12  C   UNL     1      -5.671  12.323  20.682  0.00  0.00    +0.000 A 
ATOM     13  C   UNL     1      -4.650  12.283  19.736  0.00  0.00    +0.000 A 
BRANCH  12  14
ATOM     14  C   UNL     1      -7.031  11.835  20.294  0.00  0.00    +0.000 C 
BRANCH  14  15
ATOM     15  O   UNL     1      -7.171  10.532  20.826  0.00  0.00    +0.000 OA
ATOM     16  H   UNL     1      -7.827  10.578  21.550  0.00  0.00    +0.000 HD
ENDBRANCH  14  15
ENDBRANCH  12  14
ENDBRANCH   7   8
ENDBRANCH   4   7
ENDBRANCH   3   4
ENDBRANCH   2   3
ENDBRANCH   1   2
BRANCH   1  17
ATOM     17  C   UNL     1       1.237   9.203  17.919  0.00  0.00    +0.000 C 
BRANCH  17  18
ATOM     18  C   UNL     1       2.532   8.403  17.890  0.00  0.00    +0.000 C 
BRANCH  18  19
ATOM     19  C   UNL     1       2.271   6.944  18.254  0.00  0.00    +0.000 C 
BRANCH  19  20
ATOM     20  C   UNL     1       2.369   6.752  19.760  0.00  0.00    +0.000 C 
BRANCH  20  21
ATOM     21  C   UNL     1       3.109   5.468  20.109  0.00  0.00    +0.000 C 
BRANCH  21  22
ATOM     22  C   UNL     1       2.202   4.559  20.926  0.00  0.00    +0.000 C 
BRANCH  22  23
ATOM     23  C   UNL     1       1.383   3.647  20.026  0.00  0.00    +0.000 C 
BRANCH  23  24
ATOM     24  C   UNL     1       2.243   2.491  19.538  0.00  0.00    +0.000 C 
BRANCH  24  25
ATOM     25  C   UNL     1       2.006   2.235  18.056  0.00  0.00    +0.000 C 
BRANCH  25  26
ATOM     26  C   UNL     1       2.603   3.362  17.222  0.00  0.00    +0.000 C 
BRANCH  26  27
ATOM     27  C   UNL     1       4.116   3.390  17.375  0.00  0.00    +0.000 C 
BRANCH  27  28
ATOM     28  C   UNL     1       4.713   4.569  16.615  0.00  0.00    +0.000 C 
BRANCH  28  29
ATOM     29  C   UNL     1       6.168   4.780  17.017  0.00  0.00    +0.000 C 
BRANCH  29  31
ATOM     30  C   UNL     1       7.389   5.769  18.969  0.00  0.00    +0.000 C 
ATOM     31  C   UNL     1       6.321   4.783  18.535  0.00  0.00    +0.000 C 
ENDBRANCH  29  31
ENDBRANCH  28  29
ENDBRANCH  27  28
ENDBRANCH  26  27
ENDBRANCH  25  26
ENDBRANCH  24  25
ENDBRANCH  23  24
ENDBRANCH  22  23
ENDBRANCH  21  22
ENDBRANCH  20  21
ENDBRANCH  19  20
ENDBRANCH  18  19
ENDBRANCH  17  18
ENDBRANCH   1  17
TORSDOF 22
ENDMDL
MODEL 4
REMARK VINA RESULT:      -5.5      5.301      8.231
REMARK  Name = 
REMARK  24 active torsions:
REMARK  status: ('A' for Active; 'I' for Inactive)
REMARK    1  A    between atoms: C_1  and  C_2
REMARK    2  A    between atoms: C_2  and  C_3
REMARK    3  A    between atoms: C_3  and  C_4
REMARK    4  A    between atoms: C_4  and  C_5
REMARK    5  A    between atoms: C_5  and  C_6
REMARK    6  A    between atoms: C_6  and  C_7
REMARK    7  A    between atoms: C_7  and  C_8
REMARK    8  A    between atoms: C_8  and  C_9
REMARK    9  A    between atoms: C_9  and  C_10
REMARK   10  A    between atoms: C_10  and  C_11
REMARK   11  A    between atoms: C_11  and  C_12
REMARK   12  A    between atoms: C_12  and  C_13
REMARK   13  A    between atoms: C_13  and  C_14
REMARK   14  A    between atoms: C_14  and  C_15
REMARK   15  A    between atoms: C_15  and  C_16
REMARK   16  A    between atoms: C_16  and  O_17
REMARK   17  A    between atoms: O_17  and  C_18
REMARK   18  A    between atoms: C_18  and  C_19
REMARK   19  A    between atoms: C_19  and  C_20
REMARK   20  A    between atoms: C_19  and  O_29
REMARK   21  A    between atoms: C_20  and  N_21
REMARK   22  A    between atoms: C_25  and  C_26
REMARK   23  A    between atoms: C_26  and  O_27
REMARK   24  A    between atoms: O_29  and  C_30
REMARK                            x       y       z     vdW  Elec       q    Type
REMARK                         _______ _______ _______ _____ _____    ______ ____
ROOT
ATOM      1  C   UNL     1       7.000   4.563  17.866  0.00  0.00    +0.000 C 
ENDROOT
BRANCH   1   2
ATOM      2  O   UNL     1       5.615   4.228  17.796  0.00  0.00    +0.000 OA
BRANCH   2   3
ATOM      3  C   UNL     1       5.014   4.124  19.074  0.00  0.00    +0.000 C 
BRANCH   3   4
ATOM      4  C   UNL     1       3.533   4.504  18.950  0.00  0.00    +0.000 C 
BRANCH   4   5
ATOM      5  O   UNL     1       2.849   3.369  18.434  0.00  0.00    +0.000 OA
ATOM      6  C   UNL     1       1.491   3.570  18.074  0.00  0.00    +0.000 C 
ENDBRANCH   4   5
BRANCH   4   7
ATOM      7  C   UNL     1       3.309   5.831  18.199  0.00  0.00    +0.000 C 
BRANCH   7   8
ATOM      8  N   UNL     1       2.660   6.936  18.964  0.00  0.00    +0.000 N 
ATOM      9  C   UNL     1       2.282   6.692  20.240  0.00  0.00    +0.000 A 
ATOM     10  C   UNL     1       1.465   7.575  20.931  0.00  0.00    +0.000 A 
ATOM     11  C   UNL     1       1.013   8.726  20.295  0.00  0.00    +0.000 A 
ATOM     12  C   UNL     1       1.417   8.988  18.995  0.00  0.00    +0.000 A 
ATOM     13  C   UNL     1       2.258   8.076  18.364  0.00  0.00    +0.000 A 
BRANCH  12  14
ATOM     14  C   UNL     1       0.919  10.166  18.218  0.00  0.00    +0.000 C 
BRANCH  14  15
ATOM     15  O   UNL     1       1.994  10.621  17.419  0.00  0.00    +0.000 OA
ATOM     16  H   UNL     1       1.652  10.751  16.512  0.00  0.00    +0.000 HD
ENDBRANCH  14  15
ENDBRANCH  12  14
ENDBRANCH   7   8
ENDBRANCH   4   7
ENDBRANCH   3   4
ENDBRANCH   2   3
ENDBRANCH   1   2
BRANCH   1  17
ATOM     17  C   UNL     1       7.176   5.875  17.116  0.00  0.00    +0.000 C 
BRANCH  17  18
ATOM     18  C   UNL     1       7.835   6.940  17.980  0.00  0.00    +0.000 C 
BRANCH  18  19
ATOM     19  C   UNL     1       7.284   8.323  17.643  0.00  0.00    +0.000 C 
BRANCH  19  20
ATOM     20  C   UNL     1       8.397   9.359  17.688  0.00  0.00    +0.000 C 
BRANCH  20  21
ATOM     21  C   UNL     1       8.896   9.577  19.109  0.00  0.00    +0.000 C 
BRANCH  21  22
ATOM     22  C   UNL     1       9.966  10.660  19.117  0.00  0.00    +0.000 C 
BRANCH  22  23
ATOM     23  C   UNL     1      10.019  11.372  20.460  0.00  0.00    +0.000 C 
BRANCH  23  24
ATOM     24  C   UNL     1      11.302  12.184  20.567  0.00  0.00    +0.000 C 
BRANCH  24  25
ATOM     25  C   UNL     1      12.153  12.009  19.318  0.00  0.00    +0.000 C 
BRANCH  25  26
ATOM     26  C   UNL     1      12.313  13.341  18.595  0.00  0.00    +0.000 C 
BRANCH  26  27
ATOM     27  C   UNL     1      11.343  13.429  17.427  0.00  0.00    +0.000 C 
BRANCH  27  28
ATOM     28  C   UNL     1      10.377  14.593  17.614  0.00  0.00    +0.000 C 
BRANCH  28  29
ATOM     29  C   UNL     1       9.001  14.084  18.025  0.00  0.00    +0.000 C 
BRANCH  29  31
ATOM     30  C   UNL     1       7.547  15.724  19.239  0.00  0.00    +0.000 C 
ATOM     31  C   UNL     1       8.597  14.640  19.388  0.00  0.00    +0.000 C 
ENDBRANCH  29  31
ENDBRANCH  28  29
ENDBRANCH  27  28
ENDBRANCH  26  27
ENDBRANCH  25  26
ENDBRANCH  24  25
ENDBRANCH  23  24
ENDBRANCH  22  23
ENDBRANCH  21  22
ENDBRANCH  20  21
ENDBRANCH  19  20
ENDBRANCH  18  19
ENDBRANCH  17  18
ENDBRANCH   1  17
TORSDOF 22
ENDMDL
MODEL 5
REMARK VINA RESULT:      -5.4      1.554      2.415
REMARK  Name = 
REMARK  24 active torsions:
REMARK  status: ('A' for Active; 'I' for Inactive)
REMARK    1  A    between atoms: C_1  and  C_2
REMARK    2  A    between atoms: C_2  and  C_3
REMARK    3  A    between atoms: C_3  and  C_4
REMARK    4  A    between atoms: C_4  and  C_5
REMARK    5  A    between atoms: C_5  and  C_6
REMARK    6  A    between atoms: C_6  and  C_7
REMARK    7  A    between atoms: C_7  and  C_8
REMARK    8  A    between atoms: C_8  and  C_9
REMARK    9  A    between atoms: C_9  and  C_10
REMARK   10  A    between atoms: C_10  and  C_11
REMARK   11  A    between atoms: C_11  and  C_12
REMARK   12  A    between atoms: C_12  and  C_13
REMARK   13  A    between atoms: C_13  and  C_14
REMARK   14  A    between atoms: C_14  and  C_15
REMARK   15  A    between atoms: C_15  and  C_16
REMARK   16  A    between atoms: C_16  and  O_17
REMARK   17  A    between atoms: O_17  and  C_18
REMARK   18  A    between atoms: C_18  and  C_19
REMARK   19  A    between atoms: C_19  and  C_20
REMARK   20  A    between atoms: C_19  and  O_29
REMARK   21  A    between atoms: C_20  and  N_21
REMARK   22  A    between atoms: C_25  and  C_26
REMARK   23  A    between atoms: C_26  and  O_27
REMARK   24  A    between atoms: O_29  and  C_30
REMARK                            x       y       z     vdW  Elec       q    Type
REMARK                         _______ _______ _______ _____ _____    ______ ____
ROOT
ATOM      1  C   UNL     1       1.302   8.577  21.475  0.00  0.00    +0.000 C 
ENDROOT
BRANCH   1   2
ATOM      2  O   UNL     1       0.986   9.842  20.896  0.00  0.00    +0.000 OA
BRANCH   2   3
ATOM      3  C   UNL     1      -0.165  10.433  21.471  0.00  0.00    +0.000 C 
BRANCH   3   4
ATOM      4  C   UNL     1      -0.134  11.940  21.190  0.00  0.00    +0.000 C 
BRANCH   4   5
ATOM      5  O   UNL     1      -0.963  12.567  22.160  0.00  0.00    +0.000 OA
ATOM      6  C   UNL     1      -1.756  11.701  22.958  0.00  0.00    +0.000 C 
ENDBRANCH   4   5
BRANCH   4   7
ATOM      7  C   UNL     1      -0.430  12.288  19.718  0.00  0.00    +0.000 C 
BRANCH   7   8
ATOM      8  N   UNL     1      -1.495  11.494  19.039  0.00  0.00    +0.000 N 
ATOM      9  C   UNL     1      -1.113  10.532  18.167  0.00  0.00    +0.000 A 
ATOM     10  C   UNL     1      -2.029   9.920  17.323  0.00  0.00    +0.000 A 
ATOM     11  C   UNL     1      -3.362  10.314  17.362  0.00  0.00    +0.000 A 
ATOM     12  C   UNL     1      -3.758  11.285  18.271  0.00  0.00    +0.000 A 
ATOM     13  C   UNL     1      -2.796  11.842  19.108  0.00  0.00    +0.000 A 
BRANCH  12  14
ATOM     14  C   UNL     1      -5.156  11.813  18.328  0.00  0.00    +0.000 C 
BRANCH  14  15
ATOM     15  O   UNL     1      -5.328  12.654  17.204  0.00  0.00    +0.000 OA
ATOM     16  H   UNL     1      -4.477  12.679  16.722  0.00  0.00    +0.000 HD
ENDBRANCH  14  15
ENDBRANCH  12  14
ENDBRANCH   7   8
ENDBRANCH   4   7
ENDBRANCH   3   4
ENDBRANCH   2   3
ENDBRANCH   1   2
BRANCH   1  17
ATOM     17  C   UNL     1       1.727   7.663  20.335  0.00  0.00    +0.000 C 
BRANCH  17  18
ATOM     18  C   UNL     1       2.149   6.289  20.835  0.00  0.00    +0.000 C 
BRANCH  18  19
ATOM     19  C   UNL     1       1.857   5.222  19.784  0.00  0.00    +0.000 C 
BRANCH  19  20
ATOM     20  C   UNL     1       0.851   4.214  20.322  0.00  0.00    +0.000 C 
BRANCH  20  21
ATOM     21  C   UNL     1       1.547   3.054  21.020  0.00  0.00    +0.000 C 
BRANCH  21  22
ATOM     22  C   UNL     1       2.793   2.659  20.241  0.00  0.00    +0.000 C 
BRANCH  22  23
ATOM     23  C   UNL     1       2.437   1.822  19.022  0.00  0.00    +0.000 C 
BRANCH  23  24
ATOM     24  C   UNL     1       3.517   1.967  17.959  0.00  0.00    +0.000 C 
BRANCH  24  25
ATOM     25  C   UNL     1       3.416   3.322  17.274  0.00  0.00    +0.000 C 
BRANCH  25  26
ATOM     26  C   UNL     1       4.753   4.048  17.337  0.00  0.00    +0.000 C 
BRANCH  26  27
ATOM     27  C   UNL     1       5.139   4.571  15.962  0.00  0.00    +0.000 C 
BRANCH  27  28
ATOM     28  C   UNL     1       5.277   6.088  15.980  0.00  0.00    +0.000 C 
BRANCH  28  29
ATOM     29  C   UNL     1       5.765   6.563  17.343  0.00  0.00    +0.000 C 
BRANCH  29  31
ATOM     30  C   UNL     1       7.867   6.458  18.704  0.00  0.00    +0.000 C 
ATOM     31  C   UNL     1       7.278   6.769  17.342  0.00  0.00    +0.000 C 
ENDBRANCH  29  31
ENDBRANCH  28  29
ENDBRANCH  27  28
ENDBRANCH  26  27
ENDBRANCH  25  26
ENDBRANCH  24  25
ENDBRANCH  23  24
ENDBRANCH  22  23
ENDBRANCH  21  22
ENDBRANCH  20  21
ENDBRANCH  19  20
ENDBRANCH  18  19
ENDBRANCH  17  18
ENDBRANCH   1  17
TORSDOF 22
ENDMDL
MODEL 6
REMARK VINA RESULT:      -5.4      1.828      2.800
REMARK  Name = 
REMARK  24 active torsions:
REMARK  status: ('A' for Active; 'I' for Inactive)
REMARK    1  A    between atoms: C_1  and  C_2
REMARK    2  A    between atoms: C_2  and  C_3
REMARK    3  A    between atoms: C_3  and  C_4
REMARK    4  A    between atoms: C_4  and  C_5
REMARK    5  A    between atoms: C_5  and  C_6
REMARK    6  A    between atoms: C_6  and  C_7
REMARK    7  A    between atoms: C_7  and  C_8
REMARK    8  A    between atoms: C_8  and  C_9
REMARK    9  A    between atoms: C_9  and  C_10
REMARK   10  A    between atoms: C_10  and  C_11
REMARK   11  A    between atoms: C_11  and  C_12
REMARK   12  A    between atoms: C_12  and  C_13
REMARK   13  A    between atoms: C_13  and  C_14
REMARK   14  A    between atoms: C_14  and  C_15
REMARK   15  A    between atoms: C_15  and  C_16
REMARK   16  A    between atoms: C_16  and  O_17
REMARK   17  A    between atoms: O_17  and  C_18
REMARK   18  A    between atoms: C_18  and  C_19
REMARK   19  A    between atoms: C_19  and  C_20
REMARK   20  A    between atoms: C_19  and  O_29
REMARK   21  A    between atoms: C_20  and  N_21
REMARK   22  A    between atoms: C_25  and  C_26
REMARK   23  A    between atoms: C_26  and  O_27
REMARK   24  A    between atoms: O_29  and  C_30
REMARK                            x       y       z     vdW  Elec       q    Type
REMARK                         _______ _______ _______ _____ _____    ______ ____
ROOT
ATOM      1  C   UNL     1       1.634   8.748  18.528  0.00  0.00    +0.000 C 
ENDROOT
BRANCH   1   2
ATOM      2  O   UNL     1       1.339   9.178  19.856  0.00  0.00    +0.000 OA
BRANCH   2   3
ATOM      3  C   UNL     1       0.008   9.638  19.998  0.00  0.00    +0.000 C 
BRANCH   3   4
ATOM      4  C   UNL     1      -0.136  10.959  19.233  0.00  0.00    +0.000 C 
BRANCH   4   5
ATOM      5  O   UNL     1       1.064  11.695  19.433  0.00  0.00    +0.000 OA
ATOM      6  C   UNL     1       1.259  12.815  18.583  0.00  0.00    +0.000 C 
ENDBRANCH   4   5
BRANCH   4   7
ATOM      7  C   UNL     1      -1.449  11.702  19.550  0.00  0.00    +0.000 C 
BRANCH   7   8
ATOM      8  N   UNL     1      -2.498  11.699  18.489  0.00  0.00    +0.000 N 
ATOM      9  C   UNL     1      -3.769  11.989  18.849  0.00  0.00    +0.000 A 
ATOM     10  C   UNL     1      -4.831  11.774  17.982  0.00  0.00    +0.000 A 
ATOM     11  C   UNL     1      -4.586  11.236  16.724  0.00  0.00    +0.000 A 
ATOM     12  C   UNL     1      -3.281  10.959  16.345  0.00  0.00    +0.000 A 
ATOM     13  C   UNL     1      -2.257  11.220  17.251  0.00  0.00    +0.000 A 
BRANCH  12  14
ATOM     14  C   UNL     1      -2.940  10.314  15.039  0.00  0.00    +0.000 C 
BRANCH  14  15
ATOM     15  O   UNL     1      -4.159  10.073  14.364  0.00  0.00    +0.000 OA
ATOM     16  H   UNL     1      -4.431   9.155  14.566  0.00  0.00    +0.000 HD
ENDBRANCH  14  15
ENDBRANCH  12  14
ENDBRANCH   7   8
ENDBRANCH   4   7
ENDBRANCH   3   4
ENDBRANCH   2   3
ENDBRANCH   1   2
BRANCH   1  17
ATOM     17  C   UNL     1       2.268   7.369  18.640  0.00  0.00    +0.000 C 
BRANCH  17  18
ATOM     18  C   UNL     1       2.224   6.837  20.066  0.00  0.00    +0.000 C 
BRANCH  18  19
ATOM     19  C   UNL     1       2.483   5.334  20.087  0.00  0.00    +0.000 C 
BRANCH  19  20
ATOM     20  C   UNL     1       1.329   4.609  20.762  0.00  0.00    +0.000 C 
BRANCH  20  21
ATOM     21  C   UNL     1       1.021   3.288  20.071  0.00  0.00    +0.000 C 
BRANCH  21  22
ATOM     22  C   UNL     1       1.265   3.424  18.575  0.00  0.00    +0.000 C 
BRANCH  22  23
ATOM     23  C   UNL     1       2.195   2.332  18.068  0.00  0.00    +0.000 C 
BRANCH  23  24
ATOM     24  C   UNL     1       3.547   2.930  17.705  0.00  0.00    +0.000 C 
BRANCH  24  25
ATOM     25  C   UNL     1       3.379   4.081  16.724  0.00  0.00    +0.000 C 
BRANCH  25  26
ATOM     26  C   UNL     1       4.480   5.114  16.925  0.00  0.00    +0.000 C 
BRANCH  26  27
ATOM     27  C   UNL     1       5.835   4.519  16.576  0.00  0.00    +0.000 C 
BRANCH  27  28
ATOM     28  C   UNL     1       6.650   4.256  17.837  0.00  0.00    +0.000 C 
BRANCH  28  29
ATOM     29  C   UNL     1       7.901   5.126  17.854  0.00  0.00    +0.000 C 
BRANCH  29  31
ATOM     30  C   UNL     1       7.701   7.609  17.585  0.00  0.00    +0.000 C 
ATOM     31  C   UNL     1       7.636   6.452  18.563  0.00  0.00    +0.000 C 
ENDBRANCH  29  31
ENDBRANCH  28  29
ENDBRANCH  27  28
ENDBRANCH  26  27
ENDBRANCH  25  26
ENDBRANCH  24  25
ENDBRANCH  23  24
ENDBRANCH  22  23
ENDBRANCH  21  22
ENDBRANCH  20  21
ENDBRANCH  19  20
ENDBRANCH  18  19
ENDBRANCH  17  18
ENDBRANCH   1  17
TORSDOF 22
ENDMDL
MODEL 7
REMARK VINA RESULT:      -5.4      1.685      2.614
REMARK  Name = 
REMARK  24 active torsions:
REMARK  status: ('A' for Active; 'I' for Inactive)
REMARK    1  A    between atoms: C_1  and  C_2
REMARK    2  A    between atoms: C_2  and  C_3
REMARK    3  A    between atoms: C_3  and  C_4
REMARK    4  A    between atoms: C_4  and  C_5
REMARK    5  A    between atoms: C_5  and  C_6
REMARK    6  A    between atoms: C_6  and  C_7
REMARK    7  A    between atoms: C_7  and  C_8
REMARK    8  A    between atoms: C_8  and  C_9
REMARK    9  A    between atoms: C_9  and  C_10
REMARK   10  A    between atoms: C_10  and  C_11
REMARK   11  A    between atoms: C_11  and  C_12
REMARK   12  A    between atoms: C_12  and  C_13
REMARK   13  A    between atoms: C_13  and  C_14
REMARK   14  A    between atoms: C_14  and  C_15
REMARK   15  A    between atoms: C_15  and  C_16
REMARK   16  A    between atoms: C_16  and  O_17
REMARK   17  A    between atoms: O_17  and  C_18
REMARK   18  A    between atoms: C_18  and  C_19
REMARK   19  A    between atoms: C_19  and  C_20
REMARK   20  A    between atoms: C_19  and  O_29
REMARK   21  A    between atoms: C_20  and  N_21
REMARK   22  A    between atoms: C_25  and  C_26
REMARK   23  A    between atoms: C_26  and  O_27
REMARK   24  A    between atoms: O_29  and  C_30
REMARK                            x       y       z     vdW  Elec       q    Type
REMARK                         _______ _______ _______ _____ _____    ______ ____
ROOT
ATOM      1  C   UNL     1       1.702   7.987  20.946  0.00  0.00    +0.000 C 
ENDROOT
BRANCH   1   2
ATOM      2  O   UNL     1       0.345   7.872  21.371  0.00  0.00    +0.000 OA
BRANCH   2   3
ATOM      3  C   UNL     1      -0.396   9.059  21.158  0.00  0.00    +0.000 C 
BRANCH   3   4
ATOM      4  C   UNL     1       0.535  10.260  21.366  0.00  0.00    +0.000 C 
BRANCH   4   5
ATOM      5  O   UNL     1       0.205  10.837  22.624  0.00  0.00    +0.000 OA
ATOM      6  C   UNL     1      -0.991  10.369  23.229  0.00  0.00    +0.000 C 
ENDBRANCH   4   5
BRANCH   4   7
ATOM      7  C   UNL     1       0.561  11.224  20.164  0.00  0.00    +0.000 C 
BRANCH   7   8
ATOM      8  N   UNL     1      -0.742  11.491  19.487  0.00  0.00    +0.000 N 
ATOM      9  C   UNL     1      -1.668  12.219  20.153  0.00  0.00    +0.000 A 
ATOM     10  C   UNL     1      -2.977  12.306  19.701  0.00  0.00    +0.000 A 
ATOM     11  C   UNL     1      -3.349  11.620  18.550  0.00  0.00    +0.000 A 
ATOM     12  C   UNL     1      -2.395  10.891  17.855  0.00  0.00    +0.000 A 
ATOM     13  C   UNL     1      -1.093  10.863  18.346  0.00  0.00    +0.000 A 
BRANCH  12  14
ATOM     14  C   UNL     1      -2.729  10.069  16.650  0.00  0.00    +0.000 C 
BRANCH  14  15
ATOM     15  O   UNL     1      -2.180  10.733  15.529  0.00  0.00    +0.000 OA
ATOM     16  H   UNL     1      -1.619  11.461  15.864  0.00  0.00    +0.000 HD
ENDBRANCH  14  15
ENDBRANCH  12  14
ENDBRANCH   7   8
ENDBRANCH   4   7
ENDBRANCH   3   4
ENDBRANCH   2   3
ENDBRANCH   1   2
BRANCH   1  17
ATOM     17  C   UNL     1       2.003   6.764  20.092  0.00  0.00    +0.000 C 
BRANCH  17  18
ATOM     18  C   UNL     1       1.405   5.496  20.684  0.00  0.00    +0.000 C 
BRANCH  18  19
ATOM     19  C   UNL     1       2.486   4.438  20.890  0.00  0.00    +0.000 C 
BRANCH  19  20
ATOM     20  C   UNL     1       2.058   3.119  20.265  0.00  0.00    +0.000 C 
BRANCH  20  21
ATOM     21  C   UNL     1       1.077   3.338  19.121  0.00  0.00    +0.000 C 
BRANCH  21  22
ATOM     22  C   UNL     1       1.816   3.272  17.792  0.00  0.00    +0.000 C 
BRANCH  22  23
ATOM     23  C   UNL     1       3.260   2.837  17.986  0.00  0.00    +0.000 C 
BRANCH  23  24
ATOM     24  C   UNL     1       4.199   3.858  17.358  0.00  0.00    +0.000 C 
BRANCH  24  25
ATOM     25  C   UNL     1       3.641   5.265  17.512  0.00  0.00    +0.000 C 
BRANCH  25  26
ATOM     26  C   UNL     1       4.600   6.284  16.908  0.00  0.00    +0.000 C 
BRANCH  26  27
ATOM     27  C   UNL     1       5.404   5.652  15.782  0.00  0.00    +0.000 C 
BRANCH  27  28
ATOM     28  C   UNL     1       6.881   5.578  16.150  0.00  0.00    +0.000 C 
BRANCH  28  29
ATOM     29  C   UNL     1       7.303   6.822  16.921  0.00  0.00    +0.000 C 
BRANCH  29  31
ATOM     30  C   UNL     1       7.698   4.984  18.579  0.00  0.00    +0.000 C 
ATOM     31  C   UNL     1       7.606   6.485  18.379  0.00  0.00    +0.000 C 
ENDBRANCH  29  31
ENDBRANCH  28  29
ENDBRANCH  27  28
ENDBRANCH  26  27
ENDBRANCH  25  26
ENDBRANCH  24  25
ENDBRANCH  23  24
ENDBRANCH  22  23
ENDBRANCH  21  22
ENDBRANCH  20  21
ENDBRANCH  19  20
ENDBRANCH  18  19
ENDBRANCH  17  18
ENDBRANCH   1  17
TORSDOF 22
ENDMDL
MODEL 8
REMARK VINA RESULT:      -5.3      2.762      9.957
REMARK  Name = 
REMARK  24 active torsions:
REMARK  status: ('A' for Active; 'I' for Inactive)
REMARK    1  A    between atoms: C_1  and  C_2
REMARK    2  A    between atoms: C_2  and  C_3
REMARK    3  A    between atoms: C_3  and  C_4
REMARK    4  A    between atoms: C_4  and  C_5
REMARK    5  A    between atoms: C_5  and  C_6
REMARK    6  A    between atoms: C_6  and  C_7
REMARK    7  A    between atoms: C_7  and  C_8
REMARK    8  A    between atoms: C_8  and  C_9
REMARK    9  A    between atoms: C_9  and  C_10
REMARK   10  A    between atoms: C_10  and  C_11
REMARK   11  A    between atoms: C_11  and  C_12
REMARK   12  A    between atoms: C_12  and  C_13
REMARK   13  A    between atoms: C_13  and  C_14
REMARK   14  A    between atoms: C_14  and  C_15
REMARK   15  A    between atoms: C_15  and  C_16
REMARK   16  A    between atoms: C_16  and  O_17
REMARK   17  A    between atoms: O_17  and  C_18
REMARK   18  A    between atoms: C_18  and  C_19
REMARK   19  A    between atoms: C_19  and  C_20
REMARK   20  A    between atoms: C_19  and  O_29
REMARK   21  A    between atoms: C_20  and  N_21
REMARK   22  A    between atoms: C_25  and  C_26
REMARK   23  A    between atoms: C_26  and  O_27
REMARK   24  A    between atoms: O_29  and  C_30
REMARK                            x       y       z     vdW  Elec       q    Type
REMARK                         _______ _______ _______ _____ _____    ______ ____
ROOT
ATOM      1  C   UNL     1       2.200   7.071  18.130  0.00  0.00    +0.000 C 
ENDROOT
BRANCH   1   2
ATOM      2  O   UNL     1       2.898   6.647  19.300  0.00  0.00    +0.000 OA
BRANCH   2   3
ATOM      3  C   UNL     1       2.230   5.603  19.984  0.00  0.00    +0.000 C 
BRANCH   3   4
ATOM      4  C   UNL     1       2.283   4.339  19.118  0.00  0.00    +0.000 C 
BRANCH   4   5
ATOM      5  O   UNL     1       1.142   3.555  19.445  0.00  0.00    +0.000 OA
ATOM      6  C   UNL     1       0.926   2.402  18.645  0.00  0.00    +0.000 C 
ENDBRANCH   4   5
BRANCH   4   7
ATOM      7  C   UNL     1       3.643   3.617  19.182  0.00  0.00    +0.000 C 
BRANCH   7   8
ATOM      8  N   UNL     1       4.761   4.215  18.395  0.00  0.00    +0.000 N 
ATOM      9  C   UNL     1       4.826   3.941  17.071  0.00  0.00    +0.000 A 
ATOM     10  C   UNL     1       5.954   4.254  16.325  0.00  0.00    +0.000 A 
ATOM     11  C   UNL     1       7.044   4.847  16.953  0.00  0.00    +0.000 A 
ATOM     12  C   UNL     1       6.969   5.149  18.305  0.00  0.00    +0.000 A 
ATOM     13  C   UNL     1       5.801   4.832  18.992  0.00  0.00    +0.000 A 
BRANCH  12  14
ATOM     14  C   UNL     1       8.122   5.721  19.067  0.00  0.00    +0.000 C 
BRANCH  14  15
ATOM     15  O   UNL     1       7.832   5.557  20.442  0.00  0.00    +0.000 OA
ATOM     16  H   UNL     1       8.677   5.623  20.931  0.00  0.00    +0.000 HD
ENDBRANCH  14  15
ENDBRANCH  12  14
ENDBRANCH   7   8
ENDBRANCH   4   7
ENDBRANCH   3   4
ENDBRANCH   2   3
ENDBRANCH   1   2
BRANCH   1  17
ATOM     17  C   UNL     1       2.545   8.538  17.917  0.00  0.00    +0.000 C 
BRANCH  17  18
ATOM     18  C   UNL     1       1.301   9.415  17.883  0.00  0.00    +0.000 C 
BRANCH  18  19
ATOM     19  C   UNL     1       1.643  10.847  18.285  0.00  0.00    +0.000 C 
BRANCH  19  20
ATOM     20  C   UNL     1       1.280  11.086  19.743  0.00  0.00    +0.000 C 
BRANCH  20  21
ATOM     21  C   UNL     1       0.293  10.043  20.248  0.00  0.00    +0.000 C 
BRANCH  21  22
ATOM     22  C   UNL     1      -0.954  10.733  20.782  0.00  0.00    +0.000 C 
BRANCH  22  23
ATOM     23  C   UNL     1      -1.046  12.166  20.283  0.00  0.00    +0.000 C 
BRANCH  23  24
ATOM     24  C   UNL     1      -2.297  12.341  19.433  0.00  0.00    +0.000 C 
BRANCH  24  25
ATOM     25  C   UNL     1      -2.161  11.586  18.118  0.00  0.00    +0.000 C 
BRANCH  25  26
ATOM     26  C   UNL     1      -3.344  10.647  17.922  0.00  0.00    +0.000 C 
BRANCH  26  27
ATOM     27  C   UNL     1      -4.560  11.420  17.435  0.00  0.00    +0.000 C 
BRANCH  27  28
ATOM     28  C   UNL     1      -5.514  11.707  18.589  0.00  0.00    +0.000 C 
BRANCH  28  29
ATOM     29  C   UNL     1      -6.761  10.838  18.478  0.00  0.00    +0.000 C 
BRANCH  29  31
ATOM     30  C   UNL     1      -7.057   8.691  19.736  0.00  0.00    +0.000 C 
ATOM     31  C   UNL     1      -7.107  10.204  19.823  0.00  0.00    +0.000 C 
ENDBRANCH  29  31
ENDBRANCH  28  29
ENDBRANCH  27  28
ENDBRANCH  26  27
ENDBRANCH  25  26
ENDBRANCH  24  25
ENDBRANCH  23  24
ENDBRANCH  22  23
ENDBRANCH  21  22
ENDBRANCH  20  21
ENDBRANCH  19  20
ENDBRANCH  18  19
ENDBRANCH  17  18
ENDBRANCH   1  17
TORSDOF 22
ENDMDL
MODEL 9
REMARK VINA RESULT:      -5.3      1.302      2.011
REMARK  Name = 
REMARK  24 active torsions:
REMARK  status: ('A' for Active; 'I' for Inactive)
REMARK    1  A    between atoms: C_1  and  C_2
REMARK    2  A    between atoms: C_2  and  C_3
REMARK    3  A    between atoms: C_3  and  C_4
REMARK    4  A    between atoms: C_4  and  C_5
REMARK    5  A    between atoms: C_5  and  C_6
REMARK    6  A    between atoms: C_6  and  C_7
REMARK    7  A    between atoms: C_7  and  C_8
REMARK    8  A    between atoms: C_8  and  C_9
REMARK    9  A    between atoms: C_9  and  C_10
REMARK   10  A    between atoms: C_10  and  C_11
REMARK   11  A    between atoms: C_11  and  C_12
REMARK   12  A    between atoms: C_12  and  C_13
REMARK   13  A    between atoms: C_13  and  C_14
REMARK   14  A    between atoms: C_14  and  C_15
REMARK   15  A    between atoms: C_15  and  C_16
REMARK   16  A    between atoms: C_16  and  O_17
REMARK   17  A    between atoms: O_17  and  C_18
REMARK   18  A    between atoms: C_18  and  C_19
REMARK   19  A    between atoms: C_19  and  C_20
REMARK   20  A    between atoms: C_19  and  O_29
REMARK   21  A    between atoms: C_20  and  N_21
REMARK   22  A    between atoms: C_25  and  C_26
REMARK   23  A    between atoms: C_26  and  O_27
REMARK   24  A    between atoms: O_29  and  C_30
REMARK                            x       y       z     vdW  Elec       q    Type
REMARK                         _______ _______ _______ _____ _____    ______ ____
ROOT
ATOM      1  C   UNL     1       2.174   8.826  17.863  0.00  0.00    +0.000 C 
ENDROOT
BRANCH   1   2
ATOM      2  O   UNL     1       1.386   9.975  18.170  0.00  0.00    +0.000 OA
BRANCH   2   3
ATOM      3  C   UNL     1       1.413  10.301  19.548  0.00  0.00    +0.000 C 
BRANCH   3   4
ATOM      4  C   UNL     1       0.173  11.143  19.875  0.00  0.00    +0.000 C 
BRANCH   4   5
ATOM      5  O   UNL     1      -0.657  10.359  20.723  0.00  0.00    +0.000 OA
ATOM      6  C   UNL     1       0.014   9.519  21.650  0.00  0.00    +0.000 C 
ENDBRANCH   4   5
BRANCH   4   7
ATOM      7  C   UNL     1      -0.504  11.737  18.624  0.00  0.00    +0.000 C 
BRANCH   7   8
ATOM      8  N   UNL     1      -1.864  11.224  18.286  0.00  0.00    +0.000 N 
ATOM      9  C   UNL     1      -1.962  10.241  17.362  0.00  0.00    +0.000 A 
ATOM     10  C   UNL     1      -3.188   9.880  16.820  0.00  0.00    +0.000 A 
ATOM     11  C   UNL     1      -4.336  10.554  17.224  0.00  0.00    +0.000 A 
ATOM     12  C   UNL     1      -4.239  11.546  18.188  0.00  0.00    +0.000 A 
ATOM     13  C   UNL     1      -2.984  11.844  18.711  0.00  0.00    +0.000 A 
BRANCH  12  14
ATOM     14  C   UNL     1      -5.414  12.363  18.624  0.00  0.00    +0.000 C 
BRANCH  14  15
ATOM     15  O   UNL     1      -5.825  13.128  17.508  0.00  0.00    +0.000 OA
ATOM     16  H   UNL     1      -6.762  12.910  17.330  0.00  0.00    +0.000 HD
ENDBRANCH  14  15
ENDBRANCH  12  14
ENDBRANCH   7   8
ENDBRANCH   4   7
ENDBRANCH   3   4
ENDBRANCH   2   3
ENDBRANCH   1   2
BRANCH   1  17
ATOM     17  C   UNL     1       2.236   7.982  19.128  0.00  0.00    +0.000 C 
BRANCH  17  18
ATOM     18  C   UNL     1       2.220   6.492  18.819  0.00  0.00    +0.000 C 
BRANCH  18  19
ATOM     19  C   UNL     1       2.566   5.681  20.065  0.00  0.00    +0.000 C 
BRANCH  19  20
ATOM     20  C   UNL     1       1.395   4.795  20.459  0.00  0.00    +0.000 C 
BRANCH  20  21
ATOM     21  C   UNL     1       1.847   3.369  20.740  0.00  0.00    +0.000 C 
BRANCH  21  22
ATOM     22  C   UNL     1       3.243   3.152  20.172  0.00  0.00    +0.000 C 
BRANCH  22  23
ATOM     23  C   UNL     1       3.226   2.127  19.049  0.00  0.00    +0.000 C 
BRANCH  23  24
ATOM     24  C   UNL     1       2.201   2.527  17.997  0.00  0.00    +0.000 C 
BRANCH  24  25
ATOM     25  C   UNL     1       2.817   3.482  16.984  0.00  0.00    +0.000 C 
BRANCH  25  26
ATOM     26  C   UNL     1       4.335   3.488  17.116  0.00  0.00    +0.000 C 
BRANCH  26  27
ATOM     27  C   UNL     1       4.960   4.323  16.010  0.00  0.00    +0.000 C 
BRANCH  27  28
ATOM     28  C   UNL     1       4.896   5.807  16.353  0.00  0.00    +0.000 C 
BRANCH  28  29
ATOM     29  C   UNL     1       6.290   6.345  16.654  0.00  0.00    +0.000 C 
BRANCH  29  31
ATOM     30  C   UNL     1       7.672   5.089  18.324  0.00  0.00    +0.000 C 
ATOM     31  C   UNL     1       6.634   6.177  18.131  0.00  0.00    +0.000 C 
ENDBRANCH  29  31
ENDBRANCH  28  29
ENDBRANCH  27  28
ENDBRANCH  26  27
ENDBRANCH  25  26
ENDBRANCH  24  25
ENDBRANCH  23  24
ENDBRANCH  22  23
ENDBRANCH  21  22
ENDBRANCH  20  21
ENDBRANCH  19  20
ENDBRANCH  18  19
ENDBRANCH  17  18
ENDBRANCH   1  17
TORSDOF 22
ENDMDL
