MODEL 1
REMARK VINA RESULT:      -7.8      0.000      0.000
REMARK  Name = 
REMARK  7 active torsions:
REMARK  status: ('A' for Active; 'I' for Inactive)
REMARK    1  A    between atoms: C_1  and  O_2
REMARK    2  A    between atoms: O_2  and  C_3
REMARK    3  A    between atoms: C_3  and  S_4
REMARK    4  A    between atoms: N_5  and  C_6
REMARK    5  A    between atoms: C_6  and  C_18
REMARK    6  A    between atoms: N_7  and  S_8
REMARK    7  A    between atoms: S_8  and  C_11
REMARK                            x       y       z     vdW  Elec       q    Type
REMARK                         _______ _______ _______ _____ _____    ______ ____
ROOT
ATOM      1  C   UNL     1       3.267   5.953  18.943  0.00  0.00    +0.000 C 
ATOM      2  N   UNL     1       4.528   6.039  19.223  0.00  0.00    +0.000 NA
ENDROOT
BRANCH   1   3
ATOM      3  C   UNL     1       2.481   7.267  18.936  0.00  0.00    +0.000 A 
ATOM      4  C   UNL     1       2.497   8.113  17.814  0.00  0.00    +0.000 A 
ATOM      5  C   UNL     1       1.904   9.381  17.855  0.00  0.00    +0.000 A 
ATOM      6  C   UNL     1       1.270   9.817  19.014  0.00  0.00    +0.000 A 
ATOM      7  C   UNL     1       1.219   8.981  20.128  0.00  0.00    +0.000 A 
ATOM      8  C   UNL     1       1.818   7.713  20.090  0.00  0.00    +0.000 A 
ENDBRANCH   1   3
BRANCH   2   9
ATOM      9  S   UNL     1       5.562   4.819  19.138  0.00  0.00    +0.000 S 
ATOM     10  O   UNL     1       6.838   5.278  19.653  0.00  0.00    +0.000 OA
ATOM     11  O   UNL     1       4.940   3.593  19.609  0.00  0.00    +0.000 OA
BRANCH   9  12
ATOM     12  C   UNL     1       5.959   4.519  17.423  0.00  0.00    +0.000 A 
ATOM     13  C   UNL     1       5.062   3.953  16.516  0.00  0.00    +0.000 A 
ATOM     14  C   UNL     1       5.397   3.953  15.155  0.00  0.00    +0.000 A 
ATOM     15  C   UNL     1       6.605   4.516  14.721  0.00  0.00    +0.000 A 
ATOM     16 CL   UNL     1       6.973   4.582  13.043  0.00  0.00    +0.000 Cl
ATOM     17  C   UNL     1       7.508   5.057  15.636  0.00  0.00    +0.000 A 
ATOM     18  C   UNL     1       7.183   5.053  16.989  0.00  0.00    +0.000 A 
ENDBRANCH   9  12
ENDBRANCH   2   9
BRANCH   1  20
ATOM     19  C   UNL     1       1.705   4.050  18.975  0.00  0.00    +0.000 C 
ATOM     20  N   UNL     1       2.526   4.908  18.462  0.00  0.00    +0.000 NA
BRANCH  19  22
ATOM     21  C   UNL     1       0.628   1.927  18.665  0.00  0.00    +0.000 C 
ATOM     22  O   UNL     1       1.068   3.177  18.138  0.00  0.00    +0.000 OA
ENDBRANCH  19  22
BRANCH  19  23
ATOM     23  S   UNL     1       1.184   3.801  20.612  0.00  0.00    +0.000 S 
ATOM     24  H   UNL     1       0.499   4.926  20.800  0.00  0.00    +0.000 HD
ENDBRANCH  19  23
ENDBRANCH   1  20
TORSDOF 6
ENDMDL
MODEL 2
REMARK VINA RESULT:      -7.7      1.435      1.524
REMARK  Name = 
REMARK  7 active torsions:
REMARK  status: ('A' for Active; 'I' for Inactive)
REMARK    1  A    between atoms: C_1  and  O_2
REMARK    2  A    between atoms: O_2  and  C_3
REMARK    3  A    between atoms: C_3  and  S_4
REMARK    4  A    between atoms: N_5  and  C_6
REMARK    5  A    between atoms: C_6  and  C_18
REMARK    6  A    between atoms: N_7  and  S_8
REMARK    7  A    between atoms: S_8  and  C_11
REMARK                            x       y       z     vdW  Elec       q    Type
REMARK                         _______ _______ _______ _____ _____    ______ ____
ROOT
ATOM      1  C   UNL     1       3.316   5.834  19.195  0.00  0.00    +0.000 C 
ATOM      2  N   UNL     1       4.035   5.550  18.157  0.00  0.00    +0.000 NA
ENDROOT
BRANCH   1   3
ATOM      3  C   UNL     1       2.479   7.115  19.114  0.00  0.00    +0.000 A 
ATOM      4  C   UNL     1       2.437   7.877  17.935  0.00  0.00    +0.000 A 
ATOM      5  C   UNL     1       1.797   9.122  17.900  0.00  0.00    +0.000 A 
ATOM      6  C   UNL     1       1.173   9.617  19.041  0.00  0.00    +0.000 A 
ATOM      7  C   UNL     1       1.180   8.863  20.213  0.00  0.00    +0.000 A 
ATOM      8  C   UNL     1       1.827   7.618  20.251  0.00  0.00    +0.000 A 
ENDBRANCH   1   3
BRANCH   2   9
ATOM      9  S   UNL     1       4.862   4.192  17.969  0.00  0.00    +0.000 S 
ATOM     10  O   UNL     1       5.948   4.193  18.931  0.00  0.00    +0.000 OA
ATOM     11  O   UNL     1       3.958   3.062  17.833  0.00  0.00    +0.000 OA
BRANCH   9  12
ATOM     12  C   UNL     1       5.756   4.270  16.426  0.00  0.00    +0.000 A 
ATOM     13  C   UNL     1       5.250   3.779  15.221  0.00  0.00    +0.000 A 
ATOM     14  C   UNL     1       5.937   4.075  14.036  0.00  0.00    +0.000 A 
ATOM     15  C   UNL     1       7.103   4.852  14.067  0.00  0.00    +0.000 A 
ATOM     16 CL   UNL     1       7.897   5.277  12.603  0.00  0.00    +0.000 Cl
ATOM     17  C   UNL     1       7.616   5.318  15.277  0.00  0.00    +0.000 A 
ATOM     18  C   UNL     1       6.941   5.021  16.457  0.00  0.00    +0.000 A 
ENDBRANCH   9  12
ENDBRANCH   2   9
BRANCH   1  20
ATOM     19  C   UNL     1       2.155   4.168  20.588  0.00  0.00    +0.000 C 
ATOM     20  N   UNL     1       3.014   5.093  20.306  0.00  0.00    +0.000 NA
BRANCH  19  22
ATOM     21  C   UNL     1       1.469   2.384  22.040  0.00  0.00    +0.000 C 
ATOM     22  O   UNL     1       2.211   3.582  21.822  0.00  0.00    +0.000 OA
ENDBRANCH  19  22
BRANCH  19  23
ATOM     23  S   UNL     1       0.894   3.447  19.637  0.00  0.00    +0.000 S 
ATOM     24  H   UNL     1      -0.132   3.612  20.468  0.00  0.00    +0.000 HD
ENDBRANCH  19  23
ENDBRANCH   1  20
TORSDOF 6
ENDMDL
MODEL 3
REMARK VINA RESULT:      -7.6      0.715      1.258
REMARK  Name = 
REMARK  7 active torsions:
REMARK  status: ('A' for Active; 'I' for Inactive)
REMARK    1  A    between atoms: C_1  and  O_2
REMARK    2  A    between atoms: O_2  and  C_3
REMARK    3  A    between atoms: C_3  and  S_4
REMARK    4  A    between atoms: N_5  and  C_6
REMARK    5  A    between atoms: C_6  and  C_18
REMARK    6  A    between atoms: N_7  and  S_8
REMARK    7  A    between atoms: S_8  and  C_11
REMARK                            x       y       z     vdW  Elec       q    Type
REMARK                         _______ _______ _______ _____ _____    ______ ____
ROOT
ATOM      1  C   UNL     1       3.301   5.723  19.353  0.00  0.00    +0.000 C 
ATOM      2  N   UNL     1       4.577   5.947  19.365  0.00  0.00    +0.000 NA
ENDROOT
BRANCH   1   3
ATOM      3  C   UNL     1       2.394   6.944  19.537  0.00  0.00    +0.000 A 
ATOM      4  C   UNL     1       2.252   7.900  18.517  0.00  0.00    +0.000 A 
ATOM      5  C   UNL     1       1.546   9.089  18.732  0.00  0.00    +0.000 A 
ATOM      6  C   UNL     1       0.955   9.334  19.967  0.00  0.00    +0.000 A 
ATOM      7  C   UNL     1       1.061   8.386  20.982  0.00  0.00    +0.000 A 
ATOM      8  C   UNL     1       1.774   7.197  20.770  0.00  0.00    +0.000 A 
ENDBRANCH   1   3
BRANCH   2   9
ATOM      9  S   UNL     1       5.694   4.846  19.041  0.00  0.00    +0.000 S 
ATOM     10  O   UNL     1       6.975   5.370  19.475  0.00  0.00    +0.000 OA
ATOM     11  O   UNL     1       5.232   3.525  19.429  0.00  0.00    +0.000 OA
BRANCH   9  12
ATOM     12  C   UNL     1       5.927   4.765  17.272  0.00  0.00    +0.000 A 
ATOM     13  C   UNL     1       7.108   5.150  16.636  0.00  0.00    +0.000 A 
ATOM     14  C   UNL     1       7.263   4.852  15.275  0.00  0.00    +0.000 A 
ATOM     15  C   UNL     1       6.252   4.178  14.576  0.00  0.00    +0.000 A 
ATOM     16 CL   UNL     1       6.481   3.748  12.928  0.00  0.00    +0.000 Cl
ATOM     17  C   UNL     1       5.064   3.820  15.213  0.00  0.00    +0.000 A 
ATOM     18  C   UNL     1       4.903   4.119  16.562  0.00  0.00    +0.000 A 
ENDBRANCH   9  12
ENDBRANCH   2   9
BRANCH   1  20
ATOM     19  C   UNL     1       1.998   3.658  19.672  0.00  0.00    +0.000 C 
ATOM     20  N   UNL     1       2.592   4.602  19.016  0.00  0.00    +0.000 NA
BRANCH  19  22
ATOM     21  C   UNL     1       1.992   1.921  18.015  0.00  0.00    +0.000 C 
ATOM     22  O   UNL     1       1.295   2.720  18.969  0.00  0.00    +0.000 OA
ENDBRANCH  19  22
BRANCH  19  23
ATOM     23  S   UNL     1       1.871   3.352  21.376  0.00  0.00    +0.000 S 
ATOM     24  H   UNL     1       1.405   2.107  21.343  0.00  0.00    +0.000 HD
ENDBRANCH  19  23
ENDBRANCH   1  20
TORSDOF 6
ENDMDL
MODEL 4
REMARK VINA RESULT:      -7.6      1.436      1.835
REMARK  Name = 
REMARK  7 active torsions:
REMARK  status: ('A' for Active; 'I' for Inactive)
REMARK    1  A    between atoms: C_1  and  O_2
REMARK    2  A    between atoms: O_2  and  C_3
REMARK    3  A    between atoms: C_3  and  S_4
REMARK    4  A    between atoms: N_5  and  C_6
REMARK    5  A    between atoms: C_6  and  C_18
REMARK    6  A    between atoms: N_7  and  S_8
REMARK    7  A    between atoms: S_8  and  C_11
REMARK                            x       y       z     vdW  Elec       q    Type
REMARK                         _______ _______ _______ _____ _____    ______ ____
ROOT
ATOM      1  C   UNL     1       3.311   5.983  19.175  0.00  0.00    +0.000 C 
ATOM      2  N   UNL     1       4.000   5.660  18.127  0.00  0.00    +0.000 NA
ENDROOT
BRANCH   1   3
ATOM      3  C   UNL     1       2.566   7.320  19.114  0.00  0.00    +0.000 A 
ATOM      4  C   UNL     1       1.860   7.806  20.227  0.00  0.00    +0.000 A 
ATOM      5  C   UNL     1       1.057   8.948  20.134  0.00  0.00    +0.000 A 
ATOM      6  C   UNL     1       0.960   9.635  18.928  0.00  0.00    +0.000 A 
ATOM      7  C   UNL     1       1.675   9.185  17.819  0.00  0.00    +0.000 A 
ATOM      8  C   UNL     1       2.475   8.037  17.910  0.00  0.00    +0.000 A 
ENDBRANCH   1   3
BRANCH   2   9
ATOM      9  S   UNL     1       4.727   4.248  17.918  0.00  0.00    +0.000 S 
ATOM     10  O   UNL     1       5.791   4.145  18.899  0.00  0.00    +0.000 OA
ATOM     11  O   UNL     1       3.744   3.194  17.737  0.00  0.00    +0.000 OA
BRANCH   9  12
ATOM     12  C   UNL     1       5.655   4.298  16.394  0.00  0.00    +0.000 A 
ATOM     13  C   UNL     1       5.147   3.851  15.172  0.00  0.00    +0.000 A 
ATOM     14  C   UNL     1       5.873   4.125  14.006  0.00  0.00    +0.000 A 
ATOM     15  C   UNL     1       7.078   4.838  14.070  0.00  0.00    +0.000 A 
ATOM     16 CL   UNL     1       7.923   5.238  12.627  0.00  0.00    +0.000 Cl
ATOM     17  C   UNL     1       7.591   5.259  15.296  0.00  0.00    +0.000 A 
ATOM     18  C   UNL     1       6.877   4.984  16.459  0.00  0.00    +0.000 A 
ENDBRANCH   9  12
ENDBRANCH   2   9
BRANCH   1  20
ATOM     19  C   UNL     1       2.105   4.323  20.537  0.00  0.00    +0.000 C 
ATOM     20  N   UNL     1       2.967   5.253  20.280  0.00  0.00    +0.000 NA
BRANCH  19  22
ATOM     21  C   UNL     1       1.849   2.356  21.889  0.00  0.00    +0.000 C 
ATOM     22  O   UNL     1       2.111   3.754  21.779  0.00  0.00    +0.000 OA
ENDBRANCH  19  22
BRANCH  19  23
ATOM     23  S   UNL     1       0.895   3.576  19.539  0.00  0.00    +0.000 S 
ATOM     24  H   UNL     1       1.616   3.362  18.441  0.00  0.00    +0.000 HD
ENDBRANCH  19  23
ENDBRANCH   1  20
TORSDOF 6
ENDMDL
MODEL 5
REMARK VINA RESULT:      -7.6      1.059      1.107
REMARK  Name = 
REMARK  7 active torsions:
REMARK  status: ('A' for Active; 'I' for Inactive)
REMARK    1  A    between atoms: C_1  and  O_2
REMARK    2  A    between atoms: O_2  and  C_3
REMARK    3  A    between atoms: C_3  and  S_4
REMARK    4  A    between atoms: N_5  and  C_6
REMARK    5  A    between atoms: C_6  and  C_18
REMARK    6  A    between atoms: N_7  and  S_8
REMARK    7  A    between atoms: S_8  and  C_11
REMARK                            x       y       z     vdW  Elec       q    Type
REMARK                         _______ _______ _______ _____ _____    ______ ____
ROOT
ATOM      1  C   UNL     1       3.296   5.918  19.593  0.00  0.00    +0.000 C 
ATOM      2  N   UNL     1       4.503   6.010  19.133  0.00  0.00    +0.000 NA
ENDROOT
BRANCH   1   3
ATOM      3  C   UNL     1       2.411   7.158  19.434  0.00  0.00    +0.000 A 
ATOM      4  C   UNL     1       2.346   7.849  18.213  0.00  0.00    +0.000 A 
ATOM      5  C   UNL     1       1.659   9.064  18.103  0.00  0.00    +0.000 A 
ATOM      6  C   UNL     1       1.010   9.599  19.211  0.00  0.00    +0.000 A 
ATOM      7  C   UNL     1       1.038   8.915  20.424  0.00  0.00    +0.000 A 
ATOM      8  C   UNL     1       1.732   7.701  20.537  0.00  0.00    +0.000 A 
ENDBRANCH   1   3
BRANCH   2   9
ATOM      9  S   UNL     1       5.541   4.793  19.057  0.00  0.00    +0.000 S 
ATOM     10  O   UNL     1       6.830   5.277  19.513  0.00  0.00    +0.000 OA
ATOM     11  O   UNL     1       4.942   3.582  19.592  0.00  0.00    +0.000 OA
BRANCH   9  12
ATOM     12  C   UNL     1       5.883   4.433  17.342  0.00  0.00    +0.000 A 
ATOM     13  C   UNL     1       4.915   3.973  16.447  0.00  0.00    +0.000 A 
ATOM     14  C   UNL     1       5.235   3.922  15.084  0.00  0.00    +0.000 A 
ATOM     15  C   UNL     1       6.499   4.330  14.635  0.00  0.00    +0.000 A 
ATOM     16 CL   UNL     1       6.857   4.337  12.954  0.00  0.00    +0.000 Cl
ATOM     17  C   UNL     1       7.469   4.764  15.538  0.00  0.00    +0.000 A 
ATOM     18  C   UNL     1       7.158   4.811  16.894  0.00  0.00    +0.000 A 
ENDBRANCH   9  12
ENDBRANCH   2   9
BRANCH   1  20
ATOM     19  C   UNL     1       1.846   3.931  19.488  0.00  0.00    +0.000 C 
ATOM     20  N   UNL     1       2.588   4.835  20.039  0.00  0.00    +0.000 NA
BRANCH  19  22
ATOM     21  C   UNL     1       1.837   2.807  21.609  0.00  0.00    +0.000 C 
ATOM     22  O   UNL     1       1.358   2.922  20.270  0.00  0.00    +0.000 OA
ENDBRANCH  19  22
BRANCH  19  23
ATOM     23  S   UNL     1       1.351   3.704  17.839  0.00  0.00    +0.000 S 
ATOM     24  H   UNL     1       1.762   2.452  17.655  0.00  0.00    +0.000 HD
ENDBRANCH  19  23
ENDBRANCH   1  20
TORSDOF 6
ENDMDL
MODEL 6
REMARK VINA RESULT:      -7.4      0.734      1.242
REMARK  Name = 
REMARK  7 active torsions:
REMARK  status: ('A' for Active; 'I' for Inactive)
REMARK    1  A    between atoms: C_1  and  O_2
REMARK    2  A    between atoms: O_2  and  C_3
REMARK    3  A    between atoms: C_3  and  S_4
REMARK    4  A    between atoms: N_5  and  C_6
REMARK    5  A    between atoms: C_6  and  C_18
REMARK    6  A    between atoms: N_7  and  S_8
REMARK    7  A    between atoms: S_8  and  C_11
REMARK                            x       y       z     vdW  Elec       q    Type
REMARK                         _______ _______ _______ _____ _____    ______ ____
ROOT
ATOM      1  C   UNL     1       3.019   5.870  19.019  0.00  0.00    +0.000 C 
ATOM      2  N   UNL     1       4.292   5.784  18.799  0.00  0.00    +0.000 NA
ENDROOT
BRANCH   1   3
ATOM      3  C   UNL     1       2.426   7.282  19.047  0.00  0.00    +0.000 A 
ATOM      4  C   UNL     1       1.851   7.802  20.218  0.00  0.00    +0.000 A 
ATOM      5  C   UNL     1       1.177   9.029  20.211  0.00  0.00    +0.000 A 
ATOM      6  C   UNL     1       1.082   9.765  19.035  0.00  0.00    +0.000 A 
ATOM      7  C   UNL     1       1.671   9.280  17.869  0.00  0.00    +0.000 A 
ATOM      8  C   UNL     1       2.341   8.048  17.873  0.00  0.00    +0.000 A 
ENDBRANCH   1   3
BRANCH   2   9
ATOM      9  S   UNL     1       5.084   4.410  18.579  0.00  0.00    +0.000 S 
ATOM     10  O   UNL     1       6.297   4.462  19.373  0.00  0.00    +0.000 OA
ATOM     11  O   UNL     1       4.171   3.282  18.644  0.00  0.00    +0.000 OA
BRANCH   9  12
ATOM     12  C   UNL     1       5.747   4.387  16.921  0.00  0.00    +0.000 A 
ATOM     13  C   UNL     1       4.964   4.175  15.785  0.00  0.00    +0.000 A 
ATOM     14  C   UNL     1       5.543   4.383  14.526  0.00  0.00    +0.000 A 
ATOM     15  C   UNL     1       6.877   4.800  14.417  0.00  0.00    +0.000 A 
ATOM     16 CL   UNL     1       7.555   5.128  12.872  0.00  0.00    +0.000 Cl
ATOM     17  C   UNL     1       7.660   4.984  15.556  0.00  0.00    +0.000 A 
ATOM     18  C   UNL     1       7.092   4.773  16.809  0.00  0.00    +0.000 A 
ENDBRANCH   9  12
ENDBRANCH   2   9
BRANCH   1  20
ATOM     19  C   UNL     1       1.629   4.051  19.927  0.00  0.00    +0.000 C 
ATOM     20  N   UNL     1       2.048   4.905  19.050  0.00  0.00    +0.000 NA
BRANCH  19  22
ATOM     21  C   UNL     1       0.726   2.161  18.754  0.00  0.00    +0.000 C 
ATOM     22  O   UNL     1       0.543   3.281  19.618  0.00  0.00    +0.000 OA
ENDBRANCH  19  22
BRANCH  19  23
ATOM     23  S   UNL     1       2.178   3.698  21.536  0.00  0.00    +0.000 S 
ATOM     24  H   UNL     1       1.442   4.573  22.217  0.00  0.00    +0.000 HD
ENDBRANCH  19  23
ENDBRANCH   1  20
TORSDOF 6
ENDMDL
MODEL 7
REMARK VINA RESULT:      -7.4      0.671      1.573
REMARK  Name = 
REMARK  7 active torsions:
REMARK  status: ('A' for Active; 'I' for Inactive)
REMARK    1  A    between atoms: C_1  and  O_2
REMARK    2  A    between atoms: O_2  and  C_3
REMARK    3  A    between atoms: C_3  and  S_4
REMARK    4  A    between atoms: N_5  and  C_6
REMARK    5  A    between atoms: C_6  and  C_18
REMARK    6  A    between atoms: N_7  and  S_8
REMARK    7  A    between atoms: S_8  and  C_11
REMARK                            x       y       z     vdW  Elec       q    Type
REMARK                         _______ _______ _______ _____ _____    ______ ____
ROOT
ATOM      1  C   UNL     1       3.122   5.943  19.265  0.00  0.00    +0.000 C 
ATOM      2  N   UNL     1       4.408   5.989  19.121  0.00  0.00    +0.000 NA
ENDROOT
BRANCH   1   3
ATOM      3  C   UNL     1       2.404   7.289  19.398  0.00  0.00    +0.000 A 
ATOM      4  C   UNL     1       1.721   7.632  20.577  0.00  0.00    +0.000 A 
ATOM      5  C   UNL     1       0.940   8.791  20.652  0.00  0.00    +0.000 A 
ATOM      6  C   UNL     1       0.843   9.637  19.552  0.00  0.00    +0.000 A 
ATOM      7  C   UNL     1       1.535   9.330  18.382  0.00  0.00    +0.000 A 
ATOM      8  C   UNL     1       2.313   8.165  18.304  0.00  0.00    +0.000 A 
ENDBRANCH   1   3
BRANCH   2   9
ATOM      9  S   UNL     1       5.333   4.718  18.814  0.00  0.00    +0.000 S 
ATOM     10  O   UNL     1       6.626   4.948  19.429  0.00  0.00    +0.000 OA
ATOM     11  O   UNL     1       4.590   3.487  19.026  0.00  0.00    +0.000 OA
BRANCH   9  12
ATOM     12  C   UNL     1       5.759   4.720  17.080  0.00  0.00    +0.000 A 
ATOM     13  C   UNL     1       7.036   5.025  16.605  0.00  0.00    +0.000 A 
ATOM     14  C   UNL     1       7.318   4.796  15.252  0.00  0.00    +0.000 A 
ATOM     15  C   UNL     1       6.337   4.267  14.401  0.00  0.00    +0.000 A 
ATOM     16 CL   UNL     1       6.714   3.916  12.761  0.00  0.00    +0.000 Cl
ATOM     17  C   UNL     1       5.056   3.989  14.878  0.00  0.00    +0.000 A 
ATOM     18  C   UNL     1       4.769   4.221  16.220  0.00  0.00    +0.000 A 
ENDBRANCH   9  12
ENDBRANCH   2   9
BRANCH   1  20
ATOM     19  C   UNL     1       1.773   3.991  19.923  0.00  0.00    +0.000 C 
ATOM     20  N   UNL     1       2.243   4.902  19.134  0.00  0.00    +0.000 NA
BRANCH  19  22
ATOM     21  C   UNL     1       1.208   2.102  18.552  0.00  0.00    +0.000 C 
ATOM     22  O   UNL     1       0.813   3.145  19.442  0.00  0.00    +0.000 OA
ENDBRANCH  19  22
BRANCH  19  23
ATOM     23  S   UNL     1       2.108   3.634  21.589  0.00  0.00    +0.000 S 
ATOM     24  H   UNL     1       0.963   4.036  22.135  0.00  0.00    +0.000 HD
ENDBRANCH  19  23
ENDBRANCH   1  20
TORSDOF 6
ENDMDL
MODEL 8
REMARK VINA RESULT:      -7.3      1.033      1.472
REMARK  Name = 
REMARK  7 active torsions:
REMARK  status: ('A' for Active; 'I' for Inactive)
REMARK    1  A    between atoms: C_1  and  O_2
REMARK    2  A    between atoms: O_2  and  C_3
REMARK    3  A    between atoms: C_3  and  S_4
REMARK    4  A    between atoms: N_5  and  C_6
REMARK    5  A    between atoms: C_6  and  C_18
REMARK    6  A    between atoms: N_7  and  S_8
REMARK    7  A    between atoms: S_8  and  C_11
REMARK                            x       y       z     vdW  Elec       q    Type
REMARK                         _______ _______ _______ _____ _____    ______ ____
ROOT
ATOM      1  C   UNL     1       3.376   5.937  19.578  0.00  0.00    +0.000 C 
ATOM      2  N   UNL     1       4.601   5.993  19.163  0.00  0.00    +0.000 NA
ENDROOT
BRANCH   1   3
ATOM      3  C   UNL     1       2.557   7.226  19.459  0.00  0.00    +0.000 A 
ATOM      4  C   UNL     1       1.780   7.691  20.532  0.00  0.00    +0.000 A 
ATOM      5  C   UNL     1       0.915   8.782  20.382  0.00  0.00    +0.000 A 
ATOM      6  C   UNL     1       0.826   9.437  19.158  0.00  0.00    +0.000 A 
ATOM      7  C   UNL     1       1.610   9.008  18.088  0.00  0.00    +0.000 A 
ATOM      8  C   UNL     1       2.472   7.911  18.236  0.00  0.00    +0.000 A 
ENDBRANCH   1   3
BRANCH   2   9
ATOM      9  S   UNL     1       5.581   4.732  19.055  0.00  0.00    +0.000 S 
ATOM     10  O   UNL     1       6.892   5.145  19.519  0.00  0.00    +0.000 OA
ATOM     11  O   UNL     1       4.928   3.537  19.561  0.00  0.00    +0.000 OA
BRANCH   9  12
ATOM     12  C   UNL     1       5.905   4.399  17.331  0.00  0.00    +0.000 A 
ATOM     13  C   UNL     1       4.923   3.969  16.436  0.00  0.00    +0.000 A 
ATOM     14  C   UNL     1       5.232   3.938  15.069  0.00  0.00    +0.000 A 
ATOM     15  C   UNL     1       6.497   4.338  14.617  0.00  0.00    +0.000 A 
ATOM     16 CL   UNL     1       6.841   4.372  12.933  0.00  0.00    +0.000 Cl
ATOM     17  C   UNL     1       7.480   4.743  15.519  0.00  0.00    +0.000 A 
ATOM     18  C   UNL     1       7.181   4.768  16.878  0.00  0.00    +0.000 A 
ENDBRANCH   9  12
ENDBRANCH   2   9
BRANCH   1  20
ATOM     19  C   UNL     1       1.823   4.043  19.323  0.00  0.00    +0.000 C 
ATOM     20  N   UNL     1       2.602   4.869  19.943  0.00  0.00    +0.000 NA
BRANCH  19  22
ATOM     21  C   UNL     1       1.528   2.934  21.432  0.00  0.00    +0.000 C 
ATOM     22  O   UNL     1       1.267   3.015  20.032  0.00  0.00    +0.000 OA
ENDBRANCH  19  22
BRANCH  19  23
ATOM     23  S   UNL     1       1.348   3.949  17.655  0.00  0.00    +0.000 S 
ATOM     24  H   UNL     1       0.105   4.415  17.753  0.00  0.00    +0.000 HD
ENDBRANCH  19  23
ENDBRANCH   1  20
TORSDOF 6
ENDMDL
MODEL 9
REMARK VINA RESULT:      -7.3      1.183      1.530
REMARK  Name = 
REMARK  7 active torsions:
REMARK  status: ('A' for Active; 'I' for Inactive)
REMARK    1  A    between atoms: C_1  and  O_2
REMARK    2  A    between atoms: O_2  and  C_3
REMARK    3  A    between atoms: C_3  and  S_4
REMARK    4  A    between atoms: N_5  and  C_6
REMARK    5  A    between atoms: C_6  and  C_18
REMARK    6  A    between atoms: N_7  and  S_8
REMARK    7  A    between atoms: S_8  and  C_11
REMARK                            x       y       z     vdW  Elec       q    Type
REMARK                         _______ _______ _______ _____ _____    ______ ____
ROOT
ATOM      1  C   UNL     1       3.102   6.060  19.778  0.00  0.00    +0.000 C 
ATOM      2  N   UNL     1       4.304   6.182  19.313  0.00  0.00    +0.000 NA
ENDROOT
BRANCH   1   3
ATOM      3  C   UNL     1       2.214   7.306  19.706  0.00  0.00    +0.000 A 
ATOM      4  C   UNL     1       2.177   8.102  18.549  0.00  0.00    +0.000 A 
ATOM      5  C   UNL     1       1.486   9.319  18.529  0.00  0.00    +0.000 A 
ATOM      6  C   UNL     1       0.805   9.752  19.662  0.00  0.00    +0.000 A 
ATOM      7  C   UNL     1       0.805   8.963  20.810  0.00  0.00    +0.000 A 
ATOM      8  C   UNL     1       1.503   7.747  20.834  0.00  0.00    +0.000 A 
ENDBRANCH   1   3
BRANCH   2   9
ATOM      9  S   UNL     1       5.342   4.973  19.152  0.00  0.00    +0.000 S 
ATOM     10  O   UNL     1       6.598   5.381  19.751  0.00  0.00    +0.000 OA
ATOM     11  O   UNL     1       4.706   3.710  19.486  0.00  0.00    +0.000 OA
BRANCH   9  12
ATOM     12  C   UNL     1       5.799   4.832  17.432  0.00  0.00    +0.000 A 
ATOM     13  C   UNL     1       7.096   4.544  17.004  0.00  0.00    +0.000 A 
ATOM     14  C   UNL     1       7.305   4.250  15.650  0.00  0.00    +0.000 A 
ATOM     15  C   UNL     1       6.229   4.241  14.751  0.00  0.00    +0.000 A 
ATOM     16 CL   UNL     1       6.480   3.804  13.108  0.00  0.00    +0.000 Cl
ATOM     17  C   UNL     1       4.940   4.555  15.181  0.00  0.00    +0.000 A 
ATOM     18  C   UNL     1       4.729   4.854  16.524  0.00  0.00    +0.000 A 
ENDBRANCH   9  12
ENDBRANCH   2   9
BRANCH   1  20
ATOM     19  C   UNL     1       1.722   4.032  19.554  0.00  0.00    +0.000 C 
ATOM     20  N   UNL     1       2.399   4.950  20.164  0.00  0.00    +0.000 NA
BRANCH  19  22
ATOM     21  C   UNL     1       1.839   2.678  21.532  0.00  0.00    +0.000 C 
ATOM     22  O   UNL     1       1.216   2.998  20.290  0.00  0.00    +0.000 OA
ENDBRANCH  19  22
BRANCH  19  23
ATOM     23  S   UNL     1       1.342   3.816  17.873  0.00  0.00    +0.000 S 
ATOM     24  H   UNL     1       1.594   2.514  17.756  0.00  0.00    +0.000 HD
ENDBRANCH  19  23
ENDBRANCH   1  20
TORSDOF 6
ENDMDL
