MODEL 1
REMARK VINA RESULT:      -7.9      0.000      0.000
REMARK  Name = 
REMARK  5 active torsions:
REMARK  status: ('A' for Active; 'I' for Inactive)
REMARK    1  A    between atoms: C_2  and  O_14
REMARK    2  A    between atoms: N_3  and  C_4
REMARK    3  A    between atoms: O_14  and  C_15
REMARK    4  A    between atoms: C_21  and  C_22
REMARK    5  A    between atoms: N_24  and  C_25
REMARK                            x       y       z     vdW  Elec       q    Type
REMARK                         _______ _______ _______ _____ _____    ______ ____
ROOT
ATOM      1  C   UNL     1       7.897   6.845  18.468  0.00  0.00    +0.000 A 
ATOM      2  C   UNL     1       8.644   7.595  19.392  0.00  0.00    +0.000 A 
ATOM      3  C   UNL     1       8.884   8.953  19.175  0.00  0.00    +0.000 A 
ATOM      4  C   UNL     1       8.398   9.564  18.024  0.00  0.00    +0.000 A 
ATOM      5 CL   UNL     1       8.715  11.230  17.740  0.00  0.00    +0.000 Cl
ATOM      6  C   UNL     1       7.683   8.824  17.086  0.00  0.00    +0.000 A 
ATOM      7  C   UNL     1       7.432   7.452  17.294  0.00  0.00    +0.000 A 
ENDROOT
BRANCH   7   8
ATOM      8  C   UNL     1       6.768   6.745  16.167  0.00  0.00    +0.000 C 
ATOM      9  O   UNL     1       5.584   7.011  15.976  0.00  0.00    +0.000 OA
ATOM     10  N   UNL     1       7.505   5.796  15.481  0.00  0.00    +0.000 N 
ATOM     11  H   UNL     1       8.421   5.563  15.846  0.00  0.00    +0.000 HD
BRANCH  10  12
ATOM     12  C   UNL     1       7.009   4.986  14.426  0.00  0.00    +0.000 A 
ATOM     13  C   UNL     1       7.580   4.958  13.147  0.00  0.00    +0.000 A 
ATOM     14  C   UNL     1       7.019   4.190  12.123  0.00  0.00    +0.000 A 
ATOM     15  C   UNL     1       5.879   3.439  12.373  0.00  0.00    +0.000 A 
ATOM     16 CL   UNL     1       5.166   2.523  11.102  0.00  0.00    +0.000 Cl
ATOM     17  C   UNL     1       5.312   3.429  13.646  0.00  0.00    +0.000 A 
ATOM     18  C   UNL     1       5.884   4.194  14.673  0.00  0.00    +0.000 A 
ENDBRANCH  10  12
ENDBRANCH   7   8
BRANCH   1  19
ATOM     19  O   UNL     1       7.766   5.451  18.654  0.00  0.00    +0.000 OA
BRANCH  19  21
ATOM     20  O   UNL     1       6.477   4.690  20.427  0.00  0.00    +0.000 OA
ATOM     21  C   UNL     1       6.596   4.973  19.244  0.00  0.00    +0.000 C 
ATOM     22  N   UNL     1       5.621   4.849  18.292  0.00  0.00    +0.000 N 
ATOM     23  H   UNL     1       5.910   5.090  17.353  0.00  0.00    +0.000 HD
BRANCH  22  24
ATOM     24  C   UNL     1       4.303   4.239  18.496  0.00  0.00    +0.000 C 
ATOM     25  C   UNL     1       3.323   5.214  19.193  0.00  0.00    +0.000 C 
ATOM     26  C   UNL     1       1.932   4.571  19.344  0.00  0.00    +0.000 C 
ATOM     27  C   UNL     1       1.380   4.220  17.955  0.00  0.00    +0.000 C 
ATOM     28  C   UNL     1       2.321   3.231  17.250  0.00  0.00    +0.000 C 
ATOM     29  C   UNL     1       2.438   1.951  18.095  0.00  0.00    +0.000 C 
ATOM     30  C   UNL     1       3.001   2.291  19.484  0.00  0.00    +0.000 C 
ATOM     31  C   UNL     1       2.056   3.286  20.181  0.00  0.00    +0.000 C 
ATOM     32  C   UNL     1       4.392   2.933  19.330  0.00  0.00    +0.000 C 
ATOM     33  C   UNL     1       3.711   3.872  17.108  0.00  0.00    +0.000 C 
ENDBRANCH  22  24
ENDBRANCH  19  21
ENDBRANCH   1  19
TORSDOF 5
ENDMDL
MODEL 2
REMARK VINA RESULT:      -7.9      0.209      1.560
REMARK  Name = 
REMARK  5 active torsions:
REMARK  status: ('A' for Active; 'I' for Inactive)
REMARK    1  A    between atoms: C_2  and  O_14
REMARK    2  A    between atoms: N_3  and  C_4
REMARK    3  A    between atoms: O_14  and  C_15
REMARK    4  A    between atoms: C_21  and  C_22
REMARK    5  A    between atoms: N_24  and  C_25
REMARK                            x       y       z     vdW  Elec       q    Type
REMARK                         _______ _______ _______ _____ _____    ______ ____
ROOT
ATOM      1  C   UNL     1       7.833   6.802  18.415  0.00  0.00    +0.000 A 
ATOM      2  C   UNL     1       8.609   7.531  19.331  0.00  0.00    +0.000 A 
ATOM      3  C   UNL     1       8.852   8.891  19.131  0.00  0.00    +0.000 A 
ATOM      4  C   UNL     1       8.340   9.525  18.006  0.00  0.00    +0.000 A 
ATOM      5 CL   UNL     1       8.660  11.194  17.743  0.00  0.00    +0.000 Cl
ATOM      6  C   UNL     1       7.594   8.806  17.074  0.00  0.00    +0.000 A 
ATOM      7  C   UNL     1       7.340   7.433  17.264  0.00  0.00    +0.000 A 
ENDROOT
BRANCH   7   8
ATOM      8  C   UNL     1       6.641   6.751  16.143  0.00  0.00    +0.000 C 
ATOM      9  O   UNL     1       5.463   7.053  15.968  0.00  0.00    +0.000 OA
ATOM     10  N   UNL     1       7.340   5.781  15.445  0.00  0.00    +0.000 N 
ATOM     11  H   UNL     1       8.253   5.519  15.798  0.00  0.00    +0.000 HD
BRANCH  10  12
ATOM     12  C   UNL     1       6.806   4.991  14.394  0.00  0.00    +0.000 A 
ATOM     13  C   UNL     1       5.598   4.290  14.500  0.00  0.00    +0.000 A 
ATOM     14  C   UNL     1       5.143   3.476  13.460  0.00  0.00    +0.000 A 
ATOM     15  C   UNL     1       5.894   3.359  12.299  0.00  0.00    +0.000 A 
ATOM     16 CL   UNL     1       5.352   2.327  11.032  0.00  0.00    +0.000 Cl
ATOM     17  C   UNL     1       7.083   4.072  12.161  0.00  0.00    +0.000 A 
ATOM     18  C   UNL     1       7.533   4.894  13.204  0.00  0.00    +0.000 A 
ENDBRANCH  10  12
ENDBRANCH   7   8
BRANCH   1  19
ATOM     19  O   UNL     1       7.697   5.406  18.579  0.00  0.00    +0.000 OA
BRANCH  19  21
ATOM     20  O   UNL     1       6.437   4.694  20.393  0.00  0.00    +0.000 OA
ATOM     21  C   UNL     1       6.543   4.925  19.197  0.00  0.00    +0.000 C 
ATOM     22  N   UNL     1       5.567   4.732  18.258  0.00  0.00    +0.000 N 
ATOM     23  H   UNL     1       5.845   4.937  17.307  0.00  0.00    +0.000 HD
BRANCH  22  24
ATOM     24  C   UNL     1       4.266   4.097  18.498  0.00  0.00    +0.000 C 
ATOM     25  C   UNL     1       4.367   2.969  19.553  0.00  0.00    +0.000 C 
ATOM     26  C   UNL     1       2.981   2.358  19.829  0.00  0.00    +0.000 C 
ATOM     27  C   UNL     1       2.039   3.450  20.356  0.00  0.00    +0.000 C 
ATOM     28  C   UNL     1       1.900   4.571  19.315  0.00  0.00    +0.000 C 
ATOM     29  C   UNL     1       1.330   3.987  18.012  0.00  0.00    +0.000 C 
ATOM     30  C   UNL     1       2.272   2.900  17.470  0.00  0.00    +0.000 C 
ATOM     31  C   UNL     1       2.411   1.784  18.520  0.00  0.00    +0.000 C 
ATOM     32  C   UNL     1       3.657   3.515  17.195  0.00  0.00    +0.000 C 
ATOM     33  C   UNL     1       3.286   5.174  19.036  0.00  0.00    +0.000 C 
ENDBRANCH  22  24
ENDBRANCH  19  21
ENDBRANCH   1  19
TORSDOF 5
ENDMDL
MODEL 3
REMARK VINA RESULT:      -7.5      1.216      1.838
REMARK  Name = 
REMARK  5 active torsions:
REMARK  status: ('A' for Active; 'I' for Inactive)
REMARK    1  A    between atoms: C_2  and  O_14
REMARK    2  A    between atoms: N_3  and  C_4
REMARK    3  A    between atoms: O_14  and  C_15
REMARK    4  A    between atoms: C_21  and  C_22
REMARK    5  A    between atoms: N_24  and  C_25
REMARK                            x       y       z     vdW  Elec       q    Type
REMARK                         _______ _______ _______ _____ _____    ______ ____
ROOT
ATOM      1  C   UNL     1       7.420   5.759  18.207  0.00  0.00    +0.000 A 
ATOM      2  C   UNL     1       8.174   6.301  19.261  0.00  0.00    +0.000 A 
ATOM      3  C   UNL     1       8.544   7.647  19.249  0.00  0.00    +0.000 A 
ATOM      4  C   UNL     1       8.183   8.452  18.175  0.00  0.00    +0.000 A 
ATOM      5 CL   UNL     1       8.662  10.104  18.144  0.00  0.00    +0.000 Cl
ATOM      6  C   UNL     1       7.463   7.919  17.110  0.00  0.00    +0.000 A 
ATOM      7  C   UNL     1       7.080   6.562  17.110  0.00  0.00    +0.000 A 
ENDROOT
BRANCH   7   8
ATOM      8  C   UNL     1       6.424   6.082  15.864  0.00  0.00    +0.000 C 
ATOM      9  O   UNL     1       5.336   6.581  15.592  0.00  0.00    +0.000 OA
ATOM     10  N   UNL     1       7.046   5.064  15.162  0.00  0.00    +0.000 N 
ATOM     11  H   UNL     1       7.859   4.634  15.586  0.00  0.00    +0.000 HD
BRANCH  10  12
ATOM     12  C   UNL     1       6.528   4.446  13.995  0.00  0.00    +0.000 A 
ATOM     13  C   UNL     1       5.204   4.001  13.887  0.00  0.00    +0.000 A 
ATOM     14  C   UNL     1       4.756   3.343  12.738  0.00  0.00    +0.000 A 
ATOM     15  C   UNL     1       5.631   3.128  11.682  0.00  0.00    +0.000 A 
ATOM     16 CL   UNL     1       5.089   2.286  10.283  0.00  0.00    +0.000 Cl
ATOM     17  C   UNL     1       6.943   3.590  11.757  0.00  0.00    +0.000 A 
ATOM     18  C   UNL     1       7.387   4.258  12.908  0.00  0.00    +0.000 A 
ENDBRANCH  10  12
ENDBRANCH   7   8
BRANCH   1  19
ATOM     19  O   UNL     1       7.155   4.371  18.187  0.00  0.00    +0.000 OA
BRANCH  19  21
ATOM     20  O   UNL     1       5.310   3.561  17.037  0.00  0.00    +0.000 OA
ATOM     21  C   UNL     1       5.829   3.956  18.071  0.00  0.00    +0.000 C 
ATOM     22  N   UNL     1       5.200   4.086  19.279  0.00  0.00    +0.000 N 
ATOM     23  H   UNL     1       5.774   4.471  20.018  0.00  0.00    +0.000 HD
BRANCH  22  24
ATOM     24  C   UNL     1       3.766   3.893  19.520  0.00  0.00    +0.000 C 
ATOM     25  C   UNL     1       2.905   4.687  18.508  0.00  0.00    +0.000 C 
ATOM     26  C   UNL     1       1.407   4.423  18.744  0.00  0.00    +0.000 C 
ATOM     27  C   UNL     1       1.120   2.924  18.574  0.00  0.00    +0.000 C 
ATOM     28  C   UNL     1       1.944   2.114  19.587  0.00  0.00    +0.000 C 
ATOM     29  C   UNL     1       1.567   2.550  21.013  0.00  0.00    +0.000 C 
ATOM     30  C   UNL     1       1.861   4.047  21.196  0.00  0.00    +0.000 C 
ATOM     31  C   UNL     1       1.037   4.851  20.176  0.00  0.00    +0.000 C 
ATOM     32  C   UNL     1       3.360   4.307  20.960  0.00  0.00    +0.000 C 
ATOM     33  C   UNL     1       3.439   2.385  19.353  0.00  0.00    +0.000 C 
ENDBRANCH  22  24
ENDBRANCH  19  21
ENDBRANCH   1  19
TORSDOF 5
ENDMDL
MODEL 4
REMARK VINA RESULT:      -7.5      6.198      9.096
REMARK  Name = 
REMARK  5 active torsions:
REMARK  status: ('A' for Active; 'I' for Inactive)
REMARK    1  A    between atoms: C_2  and  O_14
REMARK    2  A    between atoms: N_3  and  C_4
REMARK    3  A    between atoms: O_14  and  C_15
REMARK    4  A    between atoms: C_21  and  C_22
REMARK    5  A    between atoms: N_24  and  C_25
REMARK                            x       y       z     vdW  Elec       q    Type
REMARK                         _______ _______ _______ _____ _____    ______ ____
ROOT
ATOM      1  C   UNL     1       0.251  10.447  18.382  0.00  0.00    +0.000 A 
ATOM      2  C   UNL     1      -0.704   9.500  17.978  0.00  0.00    +0.000 A 
ATOM      3  C   UNL     1      -1.992   9.900  17.619  0.00  0.00    +0.000 A 
ATOM      4  C   UNL     1      -2.339  11.244  17.683  0.00  0.00    +0.000 A 
ATOM      5 CL   UNL     1      -3.934  11.738  17.268  0.00  0.00    +0.000 Cl
ATOM      6  C   UNL     1      -1.410  12.189  18.111  0.00  0.00    +0.000 A 
ATOM      7  C   UNL     1      -0.106  11.799  18.475  0.00  0.00    +0.000 A 
ENDROOT
BRANCH   7   8
ATOM      8  C   UNL     1       0.753  12.878  19.032  0.00  0.00    +0.000 C 
ATOM      9  O   UNL     1       0.276  13.535  19.954  0.00  0.00    +0.000 OA
ATOM     10  N   UNL     1       1.974  13.107  18.421  0.00  0.00    +0.000 N 
ATOM     11  H   UNL     1       2.172  12.596  17.570  0.00  0.00    +0.000 HD
BRANCH  10  12
ATOM     12  C   UNL     1       2.884  14.134  18.782  0.00  0.00    +0.000 A 
ATOM     13  C   UNL     1       3.469  14.229  20.051  0.00  0.00    +0.000 A 
ATOM     14  C   UNL     1       4.312  15.294  20.379  0.00  0.00    +0.000 A 
ATOM     15  C   UNL     1       4.582  16.274  19.434  0.00  0.00    +0.000 A 
ATOM     16 CL   UNL     1       5.591  17.605  19.849  0.00  0.00    +0.000 Cl
ATOM     17  C   UNL     1       4.034  16.182  18.156  0.00  0.00    +0.000 A 
ATOM     18  C   UNL     1       3.195  15.108  17.828  0.00  0.00    +0.000 A 
ENDBRANCH  10  12
ENDBRANCH   7   8
BRANCH   1  19
ATOM     19  O   UNL     1       1.510  10.005  18.848  0.00  0.00    +0.000 OA
BRANCH  19  21
ATOM     20  O   UNL     1       2.424   8.716  17.149  0.00  0.00    +0.000 OA
ATOM     21  C   UNL     1       2.040   8.836  18.303  0.00  0.00    +0.000 C 
ATOM     22  N   UNL     1       2.036   7.847  19.250  0.00  0.00    +0.000 N 
ATOM     23  H   UNL     1       1.640   8.114  20.141  0.00  0.00    +0.000 HD
BRANCH  22  24
ATOM     24  C   UNL     1       2.374   6.440  19.014  0.00  0.00    +0.000 C 
ATOM     25  C   UNL     1       3.881   6.258  18.708  0.00  0.00    +0.000 C 
ATOM     26  C   UNL     1       4.221   4.768  18.522  0.00  0.00    +0.000 C 
ATOM     27  C   UNL     1       3.878   4.001  19.807  0.00  0.00    +0.000 C 
ATOM     28  C   UNL     1       2.380   4.143  20.119  0.00  0.00    +0.000 C 
ATOM     29  C   UNL     1       1.561   3.575  18.948  0.00  0.00    +0.000 C 
ATOM     30  C   UNL     1       1.890   4.343  17.658  0.00  0.00    +0.000 C 
ATOM     31  C   UNL     1       3.392   4.201  17.356  0.00  0.00    +0.000 C 
ATOM     32  C   UNL     1       1.548   5.833  17.848  0.00  0.00    +0.000 C 
ATOM     33  C   UNL     1       2.041   5.632  20.297  0.00  0.00    +0.000 C 
ENDBRANCH  22  24
ENDBRANCH  19  21
ENDBRANCH   1  19
TORSDOF 5
ENDMDL
MODEL 5
REMARK VINA RESULT:      -7.5      7.189      9.953
REMARK  Name = 
REMARK  5 active torsions:
REMARK  status: ('A' for Active; 'I' for Inactive)
REMARK    1  A    between atoms: C_2  and  O_14
REMARK    2  A    between atoms: N_3  and  C_4
REMARK    3  A    between atoms: O_14  and  C_15
REMARK    4  A    between atoms: C_21  and  C_22
REMARK    5  A    between atoms: N_24  and  C_25
REMARK                            x       y       z     vdW  Elec       q    Type
REMARK                         _______ _______ _______ _____ _____    ______ ____
ROOT
ATOM      1  C   UNL     1      -0.151  11.031  19.686  0.00  0.00    +0.000 A 
ATOM      2  C   UNL     1      -1.346  11.766  19.765  0.00  0.00    +0.000 A 
ATOM      3  C   UNL     1      -2.353  11.584  18.816  0.00  0.00    +0.000 A 
ATOM      4  C   UNL     1      -2.165  10.685  17.773  0.00  0.00    +0.000 A 
ATOM      5 CL   UNL     1      -3.393  10.479  16.587  0.00  0.00    +0.000 Cl
ATOM      6  C   UNL     1      -0.972   9.974  17.667  0.00  0.00    +0.000 A 
ATOM      7  C   UNL     1       0.053  10.146  18.619  0.00  0.00    +0.000 A 
ENDROOT
BRANCH   7   8
ATOM      8  C   UNL     1       1.322   9.426  18.330  0.00  0.00    +0.000 C 
ATOM      9  O   UNL     1       2.080   9.958  17.523  0.00  0.00    +0.000 OA
ATOM     10  N   UNL     1       1.508   8.190  18.924  0.00  0.00    +0.000 N 
ATOM     11  H   UNL     1       0.731   7.799  19.441  0.00  0.00    +0.000 HD
BRANCH  10  12
ATOM     12  C   UNL     1       2.627   7.344  18.707  0.00  0.00    +0.000 A 
ATOM     13  C   UNL     1       3.482   7.472  17.605  0.00  0.00    +0.000 A 
ATOM     14  C   UNL     1       4.535   6.576  17.401  0.00  0.00    +0.000 A 
ATOM     15  C   UNL     1       4.744   5.543  18.305  0.00  0.00    +0.000 A 
ATOM     16 CL   UNL     1       6.017   4.417  18.034  0.00  0.00    +0.000 Cl
ATOM     17  C   UNL     1       3.923   5.416  19.424  0.00  0.00    +0.000 A 
ATOM     18  C   UNL     1       2.872   6.322  19.629  0.00  0.00    +0.000 A 
ENDBRANCH  10  12
ENDBRANCH   7   8
BRANCH   1  19
ATOM     19  O   UNL     1       0.897  11.315  20.591  0.00  0.00    +0.000 OA
BRANCH  19  21
ATOM     20  O   UNL     1       1.077  13.375  21.643  0.00  0.00    +0.000 OA
ATOM     21  C   UNL     1       1.329  12.637  20.702  0.00  0.00    +0.000 C 
ATOM     22  N   UNL     1       2.051  12.978  19.591  0.00  0.00    +0.000 N 
ATOM     23  H   UNL     1       2.124  12.251  18.891  0.00  0.00    +0.000 HD
BRANCH  22  24
ATOM     24  C   UNL     1       2.542  14.323  19.273  0.00  0.00    +0.000 C 
ATOM     25  C   UNL     1       1.393  15.360  19.248  0.00  0.00    +0.000 C 
ATOM     26  C   UNL     1       1.942  16.771  18.970  0.00  0.00    +0.000 C 
ATOM     27  C   UNL     1       2.938  17.158  20.073  0.00  0.00    +0.000 C 
ATOM     28  C   UNL     1       4.104  16.158  20.101  0.00  0.00    +0.000 C 
ATOM     29  C   UNL     1       4.817  16.170  18.739  0.00  0.00    +0.000 C 
ATOM     30  C   UNL     1       3.830  15.773  17.629  0.00  0.00    +0.000 C 
ATOM     31  C   UNL     1       2.663  16.775  17.610  0.00  0.00    +0.000 C 
ATOM     32  C   UNL     1       3.284  14.361  17.910  0.00  0.00    +0.000 C 
ATOM     33  C   UNL     1       3.553  14.749  20.372  0.00  0.00    +0.000 C 
ENDBRANCH  22  24
ENDBRANCH  19  21
ENDBRANCH   1  19
TORSDOF 5
ENDMDL
MODEL 6
REMARK VINA RESULT:      -7.5      6.207      9.037
REMARK  Name = 
REMARK  5 active torsions:
REMARK  status: ('A' for Active; 'I' for Inactive)
REMARK    1  A    between atoms: C_2  and  O_14
REMARK    2  A    between atoms: N_3  and  C_4
REMARK    3  A    between atoms: O_14  and  C_15
REMARK    4  A    between atoms: C_21  and  C_22
REMARK    5  A    between atoms: N_24  and  C_25
REMARK                            x       y       z     vdW  Elec       q    Type
REMARK                         _______ _______ _______ _____ _____    ______ ____
ROOT
ATOM      1  C   UNL     1       0.224  10.457  18.440  0.00  0.00    +0.000 A 
ATOM      2  C   UNL     1      -0.729   9.502  18.050  0.00  0.00    +0.000 A 
ATOM      3  C   UNL     1      -2.017   9.895  17.682  0.00  0.00    +0.000 A 
ATOM      4  C   UNL     1      -2.365  11.240  17.721  0.00  0.00    +0.000 A 
ATOM      5 CL   UNL     1      -3.959  11.724  17.293  0.00  0.00    +0.000 Cl
ATOM      6  C   UNL     1      -1.438  12.192  18.135  0.00  0.00    +0.000 A 
ATOM      7  C   UNL     1      -0.134  11.810  18.508  0.00  0.00    +0.000 A 
ENDROOT
BRANCH   7   8
ATOM      8  C   UNL     1       0.722  12.900  19.048  0.00  0.00    +0.000 C 
ATOM      9  O   UNL     1       0.223  13.607  19.920  0.00  0.00    +0.000 OA
ATOM     10  N   UNL     1       1.969  13.079  18.476  0.00  0.00    +0.000 N 
ATOM     11  H   UNL     1       2.191  12.527  17.657  0.00  0.00    +0.000 HD
BRANCH  10  12
ATOM     12  C   UNL     1       2.884  14.107  18.824  0.00  0.00    +0.000 A 
ATOM     13  C   UNL     1       3.488  14.201  20.085  0.00  0.00    +0.000 A 
ATOM     14  C   UNL     1       4.335  15.267  20.401  0.00  0.00    +0.000 A 
ATOM     15  C   UNL     1       4.589  16.249  19.453  0.00  0.00    +0.000 A 
ATOM     16 CL   UNL     1       5.603  17.580  19.855  0.00  0.00    +0.000 Cl
ATOM     17  C   UNL     1       4.023  16.158  18.183  0.00  0.00    +0.000 A 
ATOM     18  C   UNL     1       3.179  15.082  17.867  0.00  0.00    +0.000 A 
ENDBRANCH  10  12
ENDBRANCH   7   8
BRANCH   1  19
ATOM     19  O   UNL     1       1.482  10.025  18.917  0.00  0.00    +0.000 OA
BRANCH  19  21
ATOM     20  O   UNL     1       2.385   8.689  17.248  0.00  0.00    +0.000 OA
ATOM     21  C   UNL     1       2.010   8.841  18.401  0.00  0.00    +0.000 C 
ATOM     22  N   UNL     1       2.016   7.881  19.376  0.00  0.00    +0.000 N 
ATOM     23  H   UNL     1       1.627   8.172  20.263  0.00  0.00    +0.000 HD
BRANCH  22  24
ATOM     24  C   UNL     1       2.355   6.467  19.178  0.00  0.00    +0.000 C 
ATOM     25  C   UNL     1       1.969   5.609  20.407  0.00  0.00    +0.000 C 
ATOM     26  C   UNL     1       2.282   4.123  20.152  0.00  0.00    +0.000 C 
ATOM     27  C   UNL     1       1.484   3.636  18.934  0.00  0.00    +0.000 C 
ATOM     28  C   UNL     1       1.869   4.455  17.692  0.00  0.00    +0.000 C 
ATOM     29  C   UNL     1       3.373   4.289  17.420  0.00  0.00    +0.000 C 
ATOM     30  C   UNL     1       4.181   4.784  18.630  0.00  0.00    +0.000 C 
ATOM     31  C   UNL     1       3.786   3.964  19.870  0.00  0.00    +0.000 C 
ATOM     32  C   UNL     1       3.866   6.271  18.882  0.00  0.00    +0.000 C 
ATOM     33  C   UNL     1       1.562   5.939  17.952  0.00  0.00    +0.000 C 
ENDBRANCH  22  24
ENDBRANCH  19  21
ENDBRANCH   1  19
TORSDOF 5
ENDMDL
MODEL 7
REMARK VINA RESULT:      -7.5      9.085     11.934
REMARK  Name = 
REMARK  5 active torsions:
REMARK  status: ('A' for Active; 'I' for Inactive)
REMARK    1  A    between atoms: C_2  and  O_14
REMARK    2  A    between atoms: N_3  and  C_4
REMARK    3  A    between atoms: O_14  and  C_15
REMARK    4  A    between atoms: C_21  and  C_22
REMARK    5  A    between atoms: N_24  and  C_25
REMARK                            x       y       z     vdW  Elec       q    Type
REMARK                         _______ _______ _______ _____ _____    ______ ____
ROOT
ATOM      1  C   UNL     1       5.637  15.365  20.121  0.00  0.00    +0.000 A 
ATOM      2  C   UNL     1       5.516  15.538  18.732  0.00  0.00    +0.000 A 
ATOM      3  C   UNL     1       4.417  15.019  18.046  0.00  0.00    +0.000 A 
ATOM      4  C   UNL     1       3.445  14.306  18.738  0.00  0.00    +0.000 A 
ATOM      5 CL   UNL     1       2.104  13.642  17.891  0.00  0.00    +0.000 Cl
ATOM      6  C   UNL     1       3.570  14.101  20.109  0.00  0.00    +0.000 A 
ATOM      7  C   UNL     1       4.673  14.621  20.815  0.00  0.00    +0.000 A 
ENDROOT
BRANCH   7   8
ATOM      8  C   UNL     1       4.758  14.231  22.248  0.00  0.00    +0.000 C 
ATOM      9  O   UNL     1       3.885  14.676  22.989  0.00  0.00    +0.000 OA
ATOM     10  N   UNL     1       5.846  13.473  22.644  0.00  0.00    +0.000 N 
ATOM     11  H   UNL     1       6.575  13.310  21.960  0.00  0.00    +0.000 HD
BRANCH  10  12
ATOM     12  C   UNL     1       6.115  13.070  23.978  0.00  0.00    +0.000 A 
ATOM     13  C   UNL     1       6.493  13.965  24.987  0.00  0.00    +0.000 A 
ATOM     14  C   UNL     1       6.807  13.514  26.272  0.00  0.00    +0.000 A 
ATOM     15  C   UNL     1       6.741  12.157  26.559  0.00  0.00    +0.000 A 
ATOM     16 CL   UNL     1       7.163  11.597  28.130  0.00  0.00    +0.000 Cl
ATOM     17  C   UNL     1       6.338  11.253  25.578  0.00  0.00    +0.000 A 
ATOM     18  C   UNL     1       6.016  11.712  24.292  0.00  0.00    +0.000 A 
ENDBRANCH  10  12
ENDBRANCH   7   8
BRANCH   1  19
ATOM     19  O   UNL     1       6.812  15.800  20.773  0.00  0.00    +0.000 OA
BRANCH  19  21
ATOM     20  O   UNL     1       8.710  16.347  19.555  0.00  0.00    +0.000 OA
ATOM     21  C   UNL     1       8.039  15.529  20.167  0.00  0.00    +0.000 C 
ATOM     22  N   UNL     1       8.355  14.210  20.342  0.00  0.00    +0.000 N 
ATOM     23  H   UNL     1       7.661  13.668  20.839  0.00  0.00    +0.000 HD
BRANCH  22  24
ATOM     24  C   UNL     1       9.490  13.515  19.724  0.00  0.00    +0.000 C 
ATOM     25  C   UNL     1       9.477  12.001  20.045  0.00  0.00    +0.000 C 
ATOM     26  C   UNL     1      10.643  11.286  19.338  0.00  0.00    +0.000 C 
ATOM     27  C   UNL     1      10.511  11.474  17.820  0.00  0.00    +0.000 C 
ATOM     28  C   UNL     1      10.548  12.970  17.471  0.00  0.00    +0.000 C 
ATOM     29  C   UNL     1      11.881  13.570  17.949  0.00  0.00    +0.000 C 
ATOM     30  C   UNL     1      12.017  13.396  19.470  0.00  0.00    +0.000 C 
ATOM     31  C   UNL     1      11.973  11.897  19.812  0.00  0.00    +0.000 C 
ATOM     32  C   UNL     1      10.850  14.113  20.174  0.00  0.00    +0.000 C 
ATOM     33  C   UNL     1       9.388  13.683  18.184  0.00  0.00    +0.000 C 
ENDBRANCH  22  24
ENDBRANCH  19  21
ENDBRANCH   1  19
TORSDOF 5
ENDMDL
MODEL 8
REMARK VINA RESULT:      -7.4      6.407      9.468
REMARK  Name = 
REMARK  5 active torsions:
REMARK  status: ('A' for Active; 'I' for Inactive)
REMARK    1  A    between atoms: C_2  and  O_14
REMARK    2  A    between atoms: N_3  and  C_4
REMARK    3  A    between atoms: O_14  and  C_15
REMARK    4  A    between atoms: C_21  and  C_22
REMARK    5  A    between atoms: N_24  and  C_25
REMARK                            x       y       z     vdW  Elec       q    Type
REMARK                         _______ _______ _______ _____ _____    ______ ____
ROOT
ATOM      1  C   UNL     1       0.607  10.051  18.725  0.00  0.00    +0.000 A 
ATOM      2  C   UNL     1      -0.194   9.330  17.824  0.00  0.00    +0.000 A 
ATOM      3  C   UNL     1      -1.447   9.814  17.444  0.00  0.00    +0.000 A 
ATOM      4  C   UNL     1      -1.916  11.009  17.978  0.00  0.00    +0.000 A 
ATOM      5 CL   UNL     1      -3.470  11.594  17.534  0.00  0.00    +0.000 Cl
ATOM      6  C   UNL     1      -1.144  11.717  18.896  0.00  0.00    +0.000 A 
ATOM      7  C   UNL     1       0.124  11.241  19.286  0.00  0.00    +0.000 A 
ENDROOT
BRANCH   7   8
ATOM      8  C   UNL     1       0.796  12.018  20.361  0.00  0.00    +0.000 C 
ATOM      9  O   UNL     1       0.707  11.567  21.500  0.00  0.00    +0.000 OA
ATOM     10  N   UNL     1       1.391  13.218  20.010  0.00  0.00    +0.000 N 
ATOM     11  H   UNL     1       1.251  13.548  19.064  0.00  0.00    +0.000 HD
BRANCH  10  12
ATOM     12  C   UNL     1       2.016  14.112  20.918  0.00  0.00    +0.000 A 
ATOM     13  C   UNL     1       1.335  15.155  21.558  0.00  0.00    +0.000 A 
ATOM     14  C   UNL     1       2.008  16.048  22.397  0.00  0.00    +0.000 A 
ATOM     15  C   UNL     1       3.372  15.901  22.606  0.00  0.00    +0.000 A 
ATOM     16 CL   UNL     1       4.207  17.022  23.609  0.00  0.00    +0.000 Cl
ATOM     17  C   UNL     1       4.063  14.852  22.003  0.00  0.00    +0.000 A 
ATOM     18  C   UNL     1       3.383  13.953  21.168  0.00  0.00    +0.000 A 
ENDBRANCH  10  12
ENDBRANCH   7   8
BRANCH   1  19
ATOM     19  O   UNL     1       1.819   9.486  19.180  0.00  0.00    +0.000 OA
BRANCH  19  21
ATOM     20  O   UNL     1       2.597   8.138  17.459  0.00  0.00    +0.000 OA
ATOM     21  C   UNL     1       2.234   8.279  18.617  0.00  0.00    +0.000 C 
ATOM     22  N   UNL     1       2.145   7.284  19.552  0.00  0.00    +0.000 N 
ATOM     23  H   UNL     1       1.783   7.575  20.451  0.00  0.00    +0.000 HD
BRANCH  22  24
ATOM     24  C   UNL     1       2.350   5.854  19.298  0.00  0.00    +0.000 C 
ATOM     25  C   UNL     1       3.852   5.480  19.312  0.00  0.00    +0.000 C 
ATOM     26  C   UNL     1       4.037   3.966  19.100  0.00  0.00    +0.000 C 
ATOM     27  C   UNL     1       3.323   3.203  20.225  0.00  0.00    +0.000 C 
ATOM     28  C   UNL     1       1.823   3.536  20.216  0.00  0.00    +0.000 C 
ATOM     29  C   UNL     1       1.221   3.132  18.859  0.00  0.00    +0.000 C 
ATOM     30  C   UNL     1       1.923   3.900  17.727  0.00  0.00    +0.000 C 
ATOM     31  C   UNL     1       3.424   3.566  17.747  0.00  0.00    +0.000 C 
ATOM     32  C   UNL     1       1.735   5.414  17.942  0.00  0.00    +0.000 C 
ATOM     33  C   UNL     1       1.641   5.049  20.420  0.00  0.00    +0.000 C 
ENDBRANCH  22  24
ENDBRANCH  19  21
ENDBRANCH   1  19
TORSDOF 5
ENDMDL
MODEL 9
REMARK VINA RESULT:      -7.4      6.495      9.459
REMARK  Name = 
REMARK  5 active torsions:
REMARK  status: ('A' for Active; 'I' for Inactive)
REMARK    1  A    between atoms: C_2  and  O_14
REMARK    2  A    between atoms: N_3  and  C_4
REMARK    3  A    between atoms: O_14  and  C_15
REMARK    4  A    between atoms: C_21  and  C_22
REMARK    5  A    between atoms: N_24  and  C_25
REMARK                            x       y       z     vdW  Elec       q    Type
REMARK                         _______ _______ _______ _____ _____    ______ ____
ROOT
ATOM      1  C   UNL     1       0.395  10.326  18.528  0.00  0.00    +0.000 A 
ATOM      2  C   UNL     1      -0.585   9.681  17.755  0.00  0.00    +0.000 A 
ATOM      3  C   UNL     1      -1.906  10.133  17.763  0.00  0.00    +0.000 A 
ATOM      4  C   UNL     1      -2.259  11.217  18.558  0.00  0.00    +0.000 A 
ATOM      5 CL   UNL     1      -3.890  11.759  18.591  0.00  0.00    +0.000 Cl
ATOM      6  C   UNL     1      -1.302  11.845  19.352  0.00  0.00    +0.000 A 
ATOM      7  C   UNL     1       0.035  11.400  19.352  0.00  0.00    +0.000 A 
ENDROOT
BRANCH   7   8
ATOM      8  C   UNL     1       0.932  12.070  20.331  0.00  0.00    +0.000 C 
ATOM      9  O   UNL     1       1.154  11.461  21.375  0.00  0.00    +0.000 OA
ATOM     10  N   UNL     1       1.375  13.346  20.028  0.00  0.00    +0.000 N 
ATOM     11  H   UNL     1       0.985  13.792  19.207  0.00  0.00    +0.000 HD
BRANCH  10  12
ATOM     12  C   UNL     1       2.179  14.151  20.876  0.00  0.00    +0.000 A 
ATOM     13  C   UNL     1       3.552  13.939  21.056  0.00  0.00    +0.000 A 
ATOM     14  C   UNL     1       4.292  14.720  21.949  0.00  0.00    +0.000 A 
ATOM     15  C   UNL     1       3.661  15.726  22.668  0.00  0.00    +0.000 A 
ATOM     16 CL   UNL     1       4.563  16.663  23.794  0.00  0.00    +0.000 Cl
ATOM     17  C   UNL     1       2.302  15.973  22.481  0.00  0.00    +0.000 A 
ATOM     18  C   UNL     1       1.566  15.192  21.578  0.00  0.00    +0.000 A 
ENDBRANCH  10  12
ENDBRANCH   7   8
BRANCH   1  19
ATOM     19  O   UNL     1       1.697   9.780  18.591  0.00  0.00    +0.000 OA
BRANCH  19  21
ATOM     20  O   UNL     1       1.541   8.105  20.188  0.00  0.00    +0.000 OA
ATOM     21  C   UNL     1       1.842   8.476  19.064  0.00  0.00    +0.000 C 
ATOM     22  N   UNL     1       2.392   7.693  18.086  0.00  0.00    +0.000 N 
ATOM     23  H   UNL     1       2.618   8.179  17.228  0.00  0.00    +0.000 HD
BRANCH  22  24
ATOM     24  C   UNL     1       2.834   6.304  18.254  0.00  0.00    +0.000 C 
ATOM     25  C   UNL     1       3.185   5.991  19.728  0.00  0.00    +0.000 C 
ATOM     26  C   UNL     1       3.590   4.514  19.888  0.00  0.00    +0.000 C 
ATOM     27  C   UNL     1       2.423   3.615  19.452  0.00  0.00    +0.000 C 
ATOM     28  C   UNL     1       2.072   3.888  17.981  0.00  0.00    +0.000 C 
ATOM     29  C   UNL     1       3.300   3.597  17.103  0.00  0.00    +0.000 C 
ATOM     30  C   UNL     1       4.470   4.500  17.525  0.00  0.00    +0.000 C 
ATOM     31  C   UNL     1       4.813   4.225  18.999  0.00  0.00    +0.000 C 
ATOM     32  C   UNL     1       4.062   5.976  17.363  0.00  0.00    +0.000 C 
ATOM     33  C   UNL     1       1.675   5.365  17.823  0.00  0.00    +0.000 C 
ENDBRANCH  22  24
ENDBRANCH  19  21
ENDBRANCH   1  19
TORSDOF 5
ENDMDL
