MODEL 1
REMARK VINA RESULT:      -6.2      0.000      0.000
REMARK  Name = 
REMARK  10 active torsions:
REMARK  status: ('A' for Active; 'I' for Inactive)
REMARK    1  A    between atoms: C_1  and  C_2
REMARK    2  A    between atoms: C_2  and  C_3
REMARK    3  A    between atoms: C_3  and  N_4
REMARK    4  A    between atoms: N_4  and  C_5
REMARK    5  A    between atoms: N_4  and  C_8
REMARK    6  A    between atoms: C_5  and  C_6
REMARK    7  A    between atoms: C_6  and  C_7
REMARK    8  A    between atoms: C_8  and  C_9
REMARK    9  A    between atoms: N_11  and  C_12
REMARK   10  A    between atoms: C_12  and  C_13
REMARK                            x       y       z     vdW  Elec       q    Type
REMARK                         _______ _______ _______ _____ _____    ______ ____
ROOT
ATOM      1  C   UNL     1       6.025   4.441  18.773  0.00  0.00    +0.000 C 
ATOM      2  O   UNL     1       6.240   4.982  19.857  0.00  0.00    +0.000 OA
ATOM      3  N   UNL     1       5.276   3.289  18.666  0.00  0.00    +0.000 N 
ATOM      4  H   UNL     1       5.094   2.883  17.761  0.00  0.00    +0.000 HD
ENDROOT
BRANCH   1   5
ATOM      5  C   UNL     1       6.500   5.028  17.429  0.00  0.00    +0.000 C 
BRANCH   5   6
ATOM      6  N   UNL     1       5.404   5.536  16.555  0.00  0.00    +0.000 NA
BRANCH   6   7
ATOM      7  C   UNL     1       5.145   6.951  16.901  0.00  0.00    +0.000 C 
BRANCH   7   9
ATOM      8  C   UNL     1       2.978   6.067  17.939  0.00  0.00    +0.000 C 
ATOM      9  C   UNL     1       3.753   7.285  17.463  0.00  0.00    +0.000 C 
ENDBRANCH   7   9
ENDBRANCH   6   7
BRANCH   6  10
ATOM     10  C   UNL     1       5.669   5.339  15.114  0.00  0.00    +0.000 C 
BRANCH  10  11
ATOM     11  C   UNL     1       6.007   3.906  14.677  0.00  0.00    +0.000 C 
ATOM     12  C   UNL     1       6.280   3.824  13.183  0.00  0.00    +0.000 C 
ENDBRANCH  10  11
ENDBRANCH   6  10
ENDBRANCH   5   6
ENDBRANCH   1   5
BRANCH   3  13
ATOM     13  C   UNL     1       4.764   2.599  19.832  0.00  0.00    +0.000 C 
BRANCH  13  14
ATOM     14  C   UNL     1       3.265   2.717  19.919  0.00  0.00    +0.000 A 
ATOM     15  C   UNL     1       2.473   2.497  18.780  0.00  0.00    +0.000 A 
ATOM     16  C   UNL     1       1.081   2.578  18.856  0.00  0.00    +0.000 A 
ATOM     17  C   UNL     1       0.465   2.876  20.067  0.00  0.00    +0.000 A 
ATOM     18  C   UNL     1       1.240   3.093  21.207  0.00  0.00    +0.000 A 
ATOM     19  C   UNL     1       2.630   3.015  21.134  0.00  0.00    +0.000 A 
ENDBRANCH  13  14
ENDBRANCH   3  13
TORSDOF 8
ENDMDL
MODEL 2
REMARK VINA RESULT:      -6.1      1.194      1.743
REMARK  Name = 
REMARK  10 active torsions:
REMARK  status: ('A' for Active; 'I' for Inactive)
REMARK    1  A    between atoms: C_1  and  C_2
REMARK    2  A    between atoms: C_2  and  C_3
REMARK    3  A    between atoms: C_3  and  N_4
REMARK    4  A    between atoms: N_4  and  C_5
REMARK    5  A    between atoms: N_4  and  C_8
REMARK    6  A    between atoms: C_5  and  C_6
REMARK    7  A    between atoms: C_6  and  C_7
REMARK    8  A    between atoms: C_8  and  C_9
REMARK    9  A    between atoms: N_11  and  C_12
REMARK   10  A    between atoms: C_12  and  C_13
REMARK                            x       y       z     vdW  Elec       q    Type
REMARK                         _______ _______ _______ _____ _____    ______ ____
ROOT
ATOM      1  C   UNL     1       5.579   4.524  18.895  0.00  0.00    +0.000 C 
ATOM      2  O   UNL     1       5.212   5.264  19.807  0.00  0.00    +0.000 OA
ATOM      3  N   UNL     1       5.337   3.168  18.909  0.00  0.00    +0.000 N 
ATOM      4  H   UNL     1       5.626   2.591  18.134  0.00  0.00    +0.000 HD
ENDROOT
BRANCH   1   5
ATOM      5  C   UNL     1       6.270   5.042  17.617  0.00  0.00    +0.000 C 
BRANCH   5   6
ATOM      6  N   UNL     1       5.509   6.097  16.888  0.00  0.00    +0.000 NA
BRANCH   6   7
ATOM      7  C   UNL     1       6.134   7.408  17.173  0.00  0.00    +0.000 C 
BRANCH   7   9
ATOM      8  C   UNL     1       8.169   8.757  17.940  0.00  0.00    +0.000 C 
ATOM      9  C   UNL     1       7.639   7.407  17.485  0.00  0.00    +0.000 C 
ENDBRANCH   7   9
ENDBRANCH   6   7
BRANCH   6  10
ATOM     10  C   UNL     1       5.381   5.827  15.440  0.00  0.00    +0.000 C 
BRANCH  10  11
ATOM     11  C   UNL     1       5.724   4.401  14.984  0.00  0.00    +0.000 C 
ATOM     12  C   UNL     1       6.789   4.400  13.897  0.00  0.00    +0.000 C 
ENDBRANCH  10  11
ENDBRANCH   6  10
ENDBRANCH   5   6
ENDBRANCH   1   5
BRANCH   3  13
ATOM     13  C   UNL     1       4.709   2.515  20.040  0.00  0.00    +0.000 C 
BRANCH  13  14
ATOM     14  C   UNL     1       3.210   2.653  19.983  0.00  0.00    +0.000 A 
ATOM     15  C   UNL     1       2.519   2.349  18.799  0.00  0.00    +0.000 A 
ATOM     16  C   UNL     1       1.127   2.448  18.744  0.00  0.00    +0.000 A 
ATOM     17  C   UNL     1       0.411   2.847  19.867  0.00  0.00    +0.000 A 
ATOM     18  C   UNL     1       1.085   3.148  21.051  0.00  0.00    +0.000 A 
ATOM     19  C   UNL     1       2.476   3.052  21.110  0.00  0.00    +0.000 A 
ENDBRANCH  13  14
ENDBRANCH   3  13
TORSDOF 8
ENDMDL
MODEL 3
REMARK VINA RESULT:      -6.0      0.526      2.869
REMARK  Name = 
REMARK  10 active torsions:
REMARK  status: ('A' for Active; 'I' for Inactive)
REMARK    1  A    between atoms: C_1  and  C_2
REMARK    2  A    between atoms: C_2  and  C_3
REMARK    3  A    between atoms: C_3  and  N_4
REMARK    4  A    between atoms: N_4  and  C_5
REMARK    5  A    between atoms: N_4  and  C_8
REMARK    6  A    between atoms: C_5  and  C_6
REMARK    7  A    between atoms: C_6  and  C_7
REMARK    8  A    between atoms: C_8  and  C_9
REMARK    9  A    between atoms: N_11  and  C_12
REMARK   10  A    between atoms: C_12  and  C_13
REMARK                            x       y       z     vdW  Elec       q    Type
REMARK                         _______ _______ _______ _____ _____    ______ ____
ROOT
ATOM      1  C   UNL     1       6.072   4.552  18.722  0.00  0.00    +0.000 C 
ATOM      2  O   UNL     1       6.186   5.118  19.809  0.00  0.00    +0.000 OA
ATOM      3  N   UNL     1       5.381   3.368  18.582  0.00  0.00    +0.000 N 
ATOM      4  H   UNL     1       5.282   2.942  17.673  0.00  0.00    +0.000 HD
ENDROOT
BRANCH   1   5
ATOM      5  C   UNL     1       6.618   5.140  17.406  0.00  0.00    +0.000 C 
BRANCH   5   6
ATOM      6  N   UNL     1       5.620   5.914  16.614  0.00  0.00    +0.000 NA
BRANCH   6   7
ATOM      7  C   UNL     1       5.782   5.566  15.185  0.00  0.00    +0.000 C 
BRANCH   7   9
ATOM      8  C   UNL     1       6.182   3.791  13.385  0.00  0.00    +0.000 C 
ATOM      9  C   UNL     1       5.819   4.070  14.834  0.00  0.00    +0.000 C 
ENDBRANCH   7   9
ENDBRANCH   6   7
BRANCH   6  10
ATOM     10  C   UNL     1       4.232   5.736  17.092  0.00  0.00    +0.000 C 
BRANCH  10  11
ATOM     11  C   UNL     1       3.585   6.957  17.762  0.00  0.00    +0.000 C 
ATOM     12  C   UNL     1       2.816   6.567  19.016  0.00  0.00    +0.000 C 
ENDBRANCH  10  11
ENDBRANCH   6  10
ENDBRANCH   5   6
ENDBRANCH   1   5
BRANCH   3  13
ATOM     13  C   UNL     1       4.815   2.674  19.720  0.00  0.00    +0.000 C 
BRANCH  13  14
ATOM     14  C   UNL     1       3.322   2.864  19.786  0.00  0.00    +0.000 A 
ATOM     15  C   UNL     1       2.542   2.719  18.627  0.00  0.00    +0.000 A 
ATOM     16  C   UNL     1       1.154   2.868  18.683  0.00  0.00    +0.000 A 
ATOM     17  C   UNL     1       0.531   3.159  19.892  0.00  0.00    +0.000 A 
ATOM     18  C   UNL     1       1.295   3.301  21.051  0.00  0.00    +0.000 A 
ATOM     19  C   UNL     1       2.681   3.156  20.999  0.00  0.00    +0.000 A 
ENDBRANCH  13  14
ENDBRANCH   3  13
TORSDOF 8
ENDMDL
MODEL 4
REMARK VINA RESULT:      -6.0      0.499      1.241
REMARK  Name = 
REMARK  10 active torsions:
REMARK  status: ('A' for Active; 'I' for Inactive)
REMARK    1  A    between atoms: C_1  and  C_2
REMARK    2  A    between atoms: C_2  and  C_3
REMARK    3  A    between atoms: C_3  and  N_4
REMARK    4  A    between atoms: N_4  and  C_5
REMARK    5  A    between atoms: N_4  and  C_8
REMARK    6  A    between atoms: C_5  and  C_6
REMARK    7  A    between atoms: C_6  and  C_7
REMARK    8  A    between atoms: C_8  and  C_9
REMARK    9  A    between atoms: N_11  and  C_12
REMARK   10  A    between atoms: C_12  and  C_13
REMARK                            x       y       z     vdW  Elec       q    Type
REMARK                         _______ _______ _______ _____ _____    ______ ____
ROOT
ATOM      1  C   UNL     1       6.112   4.580  18.737  0.00  0.00    +0.000 C 
ATOM      2  O   UNL     1       6.446   4.992  19.847  0.00  0.00    +0.000 OA
ATOM      3  N   UNL     1       5.241   3.524  18.580  0.00  0.00    +0.000 N 
ATOM      4  H   UNL     1       4.964   3.225  17.657  0.00  0.00    +0.000 HD
ENDROOT
BRANCH   1   5
ATOM      5  C   UNL     1       6.565   5.243  17.421  0.00  0.00    +0.000 C 
BRANCH   5   6
ATOM      6  N   UNL     1       5.464   5.513  16.453  0.00  0.00    +0.000 NA
BRANCH   6   7
ATOM      7  C   UNL     1       4.814   6.788  16.826  0.00  0.00    +0.000 C 
BRANCH   7   9
ATOM      8  C   UNL     1       2.800   8.019  17.818  0.00  0.00    +0.000 C 
ATOM      9  C   UNL     1       3.528   6.693  17.665  0.00  0.00    +0.000 C 
ENDBRANCH   7   9
ENDBRANCH   6   7
BRANCH   6  10
ATOM     10  C   UNL     1       5.908   5.488  15.043  0.00  0.00    +0.000 C 
BRANCH  10  11
ATOM     11  C   UNL     1       6.545   4.177  14.557  0.00  0.00    +0.000 C 
ATOM     12  C   UNL     1       5.946   3.718  13.236  0.00  0.00    +0.000 C 
ENDBRANCH  10  11
ENDBRANCH   6  10
ENDBRANCH   5   6
ENDBRANCH   1   5
BRANCH   3  13
ATOM     13  C   UNL     1       4.729   2.780  19.713  0.00  0.00    +0.000 C 
BRANCH  13  14
ATOM     14  C   UNL     1       3.225   2.843  19.769  0.00  0.00    +0.000 A 
ATOM     15  C   UNL     1       2.589   3.639  20.736  0.00  0.00    +0.000 A 
ATOM     16  C   UNL     1       1.195   3.724  20.779  0.00  0.00    +0.000 A 
ATOM     17  C   UNL     1       0.424   3.022  19.861  0.00  0.00    +0.000 A 
ATOM     18  C   UNL     1       1.044   2.230  18.893  0.00  0.00    +0.000 A 
ATOM     19  C   UNL     1       2.435   2.140  18.847  0.00  0.00    +0.000 A 
ENDBRANCH  13  14
ENDBRANCH   3  13
TORSDOF 8
ENDMDL
MODEL 5
REMARK VINA RESULT:      -6.0      0.724      3.025
REMARK  Name = 
REMARK  10 active torsions:
REMARK  status: ('A' for Active; 'I' for Inactive)
REMARK    1  A    between atoms: C_1  and  C_2
REMARK    2  A    between atoms: C_2  and  C_3
REMARK    3  A    between atoms: C_3  and  N_4
REMARK    4  A    between atoms: N_4  and  C_5
REMARK    5  A    between atoms: N_4  and  C_8
REMARK    6  A    between atoms: C_5  and  C_6
REMARK    7  A    between atoms: C_6  and  C_7
REMARK    8  A    between atoms: C_8  and  C_9
REMARK    9  A    between atoms: N_11  and  C_12
REMARK   10  A    between atoms: C_12  and  C_13
REMARK                            x       y       z     vdW  Elec       q    Type
REMARK                         _______ _______ _______ _____ _____    ______ ____
ROOT
ATOM      1  C   UNL     1       6.485   4.723  18.587  0.00  0.00    +0.000 C 
ATOM      2  O   UNL     1       6.755   5.293  19.644  0.00  0.00    +0.000 OA
ATOM      3  N   UNL     1       5.571   3.694  18.522  0.00  0.00    +0.000 N 
ATOM      4  H   UNL     1       5.351   3.264  17.637  0.00  0.00    +0.000 HD
ENDROOT
BRANCH   1   5
ATOM      5  C   UNL     1       7.075   5.147  17.227  0.00  0.00    +0.000 C 
BRANCH   5   6
ATOM      6  N   UNL     1       6.259   6.151  16.486  0.00  0.00    +0.000 NA
BRANCH   6   7
ATOM      7  C   UNL     1       5.564   5.464  15.376  0.00  0.00    +0.000 C 
BRANCH   7   9
ATOM      8  C   UNL     1       6.221   3.855  13.496  0.00  0.00    +0.000 C 
ATOM      9  C   UNL     1       6.076   4.065  14.995  0.00  0.00    +0.000 C 
ENDBRANCH   7   9
ENDBRANCH   6   7
BRANCH   6  10
ATOM     10  C   UNL     1       5.336   6.910  17.357  0.00  0.00    +0.000 C 
BRANCH  10  11
ATOM     11  C   UNL     1       3.840   6.611  17.182  0.00  0.00    +0.000 C 
ATOM     12  C   UNL     1       2.983   7.498  18.072  0.00  0.00    +0.000 C 
ENDBRANCH  10  11
ENDBRANCH   6  10
ENDBRANCH   5   6
ENDBRANCH   1   5
BRANCH   3  13
ATOM     13  C   UNL     1       4.933   3.163  19.710  0.00  0.00    +0.000 C 
BRANCH  13  14
ATOM     14  C   UNL     1       3.432   3.223  19.593  0.00  0.00    +0.000 A 
ATOM     15  C   UNL     1       2.633   3.174  20.746  0.00  0.00    +0.000 A 
ATOM     16  C   UNL     1       1.242   3.256  20.650  0.00  0.00    +0.000 A 
ATOM     17  C   UNL     1       0.635   3.389  19.406  0.00  0.00    +0.000 A 
ATOM     18  C   UNL     1       1.418   3.441  18.252  0.00  0.00    +0.000 A 
ATOM     19  C   UNL     1       2.808   3.359  18.344  0.00  0.00    +0.000 A 
ENDBRANCH  13  14
ENDBRANCH   3  13
TORSDOF 8
ENDMDL
MODEL 6
REMARK VINA RESULT:      -6.0      1.763      3.720
REMARK  Name = 
REMARK  10 active torsions:
REMARK  status: ('A' for Active; 'I' for Inactive)
REMARK    1  A    between atoms: C_1  and  C_2
REMARK    2  A    between atoms: C_2  and  C_3
REMARK    3  A    between atoms: C_3  and  N_4
REMARK    4  A    between atoms: N_4  and  C_5
REMARK    5  A    between atoms: N_4  and  C_8
REMARK    6  A    between atoms: C_5  and  C_6
REMARK    7  A    between atoms: C_6  and  C_7
REMARK    8  A    between atoms: C_8  and  C_9
REMARK    9  A    between atoms: N_11  and  C_12
REMARK   10  A    between atoms: C_12  and  C_13
REMARK                            x       y       z     vdW  Elec       q    Type
REMARK                         _______ _______ _______ _____ _____    ______ ____
ROOT
ATOM      1  C   UNL     1       4.266   6.430  17.156  0.00  0.00    +0.000 C 
ATOM      2  O   UNL     1       4.045   7.614  17.405  0.00  0.00    +0.000 OA
ATOM      3  N   UNL     1       3.405   5.427  17.544  0.00  0.00    +0.000 N 
ATOM      4  H   UNL     1       3.599   4.467  17.302  0.00  0.00    +0.000 HD
ENDROOT
BRANCH   1   5
ATOM      5  C   UNL     1       5.475   5.955  16.325  0.00  0.00    +0.000 C 
BRANCH   5   6
ATOM      6  N   UNL     1       5.988   4.605  16.695  0.00  0.00    +0.000 NA
BRANCH   6   7
ATOM      7  C   UNL     1       5.942   3.740  15.496  0.00  0.00    +0.000 C 
BRANCH   7   9
ATOM      8  C   UNL     1       6.093   3.588  12.945  0.00  0.00    +0.000 C 
ATOM      9  C   UNL     1       6.545   4.313  14.203  0.00  0.00    +0.000 C 
ENDBRANCH   7   9
ENDBRANCH   6   7
BRANCH   6  10
ATOM     10  C   UNL     1       7.326   4.642  17.323  0.00  0.00    +0.000 C 
BRANCH  10  11
ATOM     11  C   UNL     1       7.670   5.915  18.110  0.00  0.00    +0.000 C 
ATOM     12  C   UNL     1       7.637   5.672  19.612  0.00  0.00    +0.000 C 
ENDBRANCH  10  11
ENDBRANCH   6  10
ENDBRANCH   5   6
ENDBRANCH   1   5
BRANCH   3  13
ATOM     13  C   UNL     1       2.227   5.698  18.343  0.00  0.00    +0.000 C 
BRANCH  13  14
ATOM     14  C   UNL     1       1.986   4.600  19.346  0.00  0.00    +0.000 A 
ATOM     15  C   UNL     1       2.463   4.730  20.661  0.00  0.00    +0.000 A 
ATOM     16  C   UNL     1       2.222   3.729  21.605  0.00  0.00    +0.000 A 
ATOM     17  C   UNL     1       1.502   2.594  21.251  0.00  0.00    +0.000 A 
ATOM     18  C   UNL     1       1.020   2.455  19.949  0.00  0.00    +0.000 A 
ATOM     19  C   UNL     1       1.260   3.450  19.002  0.00  0.00    +0.000 A 
ENDBRANCH  13  14
ENDBRANCH   3  13
TORSDOF 8
ENDMDL
MODEL 7
REMARK VINA RESULT:      -5.9      1.954      5.683
REMARK  Name = 
REMARK  10 active torsions:
REMARK  status: ('A' for Active; 'I' for Inactive)
REMARK    1  A    between atoms: C_1  and  C_2
REMARK    2  A    between atoms: C_2  and  C_3
REMARK    3  A    between atoms: C_3  and  N_4
REMARK    4  A    between atoms: N_4  and  C_5
REMARK    5  A    between atoms: N_4  and  C_8
REMARK    6  A    between atoms: C_5  and  C_6
REMARK    7  A    between atoms: C_6  and  C_7
REMARK    8  A    between atoms: C_8  and  C_9
REMARK    9  A    between atoms: N_11  and  C_12
REMARK   10  A    between atoms: C_12  and  C_13
REMARK                            x       y       z     vdW  Elec       q    Type
REMARK                         _______ _______ _______ _____ _____    ______ ____
ROOT
ATOM      1  C   UNL     1       3.535   3.530  17.615  0.00  0.00    +0.000 C 
ATOM      2  O   UNL     1       4.097   2.690  18.317  0.00  0.00    +0.000 OA
ATOM      3  N   UNL     1       4.197   4.214  16.619  0.00  0.00    +0.000 N 
ATOM      4  H   UNL     1       3.703   4.877  16.042  0.00  0.00    +0.000 HD
ENDROOT
BRANCH   1   5
ATOM      5  C   UNL     1       2.030   3.845  17.722  0.00  0.00    +0.000 C 
BRANCH   5   6
ATOM      6  N   UNL     1       1.673   4.794  18.815  0.00  0.00    +0.000 NA
BRANCH   6   7
ATOM      7  C   UNL     1       1.104   4.020  19.941  0.00  0.00    +0.000 C 
BRANCH   7   9
ATOM      8  C   UNL     1       2.533   2.592  21.513  0.00  0.00    +0.000 C 
ATOM      9  C   UNL     1       1.935   3.961  21.233  0.00  0.00    +0.000 C 
ENDBRANCH   7   9
ENDBRANCH   6   7
BRANCH   6  10
ATOM     10  C   UNL     1       2.799   5.659  19.227  0.00  0.00    +0.000 C 
BRANCH  10  11
ATOM     11  C   UNL     1       2.574   7.172  19.096  0.00  0.00    +0.000 C 
ATOM     12  C   UNL     1       3.055   7.697  17.752  0.00  0.00    +0.000 C 
ENDBRANCH  10  11
ENDBRANCH   6  10
ENDBRANCH   5   6
ENDBRANCH   1   5
BRANCH   3  13
ATOM     13  C   UNL     1       5.618   4.047  16.392  0.00  0.00    +0.000 C 
BRANCH  13  14
ATOM     14  C   UNL     1       6.414   5.092  17.128  0.00  0.00    +0.000 A 
ATOM     15  C   UNL     1       7.163   4.739  18.262  0.00  0.00    +0.000 A 
ATOM     16  C   UNL     1       7.925   5.696  18.936  0.00  0.00    +0.000 A 
ATOM     17  C   UNL     1       7.949   7.012  18.487  0.00  0.00    +0.000 A 
ATOM     18  C   UNL     1       7.212   7.375  17.359  0.00  0.00    +0.000 A 
ATOM     19  C   UNL     1       6.449   6.423  16.684  0.00  0.00    +0.000 A 
ENDBRANCH  13  14
ENDBRANCH   3  13
TORSDOF 8
ENDMDL
MODEL 8
REMARK VINA RESULT:      -5.8      1.804      3.563
REMARK  Name = 
REMARK  10 active torsions:
REMARK  status: ('A' for Active; 'I' for Inactive)
REMARK    1  A    between atoms: C_1  and  C_2
REMARK    2  A    between atoms: C_2  and  C_3
REMARK    3  A    between atoms: C_3  and  N_4
REMARK    4  A    between atoms: N_4  and  C_5
REMARK    5  A    between atoms: N_4  and  C_8
REMARK    6  A    between atoms: C_5  and  C_6
REMARK    7  A    between atoms: C_6  and  C_7
REMARK    8  A    between atoms: C_8  and  C_9
REMARK    9  A    between atoms: N_11  and  C_12
REMARK   10  A    between atoms: C_12  and  C_13
REMARK                            x       y       z     vdW  Elec       q    Type
REMARK                         _______ _______ _______ _____ _____    ______ ____
ROOT
ATOM      1  C   UNL     1       3.870   5.621  17.243  0.00  0.00    +0.000 C 
ATOM      2  O   UNL     1       3.100   6.374  17.839  0.00  0.00    +0.000 OA
ATOM      3  N   UNL     1       3.540   4.315  16.954  0.00  0.00    +0.000 N 
ATOM      4  H   UNL     1       4.181   3.730  16.441  0.00  0.00    +0.000 HD
ENDROOT
BRANCH   1   5
ATOM      5  C   UNL     1       5.238   6.076  16.696  0.00  0.00    +0.000 C 
BRANCH   5   6
ATOM      6  N   UNL     1       6.411   5.409  17.330  0.00  0.00    +0.000 NA
BRANCH   6   7
ATOM      7  C   UNL     1       6.964   4.425  16.374  0.00  0.00    +0.000 C 
BRANCH   7   9
ATOM      8  C   UNL     1       6.245   3.848  13.985  0.00  0.00    +0.000 C 
ATOM      9  C   UNL     1       6.975   4.828  14.890  0.00  0.00    +0.000 C 
ENDBRANCH   7   9
ENDBRANCH   6   7
BRANCH   6  10
ATOM     10  C   UNL     1       7.428   6.362  17.823  0.00  0.00    +0.000 C 
BRANCH  10  11
ATOM     11  C   UNL     1       7.224   7.833  17.430  0.00  0.00    +0.000 C 
ATOM     12  C   UNL     1       8.270   8.734  18.068  0.00  0.00    +0.000 C 
ENDBRANCH  10  11
ENDBRANCH   6  10
ENDBRANCH   5   6
ENDBRANCH   1   5
BRANCH   3  13
ATOM     13  C   UNL     1       2.297   3.723  17.406  0.00  0.00    +0.000 C 
BRANCH  13  14
ATOM     14  C   UNL     1       2.362   3.375  18.870  0.00  0.00    +0.000 A 
ATOM     15  C   UNL     1       1.248   3.596  19.697  0.00  0.00    +0.000 A 
ATOM     16  C   UNL     1       1.289   3.253  21.050  0.00  0.00    +0.000 A 
ATOM     17  C   UNL     1       2.437   2.685  21.591  0.00  0.00    +0.000 A 
ATOM     18  C   UNL     1       3.549   2.456  20.780  0.00  0.00    +0.000 A 
ATOM     19  C   UNL     1       3.513   2.799  19.428  0.00  0.00    +0.000 A 
ENDBRANCH  13  14
ENDBRANCH   3  13
TORSDOF 8
ENDMDL
MODEL 9
REMARK VINA RESULT:      -5.8      1.802      3.588
REMARK  Name = 
REMARK  10 active torsions:
REMARK  status: ('A' for Active; 'I' for Inactive)
REMARK    1  A    between atoms: C_1  and  C_2
REMARK    2  A    between atoms: C_2  and  C_3
REMARK    3  A    between atoms: C_3  and  N_4
REMARK    4  A    between atoms: N_4  and  C_5
REMARK    5  A    between atoms: N_4  and  C_8
REMARK    6  A    between atoms: C_5  and  C_6
REMARK    7  A    between atoms: C_6  and  C_7
REMARK    8  A    between atoms: C_8  and  C_9
REMARK    9  A    between atoms: N_11  and  C_12
REMARK   10  A    between atoms: C_12  and  C_13
REMARK                            x       y       z     vdW  Elec       q    Type
REMARK                         _______ _______ _______ _____ _____    ______ ____
ROOT
ATOM      1  C   UNL     1       4.577   5.920  18.366  0.00  0.00    +0.000 C 
ATOM      2  O   UNL     1       5.089   5.389  19.351  0.00  0.00    +0.000 OA
ATOM      3  N   UNL     1       3.306   6.451  18.398  0.00  0.00    +0.000 N 
ATOM      4  H   UNL     1       2.923   6.904  17.583  0.00  0.00    +0.000 HD
ENDROOT
BRANCH   1   5
ATOM      5  C   UNL     1       5.323   6.115  17.031  0.00  0.00    +0.000 C 
BRANCH   5   6
ATOM      6  N   UNL     1       6.715   5.580  17.018  0.00  0.00    +0.000 NA
BRANCH   6   7
ATOM      7  C   UNL     1       6.995   5.032  15.672  0.00  0.00    +0.000 C 
BRANCH   7   9
ATOM      8  C   UNL     1       6.056   3.847  13.607  0.00  0.00    +0.000 C 
ATOM      9  C   UNL     1       5.787   4.817  14.746  0.00  0.00    +0.000 C 
ENDBRANCH   7   9
ENDBRANCH   6   7
BRANCH   6  10
ATOM     10  C   UNL     1       7.724   6.570  17.453  0.00  0.00    +0.000 C 
BRANCH  10  11
ATOM     11  C   UNL     1       7.276   8.039  17.451  0.00  0.00    +0.000 C 
ATOM     12  C   UNL     1       8.320   8.946  18.086  0.00  0.00    +0.000 C 
ENDBRANCH  10  11
ENDBRANCH   6  10
ENDBRANCH   5   6
ENDBRANCH   1   5
BRANCH   3  13
ATOM     13  C   UNL     1       2.462   6.343  19.571  0.00  0.00    +0.000 C 
BRANCH  13  14
ATOM     14  C   UNL     1       1.991   4.927  19.773  0.00  0.00    +0.000 A 
ATOM     15  C   UNL     1       2.018   4.351  21.054  0.00  0.00    +0.000 A 
ATOM     16  C   UNL     1       1.558   3.047  21.256  0.00  0.00    +0.000 A 
ATOM     17  C   UNL     1       1.067   2.307  20.187  0.00  0.00    +0.000 A 
ATOM     18  C   UNL     1       1.031   2.869  18.910  0.00  0.00    +0.000 A 
ATOM     19  C   UNL     1       1.490   4.169  18.703  0.00  0.00    +0.000 A 
ENDBRANCH  13  14
ENDBRANCH   3  13
TORSDOF 8
ENDMDL
