MODEL 1
REMARK VINA RESULT:      -7.4      0.000      0.000
REMARK  Name = 
REMARK  4 active torsions:
REMARK  status: ('A' for Active; 'I' for Inactive)
REMARK    1  A    between atoms: C_2  and  C_3
REMARK    2  A    between atoms: C_6  and  C_7
REMARK    3  A    between atoms: C_7  and  S_8
REMARK    4  A    between atoms: S_8  and  C_9
REMARK                            x       y       z     vdW  Elec       q    Type
REMARK                         _______ _______ _______ _____ _____    ______ ____
ROOT
ATOM      1  C   UNL     1       3.433   6.171  18.962  0.00  0.00    +0.000 A 
ATOM      2  C   UNL     1       2.499   6.703  19.854  0.00  0.00    +0.000 A 
ATOM      3  C   UNL     1       1.858   7.910  19.558  0.00  0.00    +0.000 A 
ATOM      4  C   UNL     1       2.173   8.630  18.393  0.00  0.00    +0.000 A 
ATOM      5  C   UNL     1       3.045   8.041  17.468  0.00  0.00    +0.000 A 
ATOM      6  C   UNL     1       3.638   6.806  17.736  0.00  0.00    +0.000 A 
ENDROOT
BRANCH   1   8
ATOM      7  O   UNL     1       5.301   4.987  19.712  0.00  0.00    +0.000 OA
ATOM      8  C   UNL     1       4.137   4.911  19.322  0.00  0.00    +0.000 C 
ATOM      9  N   UNL     1       3.475   3.697  19.173  0.00  0.00    +0.000 N 
ATOM     10  C   UNL     1       4.134   2.452  19.529  0.00  0.00    +0.000 C 
ATOM     11  C   UNL     1       3.579   1.436  18.542  0.00  0.00    +0.000 C 
ATOM     12  C   UNL     1       2.158   1.921  18.312  0.00  0.00    +0.000 C 
ATOM     13  C   UNL     1       2.284   3.438  18.373  0.00  0.00    +0.000 C 
ENDBRANCH   1   8
BRANCH   4  14
ATOM     14  C   UNL     1       1.537   9.965  18.060  0.00  0.00    +0.000 C 
BRANCH  14  15
ATOM     15  S   UNL     1       0.670  10.716  19.480  0.00  0.00    +0.000 S 
BRANCH  15  16
ATOM     16  C   UNL     1      -1.008  10.923  18.919  0.00  0.00    +0.000 A 
ATOM     17  C   UNL     1      -1.939  11.820  19.450  0.00  0.00    +0.000 A 
ATOM     18  C   UNL     1      -3.220  11.925  18.892  0.00  0.00    +0.000 A 
ATOM     19  C   UNL     1      -3.572  11.136  17.798  0.00  0.00    +0.000 A 
ATOM     20 CL   UNL     1      -5.141  11.274  17.109  0.00  0.00    +0.000 Cl
ATOM     21  C   UNL     1      -2.657  10.243  17.257  0.00  0.00    +0.000 A 
ATOM     22  C   UNL     1      -1.382  10.138  17.815  0.00  0.00    +0.000 A 
ENDBRANCH  15  16
ENDBRANCH  14  15
ENDBRANCH   4  14
TORSDOF 4
ENDMDL
MODEL 2
REMARK VINA RESULT:      -7.3      0.291      1.067
REMARK  Name = 
REMARK  4 active torsions:
REMARK  status: ('A' for Active; 'I' for Inactive)
REMARK    1  A    between atoms: C_2  and  C_3
REMARK    2  A    between atoms: C_6  and  C_7
REMARK    3  A    between atoms: C_7  and  S_8
REMARK    4  A    between atoms: S_8  and  C_9
REMARK                            x       y       z     vdW  Elec       q    Type
REMARK                         _______ _______ _______ _____ _____    ______ ____
ROOT
ATOM      1  C   UNL     1       3.342   6.307  19.029  0.00  0.00    +0.000 A 
ATOM      2  C   UNL     1       3.603   6.942  17.813  0.00  0.00    +0.000 A 
ATOM      3  C   UNL     1       2.932   8.123  17.481  0.00  0.00    +0.000 A 
ATOM      4  C   UNL     1       1.955   8.663  18.335  0.00  0.00    +0.000 A 
ATOM      5  C   UNL     1       1.768   8.065  19.588  0.00  0.00    +0.000 A 
ATOM      6  C   UNL     1       2.483   6.920  19.944  0.00  0.00    +0.000 A 
ENDROOT
BRANCH   1   8
ATOM      7  O   UNL     1       5.196   5.075  19.734  0.00  0.00    +0.000 OA
ATOM      8  C   UNL     1       4.033   5.026  19.337  0.00  0.00    +0.000 C 
ATOM      9  N   UNL     1       3.361   3.826  19.135  0.00  0.00    +0.000 N 
ATOM     10  C   UNL     1       4.007   2.561  19.440  0.00  0.00    +0.000 C 
ATOM     11  C   UNL     1       3.447   1.593  18.409  0.00  0.00    +0.000 C 
ATOM     12  C   UNL     1       2.031   2.101  18.195  0.00  0.00    +0.000 C 
ATOM     13  C   UNL     1       2.170   3.613  18.321  0.00  0.00    +0.000 C 
ENDBRANCH   1   8
BRANCH   4  14
ATOM     14  C   UNL     1       1.170   9.914  17.991  0.00  0.00    +0.000 C 
BRANCH  14  15
ATOM     15  S   UNL     1       0.405  10.700  19.450  0.00  0.00    +0.000 S 
BRANCH  15  16
ATOM     16  C   UNL     1      -1.302  10.922  18.993  0.00  0.00    +0.000 A 
ATOM     17  C   UNL     1      -2.166  11.886  19.519  0.00  0.00    +0.000 A 
ATOM     18  C   UNL     1      -3.481  11.992  19.045  0.00  0.00    +0.000 A 
ATOM     19  C   UNL     1      -3.933  11.138  18.041  0.00  0.00    +0.000 A 
ATOM     20 CL   UNL     1      -5.543  11.278  17.454  0.00  0.00    +0.000 Cl
ATOM     21  C   UNL     1      -3.085  10.177  17.506  0.00  0.00    +0.000 A 
ATOM     22  C   UNL     1      -1.777  10.071  17.980  0.00  0.00    +0.000 A 
ENDBRANCH  15  16
ENDBRANCH  14  15
ENDBRANCH   4  14
TORSDOF 4
ENDMDL
MODEL 3
REMARK VINA RESULT:      -7.3      0.382      1.094
REMARK  Name = 
REMARK  4 active torsions:
REMARK  status: ('A' for Active; 'I' for Inactive)
REMARK    1  A    between atoms: C_2  and  C_3
REMARK    2  A    between atoms: C_6  and  C_7
REMARK    3  A    between atoms: C_7  and  S_8
REMARK    4  A    between atoms: S_8  and  C_9
REMARK                            x       y       z     vdW  Elec       q    Type
REMARK                         _______ _______ _______ _____ _____    ______ ____
ROOT
ATOM      1  C   UNL     1       3.225   6.390  19.036  0.00  0.00    +0.000 A 
ATOM      2  C   UNL     1       2.334   6.955  19.950  0.00  0.00    +0.000 A 
ATOM      3  C   UNL     1       1.695   8.163  19.651  0.00  0.00    +0.000 A 
ATOM      4  C   UNL     1       1.973   8.851  18.458  0.00  0.00    +0.000 A 
ATOM      5  C   UNL     1       2.801   8.229  17.513  0.00  0.00    +0.000 A 
ATOM      6  C   UNL     1       3.390   6.994  17.788  0.00  0.00    +0.000 A 
ENDROOT
BRANCH   1   8
ATOM      7  O   UNL     1       5.107   5.200  19.740  0.00  0.00    +0.000 OA
ATOM      8  C   UNL     1       3.928   5.130  19.398  0.00  0.00    +0.000 C 
ATOM      9  N   UNL     1       3.247   3.922  19.304  0.00  0.00    +0.000 N 
ATOM     10  C   UNL     1       3.905   2.677  19.663  0.00  0.00    +0.000 C 
ATOM     11  C   UNL     1       3.299   1.645  18.724  0.00  0.00    +0.000 C 
ATOM     12  C   UNL     1       1.876   2.143  18.537  0.00  0.00    +0.000 C 
ATOM     13  C   UNL     1       2.022   3.659  18.558  0.00  0.00    +0.000 C 
ENDBRANCH   1   8
BRANCH   4  14
ATOM     14  C   UNL     1       1.340  10.186  18.119  0.00  0.00    +0.000 C 
BRANCH  14  15
ATOM     15  S   UNL     1       0.333  10.866  19.481  0.00  0.00    +0.000 S 
BRANCH  15  16
ATOM     16  C   UNL     1      -1.324  10.914  18.830  0.00  0.00    +0.000 A 
ATOM     17  C   UNL     1      -1.838  10.062  17.848  0.00  0.00    +0.000 A 
ATOM     18  C   UNL     1      -3.176  10.169  17.447  0.00  0.00    +0.000 A 
ATOM     19  C   UNL     1      -4.007  11.124  18.031  0.00  0.00    +0.000 A 
ATOM     20 CL   UNL     1      -5.651  11.246  17.546  0.00  0.00    +0.000 Cl
ATOM     21  C   UNL     1      -3.511  11.976  19.011  0.00  0.00    +0.000 A 
ATOM     22  C   UNL     1      -2.178  11.870  19.407  0.00  0.00    +0.000 A 
ENDBRANCH  15  16
ENDBRANCH  14  15
ENDBRANCH   4  14
TORSDOF 4
ENDMDL
MODEL 4
REMARK VINA RESULT:      -7.3      0.393      1.500
REMARK  Name = 
REMARK  4 active torsions:
REMARK  status: ('A' for Active; 'I' for Inactive)
REMARK    1  A    between atoms: C_2  and  C_3
REMARK    2  A    between atoms: C_6  and  C_7
REMARK    3  A    between atoms: C_7  and  S_8
REMARK    4  A    between atoms: S_8  and  C_9
REMARK                            x       y       z     vdW  Elec       q    Type
REMARK                         _______ _______ _______ _____ _____    ______ ____
ROOT
ATOM      1  C   UNL     1       3.713   5.925  18.902  0.00  0.00    +0.000 A 
ATOM      2  C   UNL     1       4.073   6.619  17.745  0.00  0.00    +0.000 A 
ATOM      3  C   UNL     1       3.424   7.812  17.414  0.00  0.00    +0.000 A 
ATOM      4  C   UNL     1       2.372   8.306  18.204  0.00  0.00    +0.000 A 
ATOM      5  C   UNL     1       2.083   7.647  19.407  0.00  0.00    +0.000 A 
ATOM      6  C   UNL     1       2.774   6.489  19.767  0.00  0.00    +0.000 A 
ENDROOT
BRANCH   1   8
ATOM      7  O   UNL     1       5.595   4.647  19.431  0.00  0.00    +0.000 OA
ATOM      8  C   UNL     1       4.386   4.633  19.207  0.00  0.00    +0.000 C 
ATOM      9  N   UNL     1       3.640   3.460  19.195  0.00  0.00    +0.000 N 
ATOM     10  C   UNL     1       4.268   2.186  19.502  0.00  0.00    +0.000 C 
ATOM     11  C   UNL     1       3.523   1.180  18.638  0.00  0.00    +0.000 C 
ATOM     12  C   UNL     1       2.114   1.747  18.587  0.00  0.00    +0.000 C 
ATOM     13  C   UNL     1       2.336   3.254  18.576  0.00  0.00    +0.000 C 
ENDBRANCH   1   8
BRANCH   4  14
ATOM     14  C   UNL     1       1.610   9.569  17.854  0.00  0.00    +0.000 C 
BRANCH  14  15
ATOM     15  S   UNL     1       0.615  10.211  19.244  0.00  0.00    +0.000 S 
BRANCH  15  16
ATOM     16  C   UNL     1      -0.983  10.542  18.532  0.00  0.00    +0.000 A 
ATOM     17  C   UNL     1      -1.524   9.904  17.412  0.00  0.00    +0.000 A 
ATOM     18  C   UNL     1      -2.816  10.220  16.971  0.00  0.00    +0.000 A 
ATOM     19  C   UNL     1      -3.573  11.172  17.652  0.00  0.00    +0.000 A 
ATOM     20 CL   UNL     1      -5.162  11.550  17.116  0.00  0.00    +0.000 Cl
ATOM     21  C   UNL     1      -3.051  11.813  18.769  0.00  0.00    +0.000 A 
ATOM     22  C   UNL     1      -1.764  11.498  19.205  0.00  0.00    +0.000 A 
ENDBRANCH  15  16
ENDBRANCH  14  15
ENDBRANCH   4  14
TORSDOF 4
ENDMDL
MODEL 5
REMARK VINA RESULT:      -7.2      1.930      2.935
REMARK  Name = 
REMARK  4 active torsions:
REMARK  status: ('A' for Active; 'I' for Inactive)
REMARK    1  A    between atoms: C_2  and  C_3
REMARK    2  A    between atoms: C_6  and  C_7
REMARK    3  A    between atoms: C_7  and  S_8
REMARK    4  A    between atoms: S_8  and  C_9
REMARK                            x       y       z     vdW  Elec       q    Type
REMARK                         _______ _______ _______ _____ _____    ______ ____
ROOT
ATOM      1  C   UNL     1       2.982   6.563  18.238  0.00  0.00    +0.000 A 
ATOM      2  C   UNL     1       2.743   7.728  17.507  0.00  0.00    +0.000 A 
ATOM      3  C   UNL     1       2.070   8.801  18.100  0.00  0.00    +0.000 A 
ATOM      4  C   UNL     1       1.582   8.710  19.415  0.00  0.00    +0.000 A 
ATOM      5  C   UNL     1       1.907   7.571  20.164  0.00  0.00    +0.000 A 
ATOM      6  C   UNL     1       2.632   6.526  19.589  0.00  0.00    +0.000 A 
ENDROOT
BRANCH   1   8
ATOM      7  O   UNL     1       3.032   4.365  17.450  0.00  0.00    +0.000 OA
ATOM      8  C   UNL     1       3.657   5.418  17.570  0.00  0.00    +0.000 C 
ATOM      9  N   UNL     1       4.971   5.561  17.139  0.00  0.00    +0.000 N 
ATOM     10  C   UNL     1       5.650   4.463  16.472  0.00  0.00    +0.000 C 
ATOM     11  C   UNL     1       7.104   4.605  16.897  0.00  0.00    +0.000 C 
ATOM     12  C   UNL     1       7.277   6.108  17.033  0.00  0.00    +0.000 C 
ATOM     13  C   UNL     1       5.927   6.578  17.560  0.00  0.00    +0.000 C 
ENDBRANCH   1   8
BRANCH   4  14
ATOM     14  C   UNL     1       0.806   9.831  20.077  0.00  0.00    +0.000 C 
BRANCH  14  15
ATOM     15  S   UNL     1       0.499  11.244  18.962  0.00  0.00    +0.000 S 
BRANCH  15  16
ATOM     16  C   UNL     1      -1.220  11.099  18.522  0.00  0.00    +0.000 A 
ATOM     17  C   UNL     1      -1.762  10.140  17.661  0.00  0.00    +0.000 A 
ATOM     18  C   UNL     1      -3.143  10.098  17.427  0.00  0.00    +0.000 A 
ATOM     19  C   UNL     1      -3.987  11.012  18.056  0.00  0.00    +0.000 A 
ATOM     20 CL   UNL     1      -5.682  10.951  17.775  0.00  0.00    +0.000 Cl
ATOM     21  C   UNL     1      -3.464  11.968  18.917  0.00  0.00    +0.000 A 
ATOM     22  C   UNL     1      -2.088  12.010  19.148  0.00  0.00    +0.000 A 
ENDBRANCH  15  16
ENDBRANCH  14  15
ENDBRANCH   4  14
TORSDOF 4
ENDMDL
MODEL 6
REMARK VINA RESULT:      -7.2      2.304      2.980
REMARK  Name = 
REMARK  4 active torsions:
REMARK  status: ('A' for Active; 'I' for Inactive)
REMARK    1  A    between atoms: C_2  and  C_3
REMARK    2  A    between atoms: C_6  and  C_7
REMARK    3  A    between atoms: C_7  and  S_8
REMARK    4  A    between atoms: S_8  and  C_9
REMARK                            x       y       z     vdW  Elec       q    Type
REMARK                         _______ _______ _______ _____ _____    ______ ____
ROOT
ATOM      1  C   UNL     1       2.786   6.720  19.198  0.00  0.00    +0.000 A 
ATOM      2  C   UNL     1       2.828   7.441  18.003  0.00  0.00    +0.000 A 
ATOM      3  C   UNL     1       2.100   8.629  17.876  0.00  0.00    +0.000 A 
ATOM      4  C   UNL     1       1.282   9.091  18.921  0.00  0.00    +0.000 A 
ATOM      5  C   UNL     1       1.320   8.405  20.143  0.00  0.00    +0.000 A 
ATOM      6  C   UNL     1       2.095   7.253  20.288  0.00  0.00    +0.000 A 
ENDROOT
BRANCH   1   8
ATOM      7  O   UNL     1       4.753   5.480  19.419  0.00  0.00    +0.000 OA
ATOM      8  C   UNL     1       3.530   5.435  19.292  0.00  0.00    +0.000 C 
ATOM      9  N   UNL     1       2.830   4.238  19.199  0.00  0.00    +0.000 N 
ATOM     10  C   UNL     1       3.529   2.968  19.300  0.00  0.00    +0.000 C 
ATOM     11  C   UNL     1       2.752   2.035  18.384  0.00  0.00    +0.000 C 
ATOM     12  C   UNL     1       1.324   2.537  18.514  0.00  0.00    +0.000 C 
ATOM     13  C   UNL     1       1.487   4.044  18.666  0.00  0.00    +0.000 C 
ENDBRANCH   1   8
BRANCH   4  14
ATOM     14  C   UNL     1       0.441  10.346  18.807  0.00  0.00    +0.000 C 
BRANCH  14  15
ATOM     15  S   UNL     1       1.033  11.702  19.876  0.00  0.00    +0.000 S 
BRANCH  15  16
ATOM     16  C   UNL     1      -0.302  11.981  21.022  0.00  0.00    +0.000 A 
ATOM     17  C   UNL     1      -1.285  12.967  20.901  0.00  0.00    +0.000 A 
ATOM     18  C   UNL     1      -2.315  13.060  21.848  0.00  0.00    +0.000 A 
ATOM     19  C   UNL     1      -2.367  12.163  22.914  0.00  0.00    +0.000 A 
ATOM     20 CL   UNL     1      -3.637  12.272  24.066  0.00  0.00    +0.000 Cl
ATOM     21  C   UNL     1      -1.399  11.175  23.045  0.00  0.00    +0.000 A 
ATOM     22  C   UNL     1      -0.373  11.086  22.103  0.00  0.00    +0.000 A 
ENDBRANCH  15  16
ENDBRANCH  14  15
ENDBRANCH   4  14
TORSDOF 4
ENDMDL
MODEL 7
REMARK VINA RESULT:      -7.2      1.046      1.612
REMARK  Name = 
REMARK  4 active torsions:
REMARK  status: ('A' for Active; 'I' for Inactive)
REMARK    1  A    between atoms: C_2  and  C_3
REMARK    2  A    between atoms: C_6  and  C_7
REMARK    3  A    between atoms: C_7  and  S_8
REMARK    4  A    between atoms: S_8  and  C_9
REMARK                            x       y       z     vdW  Elec       q    Type
REMARK                         _______ _______ _______ _____ _____    ______ ____
ROOT
ATOM      1  C   UNL     1       2.665   6.685  19.116  0.00  0.00    +0.000 A 
ATOM      2  C   UNL     1       2.131   6.792  20.402  0.00  0.00    +0.000 A 
ATOM      3  C   UNL     1       1.411   7.933  20.768  0.00  0.00    +0.000 A 
ATOM      4  C   UNL     1       1.253   9.006  19.875  0.00  0.00    +0.000 A 
ATOM      5  C   UNL     1       1.718   8.847  18.562  0.00  0.00    +0.000 A 
ATOM      6  C   UNL     1       2.384   7.682  18.180  0.00  0.00    +0.000 A 
ENDROOT
BRANCH   1   8
ATOM      7  O   UNL     1       4.640   5.645  18.429  0.00  0.00    +0.000 OA
ATOM      8  C   UNL     1       3.468   5.483  18.767  0.00  0.00    +0.000 C 
ATOM      9  N   UNL     1       2.865   4.230  18.798  0.00  0.00    +0.000 N 
ATOM     10  C   UNL     1       3.629   3.038  18.473  0.00  0.00    +0.000 C 
ATOM     11  C   UNL     1       2.621   2.112  17.810  0.00  0.00    +0.000 C 
ATOM     12  C   UNL     1       1.324   2.447  18.526  0.00  0.00    +0.000 C 
ATOM     13  C   UNL     1       1.436   3.944  18.788  0.00  0.00    +0.000 C 
ENDBRANCH   1   8
BRANCH   4  14
ATOM     14  C   UNL     1       0.522  10.280  20.248  0.00  0.00    +0.000 C 
BRANCH  14  15
ATOM     15  S   UNL     1       0.220  11.375  18.819  0.00  0.00    +0.000 S 
BRANCH  15  16
ATOM     16  C   UNL     1      -1.515  11.178  18.466  0.00  0.00    +0.000 A 
ATOM     17  C   UNL     1      -2.071  10.195  17.644  0.00  0.00    +0.000 A 
ATOM     18  C   UNL     1      -3.461  10.113  17.478  0.00  0.00    +0.000 A 
ATOM     19  C   UNL     1      -4.297  11.011  18.138  0.00  0.00    +0.000 A 
ATOM     20 CL   UNL     1      -6.001  10.902  17.942  0.00  0.00    +0.000 Cl
ATOM     21  C   UNL     1      -3.759  11.992  18.962  0.00  0.00    +0.000 A 
ATOM     22  C   UNL     1      -2.376  12.074  19.124  0.00  0.00    +0.000 A 
ENDBRANCH  15  16
ENDBRANCH  14  15
ENDBRANCH   4  14
TORSDOF 4
ENDMDL
MODEL 8
REMARK VINA RESULT:      -7.1      4.544      8.351
REMARK  Name = 
REMARK  4 active torsions:
REMARK  status: ('A' for Active; 'I' for Inactive)
REMARK    1  A    between atoms: C_2  and  C_3
REMARK    2  A    between atoms: C_6  and  C_7
REMARK    3  A    between atoms: C_7  and  S_8
REMARK    4  A    between atoms: S_8  and  C_9
REMARK                            x       y       z     vdW  Elec       q    Type
REMARK                         _______ _______ _______ _____ _____    ______ ____
ROOT
ATOM      1  C   UNL     1       0.635   9.759  19.378  0.00  0.00    +0.000 A 
ATOM      2  C   UNL     1       0.669   9.085  20.600  0.00  0.00    +0.000 A 
ATOM      3  C   UNL     1       1.458   7.939  20.745  0.00  0.00    +0.000 A 
ATOM      4  C   UNL     1       2.186   7.421  19.661  0.00  0.00    +0.000 A 
ATOM      5  C   UNL     1       2.212   8.157  18.469  0.00  0.00    +0.000 A 
ATOM      6  C   UNL     1       1.472   9.334  18.344  0.00  0.00    +0.000 A 
ENDROOT
BRANCH   1   8
ATOM      7  O   UNL     1      -0.044  11.916  19.964  0.00  0.00    +0.000 OA
ATOM      8  C   UNL     1      -0.249  10.947  19.234  0.00  0.00    +0.000 C 
ATOM      9  N   UNL     1      -1.290  10.911  18.313  0.00  0.00    +0.000 N 
ATOM     10  C   UNL     1      -2.161  12.062  18.143  0.00  0.00    +0.000 C 
ATOM     11  C   UNL     1      -3.517  11.462  17.801  0.00  0.00    +0.000 C 
ATOM     12  C   UNL     1      -3.152  10.211  17.019  0.00  0.00    +0.000 C 
ATOM     13  C   UNL     1      -1.874   9.728  17.693  0.00  0.00    +0.000 C 
ENDBRANCH   1   8
BRANCH   4  14
ATOM     14  C   UNL     1       3.014   6.156  19.764  0.00  0.00    +0.000 C 
BRANCH  14  15
ATOM     15  S   UNL     1       2.582   4.915  18.496  0.00  0.00    +0.000 S 
BRANCH  15  16
ATOM     16  C   UNL     1       3.884   5.040  17.287  0.00  0.00    +0.000 A 
ATOM     17  C   UNL     1       4.486   6.227  16.860  0.00  0.00    +0.000 A 
ATOM     18  C   UNL     1       5.536   6.193  15.932  0.00  0.00    +0.000 A 
ATOM     19  C   UNL     1       5.991   4.974  15.435  0.00  0.00    +0.000 A 
ATOM     20 CL   UNL     1       7.287   4.935  14.306  0.00  0.00    +0.000 Cl
ATOM     21  C   UNL     1       5.406   3.785  15.853  0.00  0.00    +0.000 A 
ATOM     22  C   UNL     1       4.358   3.820  16.775  0.00  0.00    +0.000 A 
ENDBRANCH  15  16
ENDBRANCH  14  15
ENDBRANCH   4  14
TORSDOF 4
ENDMDL
MODEL 9
REMARK VINA RESULT:      -7.1      4.615      8.536
REMARK  Name = 
REMARK  4 active torsions:
REMARK  status: ('A' for Active; 'I' for Inactive)
REMARK    1  A    between atoms: C_2  and  C_3
REMARK    2  A    between atoms: C_6  and  C_7
REMARK    3  A    between atoms: C_7  and  S_8
REMARK    4  A    between atoms: S_8  and  C_9
REMARK                            x       y       z     vdW  Elec       q    Type
REMARK                         _______ _______ _______ _____ _____    ______ ____
ROOT
ATOM      1  C   UNL     1       1.417   9.189  19.094  0.00  0.00    +0.000 A 
ATOM      2  C   UNL     1       2.039   8.704  17.941  0.00  0.00    +0.000 A 
ATOM      3  C   UNL     1       2.663   7.452  17.957  0.00  0.00    +0.000 A 
ATOM      4  C   UNL     1       2.719   6.687  19.134  0.00  0.00    +0.000 A 
ATOM      5  C   UNL     1       2.015   7.146  20.256  0.00  0.00    +0.000 A 
ATOM      6  C   UNL     1       1.341   8.368  20.221  0.00  0.00    +0.000 A 
ENDROOT
BRANCH   1   8
ATOM      7  O   UNL     1       1.330  11.435  19.729  0.00  0.00    +0.000 OA
ATOM      8  C   UNL     1       0.803  10.543  19.066  0.00  0.00    +0.000 C 
ATOM      9  N   UNL     1      -0.357  10.748  18.326  0.00  0.00    +0.000 N 
ATOM     10  C   UNL     1      -0.971  12.064  18.271  0.00  0.00    +0.000 C 
ATOM     11  C   UNL     1      -2.462  11.780  18.167  0.00  0.00    +0.000 C 
ATOM     12  C   UNL     1      -2.511  10.490  17.367  0.00  0.00    +0.000 C 
ATOM     13  C   UNL     1      -1.278   9.729  17.837  0.00  0.00    +0.000 C 
ENDBRANCH   1   8
BRANCH   4  14
ATOM     14  C   UNL     1       3.427   5.349  19.206  0.00  0.00    +0.000 C 
BRANCH  14  15
ATOM     15  S   UNL     1       5.245   5.499  19.151  0.00  0.00    +0.000 S 
BRANCH  15  16
ATOM     16  C   UNL     1       5.675   5.107  17.467  0.00  0.00    +0.000 A 
ATOM     17  C   UNL     1       6.923   5.318  16.876  0.00  0.00    +0.000 A 
ATOM     18  C   UNL     1       7.154   4.925  15.550  0.00  0.00    +0.000 A 
ATOM     19  C   UNL     1       6.139   4.315  14.815  0.00  0.00    +0.000 A 
ATOM     20 CL   UNL     1       6.429   3.824  13.193  0.00  0.00    +0.000 Cl
ATOM     21  C   UNL     1       4.894   4.096  15.390  0.00  0.00    +0.000 A 
ATOM     22  C   UNL     1       4.665   4.490  16.709  0.00  0.00    +0.000 A 
ENDBRANCH  15  16
ENDBRANCH  14  15
ENDBRANCH   4  14
TORSDOF 4
ENDMDL
