MODEL 1
REMARK VINA RESULT:      -6.8      0.000      0.000
REMARK  Name = 
REMARK  6 active torsions:
REMARK  status: ('A' for Active; 'I' for Inactive)
REMARK    1  A    between atoms: C_1  and  C_2
REMARK    2  A    between atoms: C_2  and  O_3
REMARK    3  A    between atoms: O_3  and  C_4
REMARK    4  A    between atoms: C_4  and  C_6
REMARK    5  A    between atoms: N_10  and  C_11
REMARK    6  A    between atoms: C_16  and  C_17
REMARK                            x       y       z     vdW  Elec       q    Type
REMARK                         _______ _______ _______ _____ _____    ______ ____
ROOT
ATOM      1  C   UNL     1       3.472   5.018  19.777  0.00  0.00    +0.000 C 
ATOM      2  C   UNL     1       2.506   6.208  19.671  0.00  0.00    +0.000 C 
ATOM      3  C   UNL     1       2.485   6.865  18.288  0.00  0.00    +0.000 C 
ATOM      4  C   UNL     1       3.885   7.071  17.706  0.00  0.00    +0.000 C 
ATOM      5  N   UNL     1       4.604   5.787  17.750  0.00  0.00    +0.000 N 
ATOM      6  C   UNL     1       4.822   5.307  19.118  0.00  0.00    +0.000 C 
ENDROOT
BRANCH   5   7
ATOM      7  C   UNL     1       5.452   5.484  16.692  0.00  0.00    +0.000 A 
ATOM      8  N   UNL     1       5.026   4.512  15.837  0.00  0.00    +0.000 NA
ATOM      9  C   UNL     1       5.848   4.115  14.839  0.00  0.00    +0.000 A 
ATOM     10  C   UNL     1       7.086   4.672  14.640  0.00  0.00    +0.000 A 
ATOM     11  N   UNL     1       7.559   5.641  15.440  0.00  0.00    +0.000 NA
ATOM     12  C   UNL     1       6.739   6.024  16.467  0.00  0.00    +0.000 A 
BRANCH  12  13
ATOM     13  C   UNL     1       7.376   6.987  17.314  0.00  0.00    +0.000 C 
ATOM     14  N   UNL     1       7.953   7.743  17.984  0.00  0.00    +0.000 NA
ENDBRANCH  12  13
ENDBRANCH   5   7
BRANCH   1  15
ATOM     15  C   UNL     1       2.876   3.751  19.193  0.00  0.00    +0.000 C 
ATOM     16  O   UNL     1       3.507   2.864  18.634  0.00  0.00    +0.000 OA
BRANCH  15  17
ATOM     17  O   UNL     1       1.525   3.754  19.379  0.00  0.00    +0.000 OA
BRANCH  17  19
ATOM     18  C   UNL     1       1.422   2.742  21.573  0.00  0.00    +0.000 C 
ATOM     19  C   UNL     1       1.001   2.641  20.121  0.00  0.00    +0.000 C 
ENDBRANCH  17  19
ENDBRANCH  15  17
ENDBRANCH   1  15
TORSDOF 5
ENDMDL
MODEL 2
REMARK VINA RESULT:      -6.7      2.693      5.460
REMARK  Name = 
REMARK  6 active torsions:
REMARK  status: ('A' for Active; 'I' for Inactive)
REMARK    1  A    between atoms: C_1  and  C_2
REMARK    2  A    between atoms: C_2  and  O_3
REMARK    3  A    between atoms: O_3  and  C_4
REMARK    4  A    between atoms: C_4  and  C_6
REMARK    5  A    between atoms: N_10  and  C_11
REMARK    6  A    between atoms: C_16  and  C_17
REMARK                            x       y       z     vdW  Elec       q    Type
REMARK                         _______ _______ _______ _____ _____    ______ ____
ROOT
ATOM      1  C   UNL     1       6.654   6.485  16.800  0.00  0.00    +0.000 C 
ATOM      2  C   UNL     1       7.630   6.569  17.983  0.00  0.00    +0.000 C 
ATOM      3  C   UNL     1       7.326   5.573  19.106  0.00  0.00    +0.000 C 
ATOM      4  C   UNL     1       5.839   5.506  19.455  0.00  0.00    +0.000 C 
ATOM      5  N   UNL     1       5.078   5.266  18.217  0.00  0.00    +0.000 N 
ATOM      6  C   UNL     1       5.200   6.365  17.255  0.00  0.00    +0.000 C 
ENDROOT
BRANCH   5   7
ATOM      7  C   UNL     1       3.964   4.438  18.293  0.00  0.00    +0.000 A 
ATOM      8  N   UNL     1       4.077   3.218  17.697  0.00  0.00    +0.000 NA
ATOM      9  C   UNL     1       2.996   2.405  17.664  0.00  0.00    +0.000 A 
ATOM     10  C   UNL     1       1.796   2.754  18.229  0.00  0.00    +0.000 A 
ATOM     11  N   UNL     1       1.623   3.938  18.841  0.00  0.00    +0.000 NA
ATOM     12  C   UNL     1       2.709   4.771  18.851  0.00  0.00    +0.000 A 
BRANCH  12  13
ATOM     13  C   UNL     1       2.389   6.038  19.437  0.00  0.00    +0.000 C 
ATOM     14  N   UNL     1       2.192   7.090  19.896  0.00  0.00    +0.000 NA
ENDBRANCH  12  13
ENDBRANCH   5   7
BRANCH   1  15
ATOM     15  C   UNL     1       6.995   5.339  15.865  0.00  0.00    +0.000 C 
ATOM     16  O   UNL     1       7.847   4.486  16.071  0.00  0.00    +0.000 OA
BRANCH  15  17
ATOM     17  O   UNL     1       6.212   5.410  14.751  0.00  0.00    +0.000 OA
BRANCH  17  19
ATOM     18  C   UNL     1       6.192   3.751  12.990  0.00  0.00    +0.000 C 
ATOM     19  C   UNL     1       5.622   4.169  14.331  0.00  0.00    +0.000 C 
ENDBRANCH  17  19
ENDBRANCH  15  17
ENDBRANCH   1  15
TORSDOF 5
ENDMDL
MODEL 3
REMARK VINA RESULT:      -6.5      1.886      3.279
REMARK  Name = 
REMARK  6 active torsions:
REMARK  status: ('A' for Active; 'I' for Inactive)
REMARK    1  A    between atoms: C_1  and  C_2
REMARK    2  A    between atoms: C_2  and  O_3
REMARK    3  A    between atoms: O_3  and  C_4
REMARK    4  A    between atoms: C_4  and  C_6
REMARK    5  A    between atoms: N_10  and  C_11
REMARK    6  A    between atoms: C_16  and  C_17
REMARK                            x       y       z     vdW  Elec       q    Type
REMARK                         _______ _______ _______ _____ _____    ______ ____
ROOT
ATOM      1  C   UNL     1       1.796   4.284  18.082  0.00  0.00    +0.000 C 
ATOM      2  C   UNL     1       1.553   2.769  18.165  0.00  0.00    +0.000 C 
ATOM      3  C   UNL     1       2.799   1.964  18.543  0.00  0.00    +0.000 C 
ATOM      4  C   UNL     1       4.049   2.412  17.785  0.00  0.00    +0.000 C 
ATOM      5  N   UNL     1       4.202   3.867  17.950  0.00  0.00    +0.000 N 
ATOM      6  C   UNL     1       3.097   4.623  17.354  0.00  0.00    +0.000 C 
ENDROOT
BRANCH   5   7
ATOM      7  C   UNL     1       5.490   4.372  18.079  0.00  0.00    +0.000 A 
ATOM      8  N   UNL     1       5.824   4.868  19.304  0.00  0.00    +0.000 NA
ATOM      9  C   UNL     1       7.034   5.451  19.463  0.00  0.00    +0.000 A 
ATOM     10  C   UNL     1       7.948   5.540  18.444  0.00  0.00    +0.000 A 
ATOM     11  N   UNL     1       7.684   5.061  17.217  0.00  0.00    +0.000 NA
ATOM     12  C   UNL     1       6.449   4.495  17.048  0.00  0.00    +0.000 A 
BRANCH  12  13
ATOM     13  C   UNL     1       6.233   4.108  15.686  0.00  0.00    +0.000 C 
ATOM     14  N   UNL     1       5.993   3.810  14.587  0.00  0.00    +0.000 NA
ENDBRANCH  12  13
ENDBRANCH   5   7
BRANCH   1  15
ATOM     15  C   UNL     1       1.790   4.935  19.452  0.00  0.00    +0.000 C 
ATOM     16  O   UNL     1       2.293   6.015  19.725  0.00  0.00    +0.000 OA
BRANCH  15  17
ATOM     17  O   UNL     1       1.144   4.125  20.340  0.00  0.00    +0.000 OA
BRANCH  17  19
ATOM     18  C   UNL     1       1.591   2.363  21.936  0.00  0.00    +0.000 C 
ATOM     19  C   UNL     1       1.886   3.791  21.524  0.00  0.00    +0.000 C 
ENDBRANCH  17  19
ENDBRANCH  15  17
ENDBRANCH   1  15
TORSDOF 5
ENDMDL
MODEL 4
REMARK VINA RESULT:      -6.5      1.830      3.229
REMARK  Name = 
REMARK  6 active torsions:
REMARK  status: ('A' for Active; 'I' for Inactive)
REMARK    1  A    between atoms: C_1  and  C_2
REMARK    2  A    between atoms: C_2  and  O_3
REMARK    3  A    between atoms: O_3  and  C_4
REMARK    4  A    between atoms: C_4  and  C_6
REMARK    5  A    between atoms: N_10  and  C_11
REMARK    6  A    between atoms: C_16  and  C_17
REMARK                            x       y       z     vdW  Elec       q    Type
REMARK                         _______ _______ _______ _____ _____    ______ ____
ROOT
ATOM      1  C   UNL     1       1.839   4.288  18.756  0.00  0.00    +0.000 C 
ATOM      2  C   UNL     1       1.792   2.861  19.324  0.00  0.00    +0.000 C 
ATOM      3  C   UNL     1       3.106   2.090  19.166  0.00  0.00    +0.000 C 
ATOM      4  C   UNL     1       3.725   2.249  17.776  0.00  0.00    +0.000 C 
ATOM      5  N   UNL     1       3.831   3.687  17.472  0.00  0.00    +0.000 N 
ATOM      6  C   UNL     1       2.525   4.346  17.391  0.00  0.00    +0.000 C 
ENDROOT
BRANCH   5   7
ATOM      7  C   UNL     1       4.949   4.118  16.768  0.00  0.00    +0.000 A 
ATOM      8  N   UNL     1       4.962   3.846  15.432  0.00  0.00    +0.000 NA
ATOM      9  C   UNL     1       6.062   4.164  14.712  0.00  0.00    +0.000 A 
ATOM     10  C   UNL     1       7.157   4.774  15.272  0.00  0.00    +0.000 A 
ATOM     11  N   UNL     1       7.202   5.077  16.580  0.00  0.00    +0.000 NA
ATOM     12  C   UNL     1       6.099   4.731  17.314  0.00  0.00    +0.000 A 
BRANCH  12  13
ATOM     13  C   UNL     1       6.290   5.008  18.706  0.00  0.00    +0.000 C 
ATOM     14  N   UNL     1       6.502   5.197  19.835  0.00  0.00    +0.000 NA
ENDBRANCH  12  13
ENDBRANCH   5   7
BRANCH   1  15
ATOM     15  C   UNL     1       2.512   5.256  19.710  0.00  0.00    +0.000 C 
ATOM     16  O   UNL     1       2.613   5.103  20.919  0.00  0.00    +0.000 OA
BRANCH  15  17
ATOM     17  O   UNL     1       2.981   6.332  19.015  0.00  0.00    +0.000 OA
BRANCH  17  19
ATOM     18  C   UNL     1       2.059   8.301  17.956  0.00  0.00    +0.000 C 
ATOM     19  C   UNL     1       2.299   7.572  19.263  0.00  0.00    +0.000 C 
ENDBRANCH  17  19
ENDBRANCH  15  17
ENDBRANCH   1  15
TORSDOF 5
ENDMDL
MODEL 5
REMARK VINA RESULT:      -6.5      0.983      1.255
REMARK  Name = 
REMARK  6 active torsions:
REMARK  status: ('A' for Active; 'I' for Inactive)
REMARK    1  A    between atoms: C_1  and  C_2
REMARK    2  A    between atoms: C_2  and  O_3
REMARK    3  A    between atoms: O_3  and  C_4
REMARK    4  A    between atoms: C_4  and  C_6
REMARK    5  A    between atoms: N_10  and  C_11
REMARK    6  A    between atoms: C_16  and  C_17
REMARK                            x       y       z     vdW  Elec       q    Type
REMARK                         _______ _______ _______ _____ _____    ______ ____
ROOT
ATOM      1  C   UNL     1       2.986   5.450  19.586  0.00  0.00    +0.000 C 
ATOM      2  C   UNL     1       2.306   6.823  19.471  0.00  0.00    +0.000 C 
ATOM      3  C   UNL     1       2.555   7.525  18.132  0.00  0.00    +0.000 C 
ATOM      4  C   UNL     1       4.015   7.450  17.684  0.00  0.00    +0.000 C 
ATOM      5  N   UNL     1       4.442   6.040  17.711  0.00  0.00    +0.000 N 
ATOM      6  C   UNL     1       4.422   5.469  19.062  0.00  0.00    +0.000 C 
ENDROOT
BRANCH   5   7
ATOM      7  C   UNL     1       5.303   5.606  16.711  0.00  0.00    +0.000 A 
ATOM      8  N   UNL     1       4.812   4.661  15.861  0.00  0.00    +0.000 NA
ATOM      9  C   UNL     1       5.634   4.138  14.922  0.00  0.00    +0.000 A 
ATOM     10  C   UNL     1       6.938   4.541  14.779  0.00  0.00    +0.000 A 
ATOM     11  N   UNL     1       7.478   5.475  15.578  0.00  0.00    +0.000 NA
ATOM     12  C   UNL     1       6.654   5.985  16.546  0.00  0.00    +0.000 A 
BRANCH  12  13
ATOM     13  C   UNL     1       7.354   6.896  17.401  0.00  0.00    +0.000 C 
ATOM     14  N   UNL     1       7.974   7.637  18.051  0.00  0.00    +0.000 NA
ENDBRANCH  12  13
ENDBRANCH   5   7
BRANCH   1  15
ATOM     15  C   UNL     1       2.196   4.366  18.879  0.00  0.00    +0.000 C 
ATOM     16  O   UNL     1       1.622   4.492  17.807  0.00  0.00    +0.000 OA
BRANCH  15  17
ATOM     17  O   UNL     1       2.213   3.226  19.629  0.00  0.00    +0.000 OA
BRANCH  17  19
ATOM     18  C   UNL     1       3.565   1.633  18.410  0.00  0.00    +0.000 C 
ATOM     19  C   UNL     1       2.173   1.998  18.885  0.00  0.00    +0.000 C 
ENDBRANCH  17  19
ENDBRANCH  15  17
ENDBRANCH   1  15
TORSDOF 5
ENDMDL
MODEL 6
REMARK VINA RESULT:      -6.4      2.829      6.145
REMARK  Name = 
REMARK  6 active torsions:
REMARK  status: ('A' for Active; 'I' for Inactive)
REMARK    1  A    between atoms: C_1  and  C_2
REMARK    2  A    between atoms: C_2  and  O_3
REMARK    3  A    between atoms: O_3  and  C_4
REMARK    4  A    between atoms: C_4  and  C_6
REMARK    5  A    between atoms: N_10  and  C_11
REMARK    6  A    between atoms: C_16  and  C_17
REMARK                            x       y       z     vdW  Elec       q    Type
REMARK                         _______ _______ _______ _____ _____    ______ ____
ROOT
ATOM      1  C   UNL     1       7.316   5.413  17.337  0.00  0.00    +0.000 C 
ATOM      2  C   UNL     1       7.111   4.767  15.958  0.00  0.00    +0.000 C 
ATOM      3  C   UNL     1       5.644   4.478  15.625  0.00  0.00    +0.000 C 
ATOM      4  C   UNL     1       4.882   3.848  16.792  0.00  0.00    +0.000 C 
ATOM      5  N   UNL     1       5.072   4.691  17.985  0.00  0.00    +0.000 N 
ATOM      6  C   UNL     1       6.470   4.746  18.422  0.00  0.00    +0.000 C 
ENDROOT
BRANCH   5   7
ATOM      7  C   UNL     1       3.995   4.837  18.851  0.00  0.00    +0.000 A 
ATOM      8  N   UNL     1       3.323   6.021  18.784  0.00  0.00    +0.000 NA
ATOM      9  C   UNL     1       2.321   6.253  19.663  0.00  0.00    +0.000 A 
ATOM     10  C   UNL     1       1.940   5.331  20.605  0.00  0.00    +0.000 A 
ATOM     11  N   UNL     1       2.556   4.142  20.715  0.00  0.00    +0.000 NA
ATOM     12  C   UNL     1       3.587   3.917  19.844  0.00  0.00    +0.000 A 
BRANCH  12  13
ATOM     13  C   UNL     1       4.234   2.668  20.111  0.00  0.00    +0.000 C 
ATOM     14  N   UNL     1       4.819   1.680  20.306  0.00  0.00    +0.000 NA
ENDBRANCH  12  13
ENDBRANCH   5   7
BRANCH   1  15
ATOM     15  C   UNL     1       7.037   6.904  17.312  0.00  0.00    +0.000 C 
ATOM     16  O   UNL     1       6.120   7.442  16.707  0.00  0.00    +0.000 OA
BRANCH  15  17
ATOM     17  O   UNL     1       7.971   7.557  18.061  0.00  0.00    +0.000 OA
BRANCH  17  19
ATOM     18  C   UNL     1       8.930   9.619  18.886  0.00  0.00    +0.000 C 
ATOM     19  C   UNL     1       8.093   8.965  17.804  0.00  0.00    +0.000 C 
ENDBRANCH  17  19
ENDBRANCH  15  17
ENDBRANCH   1  15
TORSDOF 5
ENDMDL
MODEL 7
REMARK VINA RESULT:      -6.3      1.020      1.160
REMARK  Name = 
REMARK  6 active torsions:
REMARK  status: ('A' for Active; 'I' for Inactive)
REMARK    1  A    between atoms: C_1  and  C_2
REMARK    2  A    between atoms: C_2  and  O_3
REMARK    3  A    between atoms: O_3  and  C_4
REMARK    4  A    between atoms: C_4  and  C_6
REMARK    5  A    between atoms: N_10  and  C_11
REMARK    6  A    between atoms: C_16  and  C_17
REMARK                            x       y       z     vdW  Elec       q    Type
REMARK                         _______ _______ _______ _____ _____    ______ ____
ROOT
ATOM      1  C   UNL     1       4.247   4.513  19.974  0.00  0.00    +0.000 C 
ATOM      2  C   UNL     1       2.922   5.287  19.899  0.00  0.00    +0.000 C 
ATOM      3  C   UNL     1       2.535   5.713  18.479  0.00  0.00    +0.000 C 
ATOM      4  C   UNL     1       3.710   6.298  17.694  0.00  0.00    +0.000 C 
ATOM      5  N   UNL     1       4.832   5.345  17.750  0.00  0.00    +0.000 N 
ATOM      6  C   UNL     1       5.338   5.148  19.112  0.00  0.00    +0.000 C 
ENDROOT
BRANCH   5   7
ATOM      7  C   UNL     1       5.622   5.208  16.615  0.00  0.00    +0.000 A 
ATOM      8  N   UNL     1       5.247   4.238  15.734  0.00  0.00    +0.000 NA
ATOM      9  C   UNL     1       6.028   4.001  14.654  0.00  0.00    +0.000 A 
ATOM     10  C   UNL     1       7.171   4.717  14.401  0.00  0.00    +0.000 A 
ATOM     11  N   UNL     1       7.587   5.693  15.225  0.00  0.00    +0.000 NA
ATOM     12  C   UNL     1       6.812   5.915  16.332  0.00  0.00    +0.000 A 
BRANCH  12  13
ATOM     13  C   UNL     1       7.396   6.902  17.189  0.00  0.00    +0.000 C 
ATOM     14  N   UNL     1       7.813   7.704  17.923  0.00  0.00    +0.000 NA
ENDBRANCH  12  13
ENDBRANCH   5   7
BRANCH   1  15
ATOM     15  C   UNL     1       4.073   3.055  19.592  0.00  0.00    +0.000 C 
ATOM     16  O   UNL     1       4.743   2.126  20.021  0.00  0.00    +0.000 OA
BRANCH  15  17
ATOM     17  O   UNL     1       3.060   2.937  18.687  0.00  0.00    +0.000 OA
BRANCH  17  19
ATOM     18  C   UNL     1       0.703   2.431  18.891  0.00  0.00    +0.000 C 
ATOM     19  C   UNL     1       2.116   1.886  18.951  0.00  0.00    +0.000 C 
ENDBRANCH  17  19
ENDBRANCH  15  17
ENDBRANCH   1  15
TORSDOF 5
ENDMDL
MODEL 8
REMARK VINA RESULT:      -6.3      1.953      3.643
REMARK  Name = 
REMARK  6 active torsions:
REMARK  status: ('A' for Active; 'I' for Inactive)
REMARK    1  A    between atoms: C_1  and  C_2
REMARK    2  A    between atoms: C_2  and  O_3
REMARK    3  A    between atoms: O_3  and  C_4
REMARK    4  A    between atoms: C_4  and  C_6
REMARK    5  A    between atoms: N_10  and  C_11
REMARK    6  A    between atoms: C_16  and  C_17
REMARK                            x       y       z     vdW  Elec       q    Type
REMARK                         _______ _______ _______ _____ _____    ______ ____
ROOT
ATOM      1  C   UNL     1       1.610   4.140  18.468  0.00  0.00    +0.000 C 
ATOM      2  C   UNL     1       1.438   2.613  18.447  0.00  0.00    +0.000 C 
ATOM      3  C   UNL     1       2.747   1.841  18.640  0.00  0.00    +0.000 C 
ATOM      4  C   UNL     1       3.898   2.408  17.808  0.00  0.00    +0.000 C 
ATOM      5  N   UNL     1       4.007   3.851  18.079  0.00  0.00    +0.000 N 
ATOM      6  C   UNL     1       2.819   4.598  17.653  0.00  0.00    +0.000 C 
ENDROOT
BRANCH   5   7
ATOM      7  C   UNL     1       5.280   4.406  18.128  0.00  0.00    +0.000 A 
ATOM      8  N   UNL     1       5.720   4.798  19.357  0.00  0.00    +0.000 NA
ATOM      9  C   UNL     1       6.915   5.424  19.453  0.00  0.00    +0.000 A 
ATOM     10  C   UNL     1       7.713   5.657  18.362  0.00  0.00    +0.000 A 
ATOM     11  N   UNL     1       7.342   5.286  17.125  0.00  0.00    +0.000 NA
ATOM     12  C   UNL     1       6.120   4.677  17.024  0.00  0.00    +0.000 A 
BRANCH  12  13
ATOM     13  C   UNL     1       5.779   4.412  15.659  0.00  0.00    +0.000 C 
ATOM     14  N   UNL     1       5.436   4.204  14.566  0.00  0.00    +0.000 NA
ENDBRANCH  12  13
ENDBRANCH   5   7
BRANCH   1  15
ATOM     15  C   UNL     1       1.710   4.679  19.883  0.00  0.00    +0.000 C 
ATOM     16  O   UNL     1       1.500   4.037  20.902  0.00  0.00    +0.000 OA
BRANCH  15  17
ATOM     17  O   UNL     1       2.062   5.996  19.846  0.00  0.00    +0.000 OA
BRANCH  17  19
ATOM     18  C   UNL     1       1.629   8.288  20.486  0.00  0.00    +0.000 C 
ATOM     19  C   UNL     1       1.450   6.827  20.845  0.00  0.00    +0.000 C 
ENDBRANCH  17  19
ENDBRANCH  15  17
ENDBRANCH   1  15
TORSDOF 5
ENDMDL
MODEL 9
REMARK VINA RESULT:      -6.3      1.152      1.163
REMARK  Name = 
REMARK  6 active torsions:
REMARK  status: ('A' for Active; 'I' for Inactive)
REMARK    1  A    between atoms: C_1  and  C_2
REMARK    2  A    between atoms: C_2  and  O_3
REMARK    3  A    between atoms: O_3  and  C_4
REMARK    4  A    between atoms: C_4  and  C_6
REMARK    5  A    between atoms: N_10  and  C_11
REMARK    6  A    between atoms: C_16  and  C_17
REMARK                            x       y       z     vdW  Elec       q    Type
REMARK                         _______ _______ _______ _____ _____    ______ ____
ROOT
ATOM      1  C   UNL     1       2.783   5.371  19.557  0.00  0.00    +0.000 C 
ATOM      2  C   UNL     1       2.221   6.797  19.460  0.00  0.00    +0.000 C 
ATOM      3  C   UNL     1       2.654   7.547  18.196  0.00  0.00    +0.000 C 
ATOM      4  C   UNL     1       4.143   7.379  17.886  0.00  0.00    +0.000 C 
ATOM      5  N   UNL     1       4.459   5.941  17.870  0.00  0.00    +0.000 N 
ATOM      6  C   UNL     1       4.262   5.303  19.175  0.00  0.00    +0.000 C 
ENDROOT
BRANCH   5   7
ATOM      7  C   UNL     1       5.382   5.492  16.932  0.00  0.00    +0.000 A 
ATOM      8  N   UNL     1       4.901   5.249  15.681  0.00  0.00    +0.000 NA
ATOM      9  C   UNL     1       5.735   4.729  14.751  0.00  0.00    +0.000 A 
ATOM     10  C   UNL     1       7.054   4.458  15.015  0.00  0.00    +0.000 A 
ATOM     11  N   UNL     1       7.591   4.685  16.225  0.00  0.00    +0.000 NA
ATOM     12  C   UNL     1       6.741   5.187  17.174  0.00  0.00    +0.000 A 
BRANCH  12  13
ATOM     13  C   UNL     1       7.385   5.298  18.448  0.00  0.00    +0.000 C 
ATOM     14  N   UNL     1       7.963   5.416  19.451  0.00  0.00    +0.000 NA
ENDBRANCH  12  13
ENDBRANCH   5   7
BRANCH   1  15
ATOM     15  C   UNL     1       1.989   4.391  18.714  0.00  0.00    +0.000 C 
ATOM     16  O   UNL     1       2.047   4.295  17.496  0.00  0.00    +0.000 OA
BRANCH  15  17
ATOM     17  O   UNL     1       1.191   3.635  19.521  0.00  0.00    +0.000 OA
BRANCH  17  19
ATOM     18  C   UNL     1       1.602   2.619  21.678  0.00  0.00    +0.000 C 
ATOM     19  C   UNL     1       1.844   2.540  20.184  0.00  0.00    +0.000 C 
ENDBRANCH  17  19
ENDBRANCH  15  17
ENDBRANCH   1  15
TORSDOF 5
ENDMDL
