MODEL 1
REMARK VINA RESULT:      -8.8      0.000      0.000
REMARK  Name = 
REMARK  8 active torsions:
REMARK  status: ('A' for Active; 'I' for Inactive)
REMARK    1  A    between atoms: C_1  and  C_2
REMARK    2  A    between atoms: N_4  and  C_5
REMARK    3  A    between atoms: C_8  and  C_9
REMARK    4  A    between atoms: C_10  and  C_11
REMARK    5  A    between atoms: C_11  and  C_13
REMARK    6  A    between atoms: C_14  and  C_15
REMARK    7  A    between atoms: C_18  and  O_19
REMARK    8  A    between atoms: O_19  and  C_20
REMARK                            x       y       z     vdW  Elec       q    Type
REMARK                         _______ _______ _______ _____ _____    ______ ____
ROOT
ATOM      1  C   UNL     1       1.433   8.792  20.074  0.00  0.00    +0.000 A 
ATOM      2  C   UNL     1       1.674   8.967  18.701  0.00  0.00    +0.000 A 
ATOM      3  C   UNL     1       2.211   7.944  17.893  0.00  0.00    +0.000 A 
ATOM      4  C   UNL     1       2.537   6.698  18.407  0.00  0.00    +0.000 A 
ATOM      5  C   UNL     1       2.279   6.465  19.769  0.00  0.00    +0.000 A 
ATOM      6  C   UNL     1       1.730   7.506  20.585  0.00  0.00    +0.000 A 
ENDROOT
BRANCH   1   8
ATOM      7  C   UNL     1       0.200  10.986  20.580  0.00  0.00    +0.000 C 
ATOM      8  C   UNL     1       0.891   9.885  20.962  0.00  0.00    +0.000 C 
BRANCH   7   9
ATOM      9  C   UNL     1      -0.276  12.095  21.501  0.00  0.00    +0.000 C 
ATOM     10  O   UNL     1       0.474  12.977  21.928  0.00  0.00    +0.000 OA
BRANCH   9  12
ATOM     11  C   UNL     1      -2.697  12.954  21.566  0.00  0.00    +0.000 C 
ATOM     12  C   UNL     1      -1.746  12.038  21.868  0.00  0.00    +0.000 C 
BRANCH  11  20
ATOM     13  C   UNL     1      -5.308  12.497  19.562  0.00  0.00    +0.000 C 
ATOM     14  C   UNL     1      -5.239  12.673  21.036  0.00  0.00    +0.000 A 
ATOM     15  N   UNL     1      -6.396  12.636  21.713  0.00  0.00    +0.000 NA
ATOM     16  N   UNL     1      -6.041  12.796  22.999  0.00  0.00    +0.000 N 
ATOM     17  C   UNL     1      -7.074  12.793  24.009  0.00  0.00    +0.000 C 
ATOM     18  C   UNL     1      -4.688  12.923  23.155  0.00  0.00    +0.000 A 
ATOM     19 CL   UNL     1      -4.047  13.049  24.730  0.00  0.00    +0.000 Cl
ATOM     20  C   UNL     1      -4.107  12.877  21.903  0.00  0.00    +0.000 A 
ENDBRANCH  11  20
ENDBRANCH   9  12
ENDBRANCH   7   9
ENDBRANCH   1   8
BRANCH   4  21
ATOM     21  O   UNL     1       2.857   5.700  17.490  0.00  0.00    +0.000 OA
BRANCH  21  22
ATOM     22  C   UNL     1       4.022   4.955  17.675  0.00  0.00    +0.000 A 
ATOM     23  N   UNL     1       3.758   3.696  18.054  0.00  0.00    +0.000 NA
ATOM     24  C   UNL     1       4.609   3.213  18.953  0.00  0.00    +0.000 A 
ATOM     25  N   UNL     1       5.577   3.915  19.553  0.00  0.00    +0.000 NA
ATOM     26  C   UNL     1       5.948   5.046  18.950  0.00  0.00    +0.000 A 
ATOM     27  C   UNL     1       7.092   5.696  19.378  0.00  0.00    +0.000 A 
ATOM     28  C   UNL     1       7.795   6.547  18.529  0.00  0.00    +0.000 A 
ATOM     29  C   UNL     1       7.333   6.738  17.231  0.00  0.00    +0.000 A 
ATOM     30  C   UNL     1       6.065   6.271  16.882  0.00  0.00    +0.000 A 
ATOM     31  C   UNL     1       5.301   5.505  17.811  0.00  0.00    +0.000 A 
ENDBRANCH  21  22
ENDBRANCH   4  21
TORSDOF 6
ENDMDL
MODEL 2
REMARK VINA RESULT:      -8.7      2.665      3.547
REMARK  Name = 
REMARK  8 active torsions:
REMARK  status: ('A' for Active; 'I' for Inactive)
REMARK    1  A    between atoms: C_1  and  C_2
REMARK    2  A    between atoms: N_4  and  C_5
REMARK    3  A    between atoms: C_8  and  C_9
REMARK    4  A    between atoms: C_10  and  C_11
REMARK    5  A    between atoms: C_11  and  C_13
REMARK    6  A    between atoms: C_14  and  C_15
REMARK    7  A    between atoms: C_18  and  O_19
REMARK    8  A    between atoms: O_19  and  C_20
REMARK                            x       y       z     vdW  Elec       q    Type
REMARK                         _______ _______ _______ _____ _____    ______ ____
ROOT
ATOM      1  C   UNL     1       1.835   7.832  19.589  0.00  0.00    +0.000 A 
ATOM      2  C   UNL     1       1.848   6.722  20.450  0.00  0.00    +0.000 A 
ATOM      3  C   UNL     1       2.480   5.509  20.107  0.00  0.00    +0.000 A 
ATOM      4  C   UNL     1       3.130   5.337  18.894  0.00  0.00    +0.000 A 
ATOM      5  C   UNL     1       3.174   6.435  18.016  0.00  0.00    +0.000 A 
ATOM      6  C   UNL     1       2.534   7.666  18.370  0.00  0.00    +0.000 A 
ENDROOT
BRANCH   1   8
ATOM      7  C   UNL     1       1.151  10.277  19.208  0.00  0.00    +0.000 C 
ATOM      8  C   UNL     1       1.135   9.127  19.923  0.00  0.00    +0.000 C 
BRANCH   7   9
ATOM      9  C   UNL     1       0.481  11.578  19.610  0.00  0.00    +0.000 C 
ATOM     10  O   UNL     1       0.956  12.341  20.455  0.00  0.00    +0.000 OA
BRANCH   9  12
ATOM     11  C   UNL     1      -1.829  10.998  18.643  0.00  0.00    +0.000 C 
ATOM     12  C   UNL     1      -0.827  11.873  18.901  0.00  0.00    +0.000 C 
BRANCH  11  20
ATOM     13  C   UNL     1      -2.763  10.349  15.521  0.00  0.00    +0.000 C 
ATOM     14  C   UNL     1      -3.495  11.012  16.632  0.00  0.00    +0.000 A 
ATOM     15  N   UNL     1      -4.747  11.424  16.383  0.00  0.00    +0.000 NA
ATOM     16  N   UNL     1      -5.166  11.955  17.543  0.00  0.00    +0.000 N 
ATOM     17  C   UNL     1      -6.506  12.490  17.617  0.00  0.00    +0.000 C 
ATOM     18  C   UNL     1      -4.215  11.882  18.524  0.00  0.00    +0.000 A 
ATOM     19 CL   UNL     1      -4.602  12.432  20.092  0.00  0.00    +0.000 Cl
ATOM     20  C   UNL     1      -3.087  11.298  17.984  0.00  0.00    +0.000 A 
ENDBRANCH  11  20
ENDBRANCH   9  12
ENDBRANCH   7   9
ENDBRANCH   1   8
BRANCH   4  21
ATOM     21  O   UNL     1       3.897   4.186  18.746  0.00  0.00    +0.000 OA
BRANCH  21  22
ATOM     22  C   UNL     1       5.242   4.306  18.393  0.00  0.00    +0.000 A 
ATOM     23  N   UNL     1       6.006   4.657  19.438  0.00  0.00    +0.000 NA
ATOM     24  C   UNL     1       6.979   5.509  19.134  0.00  0.00    +0.000 A 
ATOM     25  N   UNL     1       7.147   6.094  17.943  0.00  0.00    +0.000 NA
ATOM     26  C   UNL     1       6.539   5.512  16.908  0.00  0.00    +0.000 A 
ATOM     27  C   UNL     1       6.856   5.917  15.623  0.00  0.00    +0.000 A 
ATOM     28  C   UNL     1       6.667   5.070  14.535  0.00  0.00    +0.000 A 
ATOM     29  C   UNL     1       6.154   3.796  14.753  0.00  0.00    +0.000 A 
ATOM     30  C   UNL     1       5.622   3.480  16.004  0.00  0.00    +0.000 A 
ATOM     31  C   UNL     1       5.711   4.412  17.079  0.00  0.00    +0.000 A 
ENDBRANCH  21  22
ENDBRANCH   4  21
TORSDOF 6
ENDMDL
MODEL 3
REMARK VINA RESULT:      -8.6      2.622      3.480
REMARK  Name = 
REMARK  8 active torsions:
REMARK  status: ('A' for Active; 'I' for Inactive)
REMARK    1  A    between atoms: C_1  and  C_2
REMARK    2  A    between atoms: N_4  and  C_5
REMARK    3  A    between atoms: C_8  and  C_9
REMARK    4  A    between atoms: C_10  and  C_11
REMARK    5  A    between atoms: C_11  and  C_13
REMARK    6  A    between atoms: C_14  and  C_15
REMARK    7  A    between atoms: C_18  and  O_19
REMARK    8  A    between atoms: O_19  and  C_20
REMARK                            x       y       z     vdW  Elec       q    Type
REMARK                         _______ _______ _______ _____ _____    ______ ____
ROOT
ATOM      1  C   UNL     1       1.814   7.505  20.160  0.00  0.00    +0.000 A 
ATOM      2  C   UNL     1       2.610   7.555  19.003  0.00  0.00    +0.000 A 
ATOM      3  C   UNL     1       3.351   6.444  18.550  0.00  0.00    +0.000 A 
ATOM      4  C   UNL     1       3.339   5.230  19.221  0.00  0.00    +0.000 A 
ATOM      5  C   UNL     1       2.527   5.123  20.363  0.00  0.00    +0.000 A 
ATOM      6  C   UNL     1       1.773   6.253  20.818  0.00  0.00    +0.000 A 
ENDROOT
BRANCH   1   8
ATOM      7  C   UNL     1       0.643   9.782  19.982  0.00  0.00    +0.000 C 
ATOM      8  C   UNL     1       1.041   8.692  20.680  0.00  0.00    +0.000 C 
BRANCH   7   9
ATOM      9  C   UNL     1      -0.082  10.985  20.558  0.00  0.00    +0.000 C 
ATOM     10  O   UNL     1       0.284  11.556  21.589  0.00  0.00    +0.000 OA
BRANCH   9  12
ATOM     11  C   UNL     1      -1.880  10.797  18.732  0.00  0.00    +0.000 C 
ATOM     12  C   UNL     1      -1.300  11.437  19.776  0.00  0.00    +0.000 C 
BRANCH  11  20
ATOM     13  C   UNL     1      -2.654  10.339  15.533  0.00  0.00    +0.000 C 
ATOM     14  C   UNL     1      -3.400  11.025  16.621  0.00  0.00    +0.000 A 
ATOM     15  N   UNL     1      -4.594  11.552  16.309  0.00  0.00    +0.000 NA
ATOM     16  N   UNL     1      -5.043  12.078  17.460  0.00  0.00    +0.000 N 
ATOM     17  C   UNL     1      -6.335  12.724  17.470  0.00  0.00    +0.000 C 
ATOM     18  C   UNL     1      -4.170  11.889  18.496  0.00  0.00    +0.000 A 
ATOM     19 CL   UNL     1      -4.613  12.417  20.056  0.00  0.00    +0.000 Cl
ATOM     20  C   UNL     1      -3.061  11.228  18.006  0.00  0.00    +0.000 A 
ENDBRANCH  11  20
ENDBRANCH   9  12
ENDBRANCH   7   9
ENDBRANCH   1   8
BRANCH   4  21
ATOM     21  O   UNL     1       3.929   4.146  18.576  0.00  0.00    +0.000 OA
BRANCH  21  22
ATOM     22  C   UNL     1       5.277   4.217  18.221  0.00  0.00    +0.000 A 
ATOM     23  N   UNL     1       6.057   4.518  19.269  0.00  0.00    +0.000 NA
ATOM     24  C   UNL     1       7.064   5.336  18.977  0.00  0.00    +0.000 A 
ATOM     25  N   UNL     1       7.252   5.934  17.796  0.00  0.00    +0.000 NA
ATOM     26  C   UNL     1       6.618   5.396  16.753  0.00  0.00    +0.000 A 
ATOM     27  C   UNL     1       6.947   5.811  15.474  0.00  0.00    +0.000 A 
ATOM     28  C   UNL     1       6.720   4.991  14.372  0.00  0.00    +0.000 A 
ATOM     29  C   UNL     1       6.156   3.735  14.569  0.00  0.00    +0.000 A 
ATOM     30  C   UNL     1       5.615   3.419  15.817  0.00  0.00    +0.000 A 
ATOM     31  C   UNL     1       5.745   4.328  16.907  0.00  0.00    +0.000 A 
ENDBRANCH  21  22
ENDBRANCH   4  21
TORSDOF 6
ENDMDL
MODEL 4
REMARK VINA RESULT:      -8.6      4.341     11.520
REMARK  Name = 
REMARK  8 active torsions:
REMARK  status: ('A' for Active; 'I' for Inactive)
REMARK    1  A    between atoms: C_1  and  C_2
REMARK    2  A    between atoms: N_4  and  C_5
REMARK    3  A    between atoms: C_8  and  C_9
REMARK    4  A    between atoms: C_10  and  C_11
REMARK    5  A    between atoms: C_11  and  C_13
REMARK    6  A    between atoms: C_14  and  C_15
REMARK    7  A    between atoms: C_18  and  O_19
REMARK    8  A    between atoms: O_19  and  C_20
REMARK                            x       y       z     vdW  Elec       q    Type
REMARK                         _______ _______ _______ _____ _____    ______ ____
ROOT
ATOM      1  C   UNL     1       2.270   6.747  19.404  0.00  0.00    +0.000 A 
ATOM      2  C   UNL     1       1.653   6.786  20.666  0.00  0.00    +0.000 A 
ATOM      3  C   UNL     1       0.988   7.933  21.145  0.00  0.00    +0.000 A 
ATOM      4  C   UNL     1       0.904   9.099  20.397  0.00  0.00    +0.000 A 
ATOM      5  C   UNL     1       1.475   9.094  19.113  0.00  0.00    +0.000 A 
ATOM      6  C   UNL     1       2.146   7.924  18.629  0.00  0.00    +0.000 A 
ENDROOT
BRANCH   1   8
ATOM      7  C   UNL     1       2.486   4.366  18.470  0.00  0.00    +0.000 C 
ATOM      8  C   UNL     1       3.015   5.541  18.888  0.00  0.00    +0.000 C 
BRANCH   7   9
ATOM      9  C   UNL     1       3.276   3.152  18.014  0.00  0.00    +0.000 C 
ATOM     10  O   UNL     1       2.984   2.000  18.349  0.00  0.00    +0.000 OA
BRANCH   9  12
ATOM     11  C   UNL     1       4.524   4.394  16.142  0.00  0.00    +0.000 C 
ATOM     12  C   UNL     1       4.461   3.457  17.118  0.00  0.00    +0.000 C 
BRANCH  11  20
ATOM     13  C   UNL     1       7.382   5.874  16.965  0.00  0.00    +0.000 C 
ATOM     14  C   UNL     1       6.915   5.327  15.663  0.00  0.00    +0.000 A 
ATOM     15  N   UNL     1       7.758   5.414  14.623  0.00  0.00    +0.000 NA
ATOM     16  N   UNL     1       7.099   4.837  13.605  0.00  0.00    +0.000 N 
ATOM     17  C   UNL     1       7.748   4.755  12.317  0.00  0.00    +0.000 C 
ATOM     18  C   UNL     1       5.864   4.377  13.975  0.00  0.00    +0.000 A 
ATOM     19 CL   UNL     1       4.919   3.538  12.831  0.00  0.00    +0.000 Cl
ATOM     20  C   UNL     1       5.673   4.691  15.306  0.00  0.00    +0.000 A 
ENDBRANCH  11  20
ENDBRANCH   9  12
ENDBRANCH   7   9
ENDBRANCH   1   8
BRANCH   4  21
ATOM     21  O   UNL     1       0.050  10.091  20.869  0.00  0.00    +0.000 OA
BRANCH  21  22
ATOM     22  C   UNL     1      -0.397  11.078  19.989  0.00  0.00    +0.000 A 
ATOM     23  N   UNL     1       0.140  12.276  20.264  0.00  0.00    +0.000 NA
ATOM     24  C   UNL     1      -0.700  13.294  20.106  0.00  0.00    +0.000 A 
ATOM     25  N   UNL     1      -2.004  13.181  19.828  0.00  0.00    +0.000 NA
ATOM     26  C   UNL     1      -2.400  12.015  19.315  0.00  0.00    +0.000 A 
ATOM     27  C   UNL     1      -3.675  11.907  18.787  0.00  0.00    +0.000 A 
ATOM     28  C   UNL     1      -3.976  10.944  17.828  0.00  0.00    +0.000 A 
ATOM     29  C   UNL     1      -2.973  10.082  17.398  0.00  0.00    +0.000 A 
ATOM     30  C   UNL     1      -1.764  10.041  18.096  0.00  0.00    +0.000 A 
ATOM     31  C   UNL     1      -1.519  10.954  19.162  0.00  0.00    +0.000 A 
ENDBRANCH  21  22
ENDBRANCH   4  21
TORSDOF 6
ENDMDL
MODEL 5
REMARK VINA RESULT:      -8.6      2.612      3.384
REMARK  Name = 
REMARK  8 active torsions:
REMARK  status: ('A' for Active; 'I' for Inactive)
REMARK    1  A    between atoms: C_1  and  C_2
REMARK    2  A    between atoms: N_4  and  C_5
REMARK    3  A    between atoms: C_8  and  C_9
REMARK    4  A    between atoms: C_10  and  C_11
REMARK    5  A    between atoms: C_11  and  C_13
REMARK    6  A    between atoms: C_14  and  C_15
REMARK    7  A    between atoms: C_18  and  O_19
REMARK    8  A    between atoms: O_19  and  C_20
REMARK                            x       y       z     vdW  Elec       q    Type
REMARK                         _______ _______ _______ _____ _____    ______ ____
ROOT
ATOM      1  C   UNL     1       1.781   8.544  18.828  0.00  0.00    +0.000 A 
ATOM      2  C   UNL     1       2.540   8.041  17.758  0.00  0.00    +0.000 A 
ATOM      3  C   UNL     1       3.275   6.841  17.853  0.00  0.00    +0.000 A 
ATOM      4  C   UNL     1       3.294   6.082  19.015  0.00  0.00    +0.000 A 
ATOM      5  C   UNL     1       2.519   6.529  20.100  0.00  0.00    +0.000 A 
ATOM      6  C   UNL     1       1.772   7.746  19.997  0.00  0.00    +0.000 A 
ENDROOT
BRANCH   1   8
ATOM      7  C   UNL     1       1.486  11.087  19.020  0.00  0.00    +0.000 C 
ATOM      8  C   UNL     1       1.017   9.843  18.758  0.00  0.00    +0.000 C 
BRANCH   7   9
ATOM      9  C   UNL     1       0.667  12.365  18.996  0.00  0.00    +0.000 C 
ATOM     10  O   UNL     1       1.071  13.427  19.476  0.00  0.00    +0.000 OA
BRANCH   9  12
ATOM     11  C   UNL     1      -1.808  11.681  18.877  0.00  0.00    +0.000 C 
ATOM     12  C   UNL     1      -0.696  12.242  18.342  0.00  0.00    +0.000 C 
BRANCH  11  20
ATOM     13  C   UNL     1      -2.615  10.475  15.888  0.00  0.00    +0.000 C 
ATOM     14  C   UNL     1      -3.465  11.062  16.956  0.00  0.00    +0.000 A 
ATOM     15  N   UNL     1      -4.785  11.127  16.724  0.00  0.00    +0.000 NA
ATOM     16  N   UNL     1      -5.299  11.669  17.840  0.00  0.00    +0.000 N 
ATOM     17  C   UNL     1      -6.728  11.868  17.921  0.00  0.00    +0.000 C 
ATOM     18  C   UNL     1      -4.340  11.941  18.778  0.00  0.00    +0.000 A 
ATOM     19 CL   UNL     1      -4.819  12.555  20.295  0.00  0.00    +0.000 Cl
ATOM     20  C   UNL     1      -3.113  11.591  18.249  0.00  0.00    +0.000 A 
ENDBRANCH  11  20
ENDBRANCH   9  12
ENDBRANCH   7   9
ENDBRANCH   1   8
BRANCH   4  21
ATOM     21  O   UNL     1       3.871   4.818  18.934  0.00  0.00    +0.000 OA
BRANCH  21  22
ATOM     22  C   UNL     1       5.215   4.706  18.575  0.00  0.00    +0.000 A 
ATOM     23  N   UNL     1       6.033   5.026  19.588  0.00  0.00    +0.000 NA
ATOM     24  C   UNL     1       7.120   5.695  19.216  0.00  0.00    +0.000 A 
ATOM     25  N   UNL     1       7.360   6.146  17.979  0.00  0.00    +0.000 NA
ATOM     26  C   UNL     1       6.661   5.576  16.996  0.00  0.00    +0.000 A 
ATOM     27  C   UNL     1       7.022   5.820  15.682  0.00  0.00    +0.000 A 
ATOM     28  C   UNL     1       6.697   4.921  14.669  0.00  0.00    +0.000 A 
ATOM     29  C   UNL     1       6.003   3.761  14.994  0.00  0.00    +0.000 A 
ATOM     30  C   UNL     1       5.442   3.634  16.266  0.00  0.00    +0.000 A 
ATOM     31  C   UNL     1       5.680   4.630  17.258  0.00  0.00    +0.000 A 
ENDBRANCH  21  22
ENDBRANCH   4  21
TORSDOF 6
ENDMDL
MODEL 6
REMARK VINA RESULT:      -8.5      7.139     10.899
REMARK  Name = 
REMARK  8 active torsions:
REMARK  status: ('A' for Active; 'I' for Inactive)
REMARK    1  A    between atoms: C_1  and  C_2
REMARK    2  A    between atoms: N_4  and  C_5
REMARK    3  A    between atoms: C_8  and  C_9
REMARK    4  A    between atoms: C_10  and  C_11
REMARK    5  A    between atoms: C_11  and  C_13
REMARK    6  A    between atoms: C_14  and  C_15
REMARK    7  A    between atoms: C_18  and  O_19
REMARK    8  A    between atoms: O_19  and  C_20
REMARK                            x       y       z     vdW  Elec       q    Type
REMARK                         _______ _______ _______ _____ _____    ______ ____
ROOT
ATOM      1  C   UNL     1       8.601   9.892  18.278  0.00  0.00    +0.000 A 
ATOM      2  C   UNL     1       8.872  11.154  17.723  0.00  0.00    +0.000 A 
ATOM      3  C   UNL     1       9.505  12.180  18.454  0.00  0.00    +0.000 A 
ATOM      4  C   UNL     1       9.900  12.005  19.773  0.00  0.00    +0.000 A 
ATOM      5  C   UNL     1       9.681  10.745  20.358  0.00  0.00    +0.000 A 
ATOM      6  C   UNL     1       9.041   9.706  19.610  0.00  0.00    +0.000 A 
ENDROOT
BRANCH   1   8
ATOM      7  C   UNL     1       7.681   7.520  17.934  0.00  0.00    +0.000 C 
ATOM      8  C   UNL     1       7.893   8.794  17.523  0.00  0.00    +0.000 C 
BRANCH   7   9
ATOM      9  C   UNL     1       7.017   6.427  17.118  0.00  0.00    +0.000 C 
ATOM     10  O   UNL     1       7.527   5.946  16.102  0.00  0.00    +0.000 OA
BRANCH   9  12
ATOM     11  C   UNL     1       5.382   5.533  18.889  0.00  0.00    +0.000 C 
ATOM     12  C   UNL     1       5.668   5.967  17.638  0.00  0.00    +0.000 C 
BRANCH  11  20
ATOM     13  C   UNL     1       2.570   7.288  19.109  0.00  0.00    +0.000 C 
ATOM     14  C   UNL     1       2.860   5.876  19.471  0.00  0.00    +0.000 A 
ATOM     15  N   UNL     1       1.846   5.147  19.961  0.00  0.00    +0.000 NA
ATOM     16  N   UNL     1       2.375   3.932  20.176  0.00  0.00    +0.000 N 
ATOM     17  C   UNL     1       1.526   2.889  20.703  0.00  0.00    +0.000 C 
ATOM     18  C   UNL     1       3.696   3.869  19.826  0.00  0.00    +0.000 A 
ATOM     19 CL   UNL     1       4.513   2.377  19.951  0.00  0.00    +0.000 Cl
ATOM     20  C   UNL     1       4.081   5.118  19.381  0.00  0.00    +0.000 A 
ENDBRANCH  11  20
ENDBRANCH   9  12
ENDBRANCH   7   9
ENDBRANCH   1   8
BRANCH   4  21
ATOM     21  O   UNL     1      10.701  12.998  20.329  0.00  0.00    +0.000 OA
BRANCH  21  22
ATOM     22  C   UNL     1      10.282  14.327  20.261  0.00  0.00    +0.000 A 
ATOM     23  N   UNL     1       9.175  14.543  20.986  0.00  0.00    +0.000 NA
ATOM     24  C   UNL     1       8.315  15.385  20.423  0.00  0.00    +0.000 A 
ATOM     25  N   UNL     1       8.432  15.897  19.193  0.00  0.00    +0.000 NA
ATOM     26  C   UNL     1       9.650  15.860  18.651  0.00  0.00    +0.000 A 
ATOM     27  C   UNL     1       9.897  16.576  17.492  0.00  0.00    +0.000 A 
ATOM     28  C   UNL     1      11.185  16.986  17.161  0.00  0.00    +0.000 A 
ATOM     29  C   UNL     1      12.235  16.669  18.016  0.00  0.00    +0.000 A 
ATOM     30  C   UNL     1      12.021  15.756  19.050  0.00  0.00    +0.000 A 
ATOM     31  C   UNL     1      10.713  15.246  19.298  0.00  0.00    +0.000 A 
ENDBRANCH  21  22
ENDBRANCH   4  21
TORSDOF 6
ENDMDL
MODEL 7
REMARK VINA RESULT:      -8.5      7.509      9.585
REMARK  Name = 
REMARK  8 active torsions:
REMARK  status: ('A' for Active; 'I' for Inactive)
REMARK    1  A    between atoms: C_1  and  C_2
REMARK    2  A    between atoms: N_4  and  C_5
REMARK    3  A    between atoms: C_8  and  C_9
REMARK    4  A    between atoms: C_10  and  C_11
REMARK    5  A    between atoms: C_11  and  C_13
REMARK    6  A    between atoms: C_14  and  C_15
REMARK    7  A    between atoms: C_18  and  O_19
REMARK    8  A    between atoms: O_19  and  C_20
REMARK                            x       y       z     vdW  Elec       q    Type
REMARK                         _______ _______ _______ _____ _____    ______ ____
ROOT
ATOM      1  C   UNL     1       7.840   7.794  17.898  0.00  0.00    +0.000 A 
ATOM      2  C   UNL     1       6.976   7.262  16.926  0.00  0.00    +0.000 A 
ATOM      3  C   UNL     1       6.503   5.935  16.981  0.00  0.00    +0.000 A 
ATOM      4  C   UNL     1       6.865   5.070  18.004  0.00  0.00    +0.000 A 
ATOM      5  C   UNL     1       7.699   5.570  19.019  0.00  0.00    +0.000 A 
ATOM      6  C   UNL     1       8.174   6.920  18.959  0.00  0.00    +0.000 A 
ENDROOT
BRANCH   1   8
ATOM      7  C   UNL     1       9.110   9.841  18.784  0.00  0.00    +0.000 C 
ATOM      8  C   UNL     1       8.385   9.200  17.837  0.00  0.00    +0.000 C 
BRANCH   7   9
ATOM      9  C   UNL     1       9.589  11.279  18.710  0.00  0.00    +0.000 C 
ATOM     10  O   UNL     1      10.269  11.710  17.774  0.00  0.00    +0.000 OA
BRANCH   9  12
ATOM     11  C   UNL     1       9.989  12.699  20.814  0.00  0.00    +0.000 C 
ATOM     12  C   UNL     1       9.176  12.155  19.877  0.00  0.00    +0.000 C 
BRANCH  11  20
ATOM     13  C   UNL     1       8.076  11.978  23.433  0.00  0.00    +0.000 C 
ATOM     14  C   UNL     1       8.760  13.242  23.053  0.00  0.00    +0.000 A 
ATOM     15  N   UNL     1       8.619  14.289  23.880  0.00  0.00    +0.000 NA
ATOM     16  N   UNL     1       9.343  15.268  23.313  0.00  0.00    +0.000 N 
ATOM     17  C   UNL     1       9.411  16.552  23.973  0.00  0.00    +0.000 C 
ATOM     18  C   UNL     1       9.948  14.865  22.154  0.00  0.00    +0.000 A 
ATOM     19 CL   UNL     1      10.979  15.953  21.340  0.00  0.00    +0.000 Cl
ATOM     20  C   UNL     1       9.584  13.555  21.914  0.00  0.00    +0.000 A 
ENDBRANCH  11  20
ENDBRANCH   9  12
ENDBRANCH   7   9
ENDBRANCH   1   8
BRANCH   4  21
ATOM     21  O   UNL     1       6.179   3.861  18.080  0.00  0.00    +0.000 OA
BRANCH  21  22
ATOM     22  C   UNL     1       5.046   3.772  18.891  0.00  0.00    +0.000 A 
ATOM     23  N   UNL     1       5.232   2.937  19.924  0.00  0.00    +0.000 NA
ATOM     24  C   UNL     1       4.165   2.205  20.226  0.00  0.00    +0.000 A 
ATOM     25  N   UNL     1       3.030   2.170  19.519  0.00  0.00    +0.000 NA
ATOM     26  C   UNL     1       2.818   3.193  18.691  0.00  0.00    +0.000 A 
ATOM     27  C   UNL     1       1.571   3.345  18.110  0.00  0.00    +0.000 A 
ATOM     28  C   UNL     1       1.131   4.590  17.667  0.00  0.00    +0.000 A 
ATOM     29  C   UNL     1       1.964   5.693  17.817  0.00  0.00    +0.000 A 
ATOM     30  C   UNL     1       3.297   5.496  18.183  0.00  0.00    +0.000 A 
ATOM     31  C   UNL     1       3.766   4.191  18.513  0.00  0.00    +0.000 A 
ENDBRANCH  21  22
ENDBRANCH   4  21
TORSDOF 6
ENDMDL
MODEL 8
REMARK VINA RESULT:      -8.5      1.999      2.780
REMARK  Name = 
REMARK  8 active torsions:
REMARK  status: ('A' for Active; 'I' for Inactive)
REMARK    1  A    between atoms: C_1  and  C_2
REMARK    2  A    between atoms: N_4  and  C_5
REMARK    3  A    between atoms: C_8  and  C_9
REMARK    4  A    between atoms: C_10  and  C_11
REMARK    5  A    between atoms: C_11  and  C_13
REMARK    6  A    between atoms: C_14  and  C_15
REMARK    7  A    between atoms: C_18  and  O_19
REMARK    8  A    between atoms: O_19  and  C_20
REMARK                            x       y       z     vdW  Elec       q    Type
REMARK                         _______ _______ _______ _____ _____    ______ ____
ROOT
ATOM      1  C   UNL     1       1.693   7.117  20.435  0.00  0.00    +0.000 A 
ATOM      2  C   UNL     1       1.495   5.733  20.570  0.00  0.00    +0.000 A 
ATOM      3  C   UNL     1       1.792   4.823  19.534  0.00  0.00    +0.000 A 
ATOM      4  C   UNL     1       2.299   5.243  18.313  0.00  0.00    +0.000 A 
ATOM      5  C   UNL     1       2.548   6.616  18.145  0.00  0.00    +0.000 A 
ATOM      6  C   UNL     1       2.248   7.535  19.202  0.00  0.00    +0.000 A 
ENDROOT
BRANCH   1   8
ATOM      7  C   UNL     1       0.180   8.776  21.680  0.00  0.00    +0.000 C 
ATOM      8  C   UNL     1       1.348   8.109  21.518  0.00  0.00    +0.000 C 
BRANCH   7   9
ATOM      9  C   UNL     1      -0.106   9.813  22.751  0.00  0.00    +0.000 C 
ATOM     10  O   UNL     1       0.468   9.821  23.843  0.00  0.00    +0.000 OA
BRANCH   9  12
ATOM     11  C   UNL     1      -1.860  11.627  23.237  0.00  0.00    +0.000 C 
ATOM     12  C   UNL     1      -1.160  10.840  22.385  0.00  0.00    +0.000 C 
BRANCH  11  20
ATOM     13  C   UNL     1      -4.719  12.388  24.750  0.00  0.00    +0.000 C 
ATOM     14  C   UNL     1      -4.088  12.958  23.531  0.00  0.00    +0.000 A 
ATOM     15  N   UNL     1      -4.738  13.955  22.912  0.00  0.00    +0.000 NA
ATOM     16  N   UNL     1      -3.946  14.285  21.878  0.00  0.00    +0.000 N 
ATOM     17  C   UNL     1      -4.362  15.355  21.001  0.00  0.00    +0.000 C 
ATOM     18  C   UNL     1      -2.806  13.529  21.831  0.00  0.00    +0.000 A 
ATOM     19 CL   UNL     1      -1.641  13.866  20.633  0.00  0.00    +0.000 Cl
ATOM     20  C   UNL     1      -2.851  12.623  22.872  0.00  0.00    +0.000 A 
ENDBRANCH  11  20
ENDBRANCH   9  12
ENDBRANCH   7   9
ENDBRANCH   1   8
BRANCH   4  21
ATOM     21  O   UNL     1       2.755   4.254  17.445  0.00  0.00    +0.000 OA
BRANCH  21  22
ATOM     22  C   UNL     1       4.080   3.825  17.539  0.00  0.00    +0.000 A 
ATOM     23  N   UNL     1       4.378   3.380  18.769  0.00  0.00    +0.000 NA
ATOM     24  C   UNL     1       5.599   3.704  19.180  0.00  0.00    +0.000 A 
ATOM     25  N   UNL     1       6.445   4.506  18.525  0.00  0.00    +0.000 NA
ATOM     26  C   UNL     1       6.202   4.687  17.226  0.00  0.00    +0.000 A 
ATOM     27  C   UNL     1       7.158   5.305  16.439  0.00  0.00    +0.000 A 
ATOM     28  C   UNL     1       7.207   5.088  15.064  0.00  0.00    +0.000 A 
ATOM     29  C   UNL     1       6.277   4.233  14.482  0.00  0.00    +0.000 A 
ATOM     30  C   UNL     1       5.182   3.802  15.234  0.00  0.00    +0.000 A 
ATOM     31  C   UNL     1       5.082   4.140  16.615  0.00  0.00    +0.000 A 
ENDBRANCH  21  22
ENDBRANCH   4  21
TORSDOF 6
ENDMDL
MODEL 9
REMARK VINA RESULT:      -8.4      7.147     10.894
REMARK  Name = 
REMARK  8 active torsions:
REMARK  status: ('A' for Active; 'I' for Inactive)
REMARK    1  A    between atoms: C_1  and  C_2
REMARK    2  A    between atoms: N_4  and  C_5
REMARK    3  A    between atoms: C_8  and  C_9
REMARK    4  A    between atoms: C_10  and  C_11
REMARK    5  A    between atoms: C_11  and  C_13
REMARK    6  A    between atoms: C_14  and  C_15
REMARK    7  A    between atoms: C_18  and  O_19
REMARK    8  A    between atoms: O_19  and  C_20
REMARK                            x       y       z     vdW  Elec       q    Type
REMARK                         _______ _______ _______ _____ _____    ______ ____
ROOT
ATOM      1  C   UNL     1       8.269   9.432  18.044  0.00  0.00    +0.000 A 
ATOM      2  C   UNL     1       8.151  10.692  17.433  0.00  0.00    +0.000 A 
ATOM      3  C   UNL     1       8.750  11.850  17.969  0.00  0.00    +0.000 A 
ATOM      4  C   UNL     1       9.495  11.816  19.139  0.00  0.00    +0.000 A 
ATOM      5  C   UNL     1       9.670  10.570  19.766  0.00  0.00    +0.000 A 
ATOM      6  C   UNL     1       9.063   9.396  19.215  0.00  0.00    +0.000 A 
ENDROOT
BRANCH   1   8
ATOM      7  C   UNL     1       7.803   6.912  17.912  0.00  0.00    +0.000 C 
ATOM      8  C   UNL     1       7.606   8.189  17.505  0.00  0.00    +0.000 C 
BRANCH   7   9
ATOM      9  C   UNL     1       7.161   5.680  17.301  0.00  0.00    +0.000 C 
ATOM     10  O   UNL     1       7.726   4.979  16.456  0.00  0.00    +0.000 OA
BRANCH   9  12
ATOM     11  C   UNL     1       5.356   5.288  19.088  0.00  0.00    +0.000 C 
ATOM     12  C   UNL     1       5.762   5.371  17.798  0.00  0.00    +0.000 C 
BRANCH  11  20
ATOM     13  C   UNL     1       2.697   7.281  19.082  0.00  0.00    +0.000 C 
ATOM     14  C   UNL     1       2.853   5.876  19.544  0.00  0.00    +0.000 A 
ATOM     15  N   UNL     1       1.763   5.268  20.037  0.00  0.00    +0.000 NA
ATOM     16  N   UNL     1       2.180   4.030  20.349  0.00  0.00    +0.000 N 
ATOM     17  C   UNL     1       1.226   3.097  20.905  0.00  0.00    +0.000 C 
ATOM     18  C   UNL     1       3.502   3.834  20.058  0.00  0.00    +0.000 A 
ATOM     19 CL   UNL     1       4.184   2.292  20.310  0.00  0.00    +0.000 Cl
ATOM     20  C   UNL     1       4.008   5.015  19.551  0.00  0.00    +0.000 A 
ENDBRANCH  11  20
ENDBRANCH   9  12
ENDBRANCH   7   9
ENDBRANCH   1   8
BRANCH   4  21
ATOM     21  O   UNL     1      10.215  12.963  19.463  0.00  0.00    +0.000 OA
BRANCH  21  22
ATOM     22  C   UNL     1      10.485  13.900  18.465  0.00  0.00    +0.000 A 
ATOM     23  N   UNL     1      11.591  13.591  17.772  0.00  0.00    +0.000 NA
ATOM     24  C   UNL     1      12.332  14.643  17.440  0.00  0.00    +0.000 A 
ATOM     25  N   UNL     1      12.112  15.899  17.843  0.00  0.00    +0.000 NA
ATOM     26  C   UNL     1      10.884  16.170  18.288  0.00  0.00    +0.000 A 
ATOM     27  C   UNL     1      10.517  17.488  18.497  0.00  0.00    +0.000 A 
ATOM     28  C   UNL     1       9.179  17.874  18.469  0.00  0.00    +0.000 A 
ATOM     29  C   UNL     1       8.204  16.913  18.224  0.00  0.00    +0.000 A 
ATOM     30  C   UNL     1       8.556  15.562  18.248  0.00  0.00    +0.000 A 
ATOM     31  C   UNL     1       9.920  15.178  18.405  0.00  0.00    +0.000 A 
ENDBRANCH  21  22
ENDBRANCH   4  21
TORSDOF 6
ENDMDL
