MODEL 1
REMARK VINA RESULT:      -7.3      0.000      0.000
REMARK  Name = 
REMARK  10 active torsions:
REMARK  status: ('A' for Active; 'I' for Inactive)
REMARK    1  A    between atoms: C_1  and  O_2
REMARK    2  A    between atoms: O_2  and  C_3
REMARK    3  A    between atoms: C_9  and  C_10
REMARK    4  A    between atoms: C_10  and  C_11
REMARK    5  A    between atoms: N_13  and  C_14
REMARK    6  A    between atoms: C_14  and  C_15
REMARK    7  A    between atoms: C_18  and  C_19
REMARK    8  A    between atoms: N_20  and  C_21
REMARK    9  A    between atoms: C_21  and  C_22
REMARK   10  A    between atoms: C_22  and  N_23
REMARK                            x       y       z     vdW  Elec       q    Type
REMARK                         _______ _______ _______ _____ _____    ______ ____
ROOT
ATOM      1  C   UNL     1       2.664   8.212  17.651  0.00  0.00    +0.000 A 
ATOM      2  C   UNL     1       2.030   7.048  18.065  0.00  0.00    +0.000 A 
ATOM      3  C   UNL     1       2.751   5.867  18.226  0.00  0.00    +0.000 A 
ATOM      4  C   UNL     1       4.131   5.825  17.953  0.00  0.00    +0.000 A 
ATOM      5  C   UNL     1       4.778   6.979  17.490  0.00  0.00    +0.000 A 
ATOM      6  C   UNL     1       4.027   8.174  17.340  0.00  0.00    +0.000 A 
ATOM      7  C   UNL     1       6.157   6.654  17.297  0.00  0.00    +0.000 A 
ATOM      8  C   UNL     1       6.316   5.311  17.617  0.00  0.00    +0.000 A 
ATOM      9  C   UNL     1       7.560   4.483  17.586  0.00  0.00    +0.000 C 
ATOM     10  N   UNL     1       5.091   4.822  18.054  0.00  0.00    +0.000 N 
ENDROOT
BRANCH   1  12
ATOM     11  C   UNL     1       1.123   9.757  18.547  0.00  0.00    +0.000 C 
ATOM     12  O   UNL     1       2.028   9.414  17.498  0.00  0.00    +0.000 OA
ENDBRANCH   1  12
BRANCH   7  13
ATOM     13  C   UNL     1       7.236   7.621  16.900  0.00  0.00    +0.000 C 
BRANCH  13  14
ATOM     14  C   UNL     1       8.066   8.199  18.034  0.00  0.00    +0.000 C 
ATOM     15  O   UNL     1       8.533   7.465  18.907  0.00  0.00    +0.000 OA
ATOM     16  N   UNL     1       8.370   9.545  17.976  0.00  0.00    +0.000 N 
ATOM     17  H   UNL     1       7.788  10.142  17.401  0.00  0.00    +0.000 HD
BRANCH  16  18
ATOM     18  C   UNL     1       9.129  10.136  19.055  0.00  0.00    +0.000 C 
BRANCH  18  19
ATOM     19  C   UNL     1       9.935  11.304  18.588  0.00  0.00    +0.000 C 
ATOM     20  C   UNL     1       9.341  12.438  17.789  0.00  0.00    +0.000 C 
ATOM     21  C   UNL     1       9.684  12.646  19.236  0.00  0.00    +0.000 C 
ENDBRANCH  18  19
ENDBRANCH  16  18
ENDBRANCH  13  14
ENDBRANCH   7  13
BRANCH  10  22
ATOM     22  C   UNL     1       4.914   3.468  18.612  0.00  0.00    +0.000 C 
BRANCH  22  23
ATOM     23  C   UNL     1       3.536   2.855  18.358  0.00  0.00    +0.000 C 
BRANCH  23  24
ATOM     24  N   UNL     1       2.896   1.980  19.354  0.00  0.00    +0.000 NA
ATOM     25  C   UNL     1       1.439   1.821  19.207  0.00  0.00    +0.000 C 
ATOM     26  C   UNL     1       0.632   3.083  19.547  0.00  0.00    +0.000 C 
ATOM     27  O   UNL     1       0.937   3.574  20.859  0.00  0.00    +0.000 OA
ATOM     28  C   UNL     1       2.340   3.816  21.010  0.00  0.00    +0.000 C 
ATOM     29  C   UNL     1       3.157   2.543  20.710  0.00  0.00    +0.000 C 
ENDBRANCH  23  24
ENDBRANCH  22  23
ENDBRANCH  10  22
TORSDOF 8
ENDMDL
MODEL 2
REMARK VINA RESULT:      -7.3      3.662      6.466
REMARK  Name = 
REMARK  10 active torsions:
REMARK  status: ('A' for Active; 'I' for Inactive)
REMARK    1  A    between atoms: C_1  and  O_2
REMARK    2  A    between atoms: O_2  and  C_3
REMARK    3  A    between atoms: C_9  and  C_10
REMARK    4  A    between atoms: C_10  and  C_11
REMARK    5  A    between atoms: N_13  and  C_14
REMARK    6  A    between atoms: C_14  and  C_15
REMARK    7  A    between atoms: C_18  and  C_19
REMARK    8  A    between atoms: N_20  and  C_21
REMARK    9  A    between atoms: C_21  and  C_22
REMARK   10  A    between atoms: C_22  and  N_23
REMARK                            x       y       z     vdW  Elec       q    Type
REMARK                         _______ _______ _______ _____ _____    ______ ____
ROOT
ATOM      1  C   UNL     1       4.944   5.992  16.237  0.00  0.00    +0.000 A 
ATOM      2  C   UNL     1       4.929   4.883  17.072  0.00  0.00    +0.000 A 
ATOM      3  C   UNL     1       4.184   4.892  18.249  0.00  0.00    +0.000 A 
ATOM      4  C   UNL     1       3.449   6.032  18.625  0.00  0.00    +0.000 A 
ATOM      5  C   UNL     1       3.490   7.177  17.817  0.00  0.00    +0.000 A 
ATOM      6  C   UNL     1       4.249   7.144  16.617  0.00  0.00    +0.000 A 
ATOM      7  C   UNL     1       2.664   8.170  18.430  0.00  0.00    +0.000 A 
ATOM      8  C   UNL     1       2.162   7.624  19.605  0.00  0.00    +0.000 A 
ATOM      9  C   UNL     1       1.247   8.246  20.610  0.00  0.00    +0.000 C 
ATOM     10  N   UNL     1       2.608   6.312  19.699  0.00  0.00    +0.000 N 
ENDROOT
BRANCH   1  12
ATOM     11  C   UNL     1       6.726   5.140  14.947  0.00  0.00    +0.000 C 
ATOM     12  O   UNL     1       5.628   6.046  15.053  0.00  0.00    +0.000 OA
ENDBRANCH   1  12
BRANCH   7  13
ATOM     13  C   UNL     1       2.343   9.519  17.853  0.00  0.00    +0.000 C 
BRANCH  13  14
ATOM     14  C   UNL     1       1.071  10.178  18.358  0.00  0.00    +0.000 C 
ATOM     15  O   UNL     1       1.122  11.076  19.200  0.00  0.00    +0.000 OA
ATOM     16  N   UNL     1      -0.116   9.815  17.752  0.00  0.00    +0.000 N 
ATOM     17  H   UNL     1      -0.149   8.932  17.257  0.00  0.00    +0.000 HD
BRANCH  16  18
ATOM     18  C   UNL     1      -1.350  10.396  18.230  0.00  0.00    +0.000 C 
BRANCH  18  19
ATOM     19  C   UNL     1      -2.431  10.322  17.201  0.00  0.00    +0.000 C 
ATOM     20  C   UNL     1      -3.866  10.012  17.547  0.00  0.00    +0.000 C 
ATOM     21  C   UNL     1      -3.474  11.415  17.186  0.00  0.00    +0.000 C 
ENDBRANCH  18  19
ENDBRANCH  16  18
ENDBRANCH  13  14
ENDBRANCH   7  13
BRANCH  10  22
ATOM     22  C   UNL     1       2.157   5.377  20.747  0.00  0.00    +0.000 C 
BRANCH  22  23
ATOM     23  C   UNL     1       1.166   4.317  20.265  0.00  0.00    +0.000 C 
BRANCH  23  24
ATOM     24  N   UNL     1       1.279   2.914  20.697  0.00  0.00    +0.000 NA
ATOM     25  C   UNL     1       2.581   2.537  21.272  0.00  0.00    +0.000 C 
ATOM     26  C   UNL     1       3.730   2.494  20.252  0.00  0.00    +0.000 C 
ATOM     27  O   UNL     1       3.424   1.641  19.141  0.00  0.00    +0.000 OA
ATOM     28  C   UNL     1       2.201   2.031  18.507  0.00  0.00    +0.000 C 
ATOM     29  C   UNL     1       1.034   2.038  19.515  0.00  0.00    +0.000 C 
ENDBRANCH  23  24
ENDBRANCH  22  23
ENDBRANCH  10  22
TORSDOF 8
ENDMDL
MODEL 3
REMARK VINA RESULT:      -7.1      4.704      8.419
REMARK  Name = 
REMARK  10 active torsions:
REMARK  status: ('A' for Active; 'I' for Inactive)
REMARK    1  A    between atoms: C_1  and  O_2
REMARK    2  A    between atoms: O_2  and  C_3
REMARK    3  A    between atoms: C_9  and  C_10
REMARK    4  A    between atoms: C_10  and  C_11
REMARK    5  A    between atoms: N_13  and  C_14
REMARK    6  A    between atoms: C_14  and  C_15
REMARK    7  A    between atoms: C_18  and  C_19
REMARK    8  A    between atoms: N_20  and  C_21
REMARK    9  A    between atoms: C_21  and  C_22
REMARK   10  A    between atoms: C_22  and  N_23
REMARK                            x       y       z     vdW  Elec       q    Type
REMARK                         _______ _______ _______ _____ _____    ______ ____
ROOT
ATOM      1  C   UNL     1      -1.104  10.921  22.845  0.00  0.00    +0.000 A 
ATOM      2  C   UNL     1      -0.361   9.870  23.365  0.00  0.00    +0.000 A 
ATOM      3  C   UNL     1       0.420   9.073  22.532  0.00  0.00    +0.000 A 
ATOM      4  C   UNL     1       0.455   9.304  21.144  0.00  0.00    +0.000 A 
ATOM      5  C   UNL     1      -0.326  10.330  20.596  0.00  0.00    +0.000 A 
ATOM      6  C   UNL     1      -1.109  11.136  21.464  0.00  0.00    +0.000 A 
ATOM      7  C   UNL     1      -0.100  10.339  19.184  0.00  0.00    +0.000 A 
ATOM      8  C   UNL     1       0.785   9.306  18.899  0.00  0.00    +0.000 A 
ATOM      9  C   UNL     1       1.344   8.892  17.576  0.00  0.00    +0.000 C 
ATOM     10  N   UNL     1       1.151   8.706  20.097  0.00  0.00    +0.000 N 
ENDROOT
BRANCH   1  12
ATOM     11  C   UNL     1      -1.827  13.136  23.218  0.00  0.00    +0.000 C 
ATOM     12  O   UNL     1      -1.871  11.762  23.604  0.00  0.00    +0.000 OA
ENDBRANCH   1  12
BRANCH   7  13
ATOM     13  C   UNL     1      -0.661  11.340  18.215  0.00  0.00    +0.000 C 
BRANCH  13  14
ATOM     14  C   UNL     1      -1.900  10.907  17.449  0.00  0.00    +0.000 C 
ATOM     15  O   UNL     1      -2.038   9.737  17.089  0.00  0.00    +0.000 OA
ATOM     16  N   UNL     1      -2.902  11.842  17.282  0.00  0.00    +0.000 N 
ATOM     17  H   UNL     1      -2.661  12.822  17.370  0.00  0.00    +0.000 HD
BRANCH  16  18
ATOM     18  C   UNL     1      -4.080  11.476  16.529  0.00  0.00    +0.000 C 
BRANCH  18  19
ATOM     19  C   UNL     1      -5.284  11.360  17.406  0.00  0.00    +0.000 C 
ATOM     20  C   UNL     1      -5.506  12.246  18.607  0.00  0.00    +0.000 C 
ATOM     21  C   UNL     1      -6.310  12.468  17.359  0.00  0.00    +0.000 C 
ENDBRANCH  18  19
ENDBRANCH  16  18
ENDBRANCH  13  14
ENDBRANCH   7  13
BRANCH  10  22
ATOM     22  C   UNL     1       2.190   7.662  20.194  0.00  0.00    +0.000 C 
BRANCH  22  23
ATOM     23  C   UNL     1       1.664   6.284  20.598  0.00  0.00    +0.000 C 
BRANCH  23  24
ATOM     24  N   UNL     1       2.557   5.115  20.660  0.00  0.00    +0.000 NA
ATOM     25  C   UNL     1       3.359   4.873  19.450  0.00  0.00    +0.000 C 
ATOM     26  C   UNL     1       2.542   4.396  18.240  0.00  0.00    +0.000 C 
ATOM     27  O   UNL     1       1.762   3.233  18.547  0.00  0.00    +0.000 OA
ATOM     28  C   UNL     1       0.909   3.462  19.674  0.00  0.00    +0.000 C 
ATOM     29  C   UNL     1       1.725   3.901  20.906  0.00  0.00    +0.000 C 
ENDBRANCH  23  24
ENDBRANCH  22  23
ENDBRANCH  10  22
TORSDOF 8
ENDMDL
MODEL 4
REMARK VINA RESULT:      -6.9      2.457      3.845
REMARK  Name = 
REMARK  10 active torsions:
REMARK  status: ('A' for Active; 'I' for Inactive)
REMARK    1  A    between atoms: C_1  and  O_2
REMARK    2  A    between atoms: O_2  and  C_3
REMARK    3  A    between atoms: C_9  and  C_10
REMARK    4  A    between atoms: C_10  and  C_11
REMARK    5  A    between atoms: N_13  and  C_14
REMARK    6  A    between atoms: C_14  and  C_15
REMARK    7  A    between atoms: C_18  and  C_19
REMARK    8  A    between atoms: N_20  and  C_21
REMARK    9  A    between atoms: C_21  and  C_22
REMARK   10  A    between atoms: C_22  and  N_23
REMARK                            x       y       z     vdW  Elec       q    Type
REMARK                         _______ _______ _______ _____ _____    ______ ____
ROOT
ATOM      1  C   UNL     1       6.961   4.848  13.935  0.00  0.00    +0.000 A 
ATOM      2  C   UNL     1       5.820   4.074  13.769  0.00  0.00    +0.000 A 
ATOM      3  C   UNL     1       5.027   3.736  14.864  0.00  0.00    +0.000 A 
ATOM      4  C   UNL     1       5.378   4.155  16.161  0.00  0.00    +0.000 A 
ATOM      5  C   UNL     1       6.551   4.897  16.352  0.00  0.00    +0.000 A 
ATOM      6  C   UNL     1       7.341   5.238  15.223  0.00  0.00    +0.000 A 
ATOM      7  C   UNL     1       6.659   5.184  17.749  0.00  0.00    +0.000 A 
ATOM      8  C   UNL     1       5.572   4.590  18.379  0.00  0.00    +0.000 A 
ATOM      9  C   UNL     1       5.216   4.593  19.831  0.00  0.00    +0.000 C 
ATOM     10  N   UNL     1       4.775   4.001  17.406  0.00  0.00    +0.000 N 
ENDROOT
BRANCH   1  12
ATOM     11  C   UNL     1       7.442   4.690  11.631  0.00  0.00    +0.000 C 
ATOM     12  O   UNL     1       7.771   5.242  12.905  0.00  0.00    +0.000 OA
ENDBRANCH   1  12
BRANCH   7  13
ATOM     13  C   UNL     1       7.715   6.040  18.387  0.00  0.00    +0.000 C 
BRANCH  13  14
ATOM     14  C   UNL     1       7.713   7.508  17.995  0.00  0.00    +0.000 C 
ATOM     15  O   UNL     1       6.887   7.940  17.189  0.00  0.00    +0.000 OA
ATOM     16  N   UNL     1       8.586   8.345  18.662  0.00  0.00    +0.000 N 
ATOM     17  H   UNL     1       9.387   7.930  19.121  0.00  0.00    +0.000 HD
BRANCH  16  18
ATOM     18  C   UNL     1       8.635   9.741  18.292  0.00  0.00    +0.000 C 
BRANCH  18  19
ATOM     19  C   UNL     1       9.267  10.574  19.359  0.00  0.00    +0.000 C 
ATOM     20  C   UNL     1      10.704  11.029  19.295  0.00  0.00    +0.000 C 
ATOM     21  C   UNL     1       9.600  12.012  19.034  0.00  0.00    +0.000 C 
ENDBRANCH  18  19
ENDBRANCH  16  18
ENDBRANCH  13  14
ENDBRANCH   7  13
BRANCH  10  22
ATOM     22  C   UNL     1       3.459   3.398  17.694  0.00  0.00    +0.000 C 
BRANCH  22  23
ATOM     23  C   UNL     1       2.349   4.412  17.977  0.00  0.00    +0.000 C 
BRANCH  23  24
ATOM     24  N   UNL     1       1.127   4.021  18.699  0.00  0.00    +0.000 NA
ATOM     25  C   UNL     1       1.044   4.488  20.093  0.00  0.00    +0.000 C 
ATOM     26  C   UNL     1       2.032   3.799  21.046  0.00  0.00    +0.000 C 
ATOM     27  O   UNL     1       1.905   2.371  21.004  0.00  0.00    +0.000 OA
ATOM     28  C   UNL     1       2.061   1.875  19.670  0.00  0.00    +0.000 C 
ATOM     29  C   UNL     1       1.046   2.532  18.714  0.00  0.00    +0.000 C 
ENDBRANCH  23  24
ENDBRANCH  22  23
ENDBRANCH  10  22
TORSDOF 8
ENDMDL
MODEL 5
REMARK VINA RESULT:      -6.9      5.643      9.518
REMARK  Name = 
REMARK  10 active torsions:
REMARK  status: ('A' for Active; 'I' for Inactive)
REMARK    1  A    between atoms: C_1  and  O_2
REMARK    2  A    between atoms: O_2  and  C_3
REMARK    3  A    between atoms: C_9  and  C_10
REMARK    4  A    between atoms: C_10  and  C_11
REMARK    5  A    between atoms: N_13  and  C_14
REMARK    6  A    between atoms: C_14  and  C_15
REMARK    7  A    between atoms: C_18  and  C_19
REMARK    8  A    between atoms: N_20  and  C_21
REMARK    9  A    between atoms: C_21  and  C_22
REMARK   10  A    between atoms: C_22  and  N_23
REMARK                            x       y       z     vdW  Elec       q    Type
REMARK                         _______ _______ _______ _____ _____    ______ ____
ROOT
ATOM      1  C   UNL     1      -2.888  10.159  16.853  0.00  0.00    +0.000 A 
ATOM      2  C   UNL     1      -3.673  11.037  17.590  0.00  0.00    +0.000 A 
ATOM      3  C   UNL     1      -3.117  11.789  18.622  0.00  0.00    +0.000 A 
ATOM      4  C   UNL     1      -1.756  11.658  18.953  0.00  0.00    +0.000 A 
ATOM      5  C   UNL     1      -0.960  10.743  18.251  0.00  0.00    +0.000 A 
ATOM      6  C   UNL     1      -1.544   9.992  17.197  0.00  0.00    +0.000 A 
ATOM      7  C   UNL     1       0.363  10.817  18.790  0.00  0.00    +0.000 A 
ATOM      8  C   UNL     1       0.339  11.749  19.820  0.00  0.00    +0.000 A 
ATOM      9  C   UNL     1       1.461  12.198  20.701  0.00  0.00    +0.000 C 
ATOM     10  N   UNL     1      -0.939  12.287  19.890  0.00  0.00    +0.000 N 
ENDROOT
BRANCH   1  12
ATOM     11  C   UNL     1      -3.477  10.108  14.569  0.00  0.00    +0.000 C 
ATOM     12  O   UNL     1      -3.357   9.410  15.808  0.00  0.00    +0.000 OA
ENDBRANCH   1  12
BRANCH   7  13
ATOM     13  C   UNL     1       1.561  10.077  18.269  0.00  0.00    +0.000 C 
BRANCH  13  14
ATOM     14  C   UNL     1       1.828   8.715  18.889  0.00  0.00    +0.000 C 
ATOM     15  O   UNL     1       1.367   8.429  19.995  0.00  0.00    +0.000 OA
ATOM     16  N   UNL     1       2.498   7.787  18.118  0.00  0.00    +0.000 N 
ATOM     17  H   UNL     1       3.055   8.123  17.342  0.00  0.00    +0.000 HD
BRANCH  16  18
ATOM     18  C   UNL     1       2.799   6.493  18.687  0.00  0.00    +0.000 C 
BRANCH  18  19
ATOM     19  C   UNL     1       1.972   5.411  18.072  0.00  0.00    +0.000 C 
ATOM     20  C   UNL     1       2.554   4.090  17.634  0.00  0.00    +0.000 C 
ATOM     21  C   UNL     1       1.722   4.160  18.882  0.00  0.00    +0.000 C 
ENDBRANCH  18  19
ENDBRANCH  16  18
ENDBRANCH  13  14
ENDBRANCH   7  13
BRANCH  10  22
ATOM     22  C   UNL     1      -1.296  13.412  20.775  0.00  0.00    +0.000 C 
BRANCH  22  23
ATOM     23  C   UNL     1      -2.092  13.009  22.018  0.00  0.00    +0.000 C 
BRANCH  23  24
ATOM     24  N   UNL     1      -2.987  13.964  22.693  0.00  0.00    +0.000 NA
ATOM     25  C   UNL     1      -3.269  13.669  24.107  0.00  0.00    +0.000 C 
ATOM     26  C   UNL     1      -4.148  12.428  24.327  0.00  0.00    +0.000 C 
ATOM     27  O   UNL     1      -5.377  12.508  23.594  0.00  0.00    +0.000 OA
ATOM     28  C   UNL     1      -5.136  12.715  22.197  0.00  0.00    +0.000 C 
ATOM     29  C   UNL     1      -4.288  13.982  21.964  0.00  0.00    +0.000 C 
ENDBRANCH  23  24
ENDBRANCH  22  23
ENDBRANCH  10  22
TORSDOF 8
ENDMDL
MODEL 6
REMARK VINA RESULT:      -6.8      5.644      9.305
REMARK  Name = 
REMARK  10 active torsions:
REMARK  status: ('A' for Active; 'I' for Inactive)
REMARK    1  A    between atoms: C_1  and  O_2
REMARK    2  A    between atoms: O_2  and  C_3
REMARK    3  A    between atoms: C_9  and  C_10
REMARK    4  A    between atoms: C_10  and  C_11
REMARK    5  A    between atoms: N_13  and  C_14
REMARK    6  A    between atoms: C_14  and  C_15
REMARK    7  A    between atoms: C_18  and  C_19
REMARK    8  A    between atoms: N_20  and  C_21
REMARK    9  A    between atoms: C_21  and  C_22
REMARK   10  A    between atoms: C_22  and  N_23
REMARK                            x       y       z     vdW  Elec       q    Type
REMARK                         _______ _______ _______ _____ _____    ______ ____
ROOT
ATOM      1  C   UNL     1      -2.923  10.058  16.596  0.00  0.00    +0.000 A 
ATOM      2  C   UNL     1      -3.786  10.852  17.340  0.00  0.00    +0.000 A 
ATOM      3  C   UNL     1      -3.326  11.547  18.456  0.00  0.00    +0.000 A 
ATOM      4  C   UNL     1      -1.983  11.441  18.864  0.00  0.00    +0.000 A 
ATOM      5  C   UNL     1      -1.110  10.606  18.153  0.00  0.00    +0.000 A 
ATOM      6  C   UNL     1      -1.597   9.914  17.013  0.00  0.00    +0.000 A 
ATOM      7  C   UNL     1       0.173  10.688  18.779  0.00  0.00    +0.000 A 
ATOM      8  C   UNL     1       0.049  11.542  19.868  0.00  0.00    +0.000 A 
ATOM      9  C   UNL     1       1.095  11.965  20.849  0.00  0.00    +0.000 C 
ATOM     10  N   UNL     1      -1.251  12.029  19.892  0.00  0.00    +0.000 N 
ENDROOT
BRANCH   1  12
ATOM     11  C   UNL     1      -3.516  10.175  14.315  0.00  0.00    +0.000 C 
ATOM     12  O   UNL     1      -3.297   9.370  15.473  0.00  0.00    +0.000 OA
ENDBRANCH   1  12
BRANCH   7  13
ATOM     13  C   UNL     1       1.430  10.029  18.287  0.00  0.00    +0.000 C 
BRANCH  13  14
ATOM     14  C   UNL     1       1.797   8.710  18.946  0.00  0.00    +0.000 C 
ATOM     15  O   UNL     1       1.399   8.446  20.082  0.00  0.00    +0.000 OA
ATOM     16  N   UNL     1       2.482   7.787  18.181  0.00  0.00    +0.000 N 
ATOM     17  H   UNL     1       2.987   8.120  17.369  0.00  0.00    +0.000 HD
BRANCH  16  18
ATOM     18  C   UNL     1       2.877   6.535  18.786  0.00  0.00    +0.000 C 
BRANCH  18  19
ATOM     19  C   UNL     1       3.342   5.550  17.764  0.00  0.00    +0.000 C 
ATOM     20  C   UNL     1       4.566   5.776  16.911  0.00  0.00    +0.000 C 
ATOM     21  C   UNL     1       4.617   4.787  18.040  0.00  0.00    +0.000 C 
ENDBRANCH  18  19
ENDBRANCH  16  18
ENDBRANCH  13  14
ENDBRANCH   7  13
BRANCH  10  22
ATOM     22  C   UNL     1      -1.707  13.074  20.829  0.00  0.00    +0.000 C 
BRANCH  22  23
ATOM     23  C   UNL     1      -2.131  12.550  22.202  0.00  0.00    +0.000 C 
BRANCH  23  24
ATOM     24  N   UNL     1      -3.544  12.277  22.511  0.00  0.00    +0.000 NA
ATOM     25  C   UNL     1      -4.513  13.181  21.870  0.00  0.00    +0.000 C 
ATOM     26  C   UNL     1      -4.493  14.616  22.420  0.00  0.00    +0.000 C 
ATOM     27  O   UNL     1      -4.670  14.644  23.842  0.00  0.00    +0.000 OA
ATOM     28  C   UNL     1      -3.691  13.836  24.504  0.00  0.00    +0.000 C 
ATOM     29  C   UNL     1      -3.731  12.384  23.987  0.00  0.00    +0.000 C 
ENDBRANCH  23  24
ENDBRANCH  22  23
ENDBRANCH  10  22
TORSDOF 8
ENDMDL
MODEL 7
REMARK VINA RESULT:      -6.8      4.691      8.294
REMARK  Name = 
REMARK  10 active torsions:
REMARK  status: ('A' for Active; 'I' for Inactive)
REMARK    1  A    between atoms: C_1  and  O_2
REMARK    2  A    between atoms: O_2  and  C_3
REMARK    3  A    between atoms: C_9  and  C_10
REMARK    4  A    between atoms: C_10  and  C_11
REMARK    5  A    between atoms: N_13  and  C_14
REMARK    6  A    between atoms: C_14  and  C_15
REMARK    7  A    between atoms: C_18  and  C_19
REMARK    8  A    between atoms: N_20  and  C_21
REMARK    9  A    between atoms: C_21  and  C_22
REMARK   10  A    between atoms: C_22  and  N_23
REMARK                            x       y       z     vdW  Elec       q    Type
REMARK                         _______ _______ _______ _____ _____    ______ ____
ROOT
ATOM      1  C   UNL     1      -0.738  10.643  22.843  0.00  0.00    +0.000 A 
ATOM      2  C   UNL     1       0.021   9.582  23.317  0.00  0.00    +0.000 A 
ATOM      3  C   UNL     1       0.779   8.806  22.443  0.00  0.00    +0.000 A 
ATOM      4  C   UNL     1       0.774   9.070  21.060  0.00  0.00    +0.000 A 
ATOM      5  C   UNL     1      -0.023  10.107  20.559  0.00  0.00    +0.000 A 
ATOM      6  C   UNL     1      -0.782  10.891  21.467  0.00  0.00    +0.000 A 
ATOM      7  C   UNL     1       0.163  10.150  19.142  0.00  0.00    +0.000 A 
ATOM      8  C   UNL     1       1.041   9.126  18.808  0.00  0.00    +0.000 A 
ATOM      9  C   UNL     1       1.563   8.744  17.460  0.00  0.00    +0.000 C 
ATOM     10  N   UNL     1       1.442   8.498  19.980  0.00  0.00    +0.000 N 
ENDROOT
BRANCH   1  12
ATOM     11  C   UNL     1      -1.665  12.791  23.148  0.00  0.00    +0.000 C 
ATOM     12  O   UNL     1      -1.484  11.465  23.643  0.00  0.00    +0.000 OA
ENDBRANCH   1  12
BRANCH   7  13
ATOM     13  C   UNL     1      -0.427  11.172  18.213  0.00  0.00    +0.000 C 
BRANCH  13  14
ATOM     14  C   UNL     1      -1.768  10.818  17.593  0.00  0.00    +0.000 C 
ATOM     15  O   UNL     1      -1.847   9.947  16.724  0.00  0.00    +0.000 OA
ATOM     16  N   UNL     1      -2.892  11.420  18.123  0.00  0.00    +0.000 N 
ATOM     17  H   UNL     1      -2.772  12.279  18.646  0.00  0.00    +0.000 HD
BRANCH  16  18
ATOM     18  C   UNL     1      -4.181  11.132  17.535  0.00  0.00    +0.000 C 
BRANCH  18  19
ATOM     19  C   UNL     1      -5.295  11.754  18.313  0.00  0.00    +0.000 C 
ATOM     20  C   UNL     1      -6.629  12.093  17.697  0.00  0.00    +0.000 C 
ATOM     21  C   UNL     1      -6.511  10.910  18.613  0.00  0.00    +0.000 C 
ENDBRANCH  18  19
ENDBRANCH  16  18
ENDBRANCH  13  14
ENDBRANCH   7  13
BRANCH  10  22
ATOM     22  C   UNL     1       2.483   7.455  20.024  0.00  0.00    +0.000 C 
BRANCH  22  23
ATOM     23  C   UNL     1       1.943   6.024  20.082  0.00  0.00    +0.000 C 
BRANCH  23  24
ATOM     24  N   UNL     1       2.442   4.983  19.169  0.00  0.00    +0.000 NA
ATOM     25  C   UNL     1       1.410   4.110  18.588  0.00  0.00    +0.000 C 
ATOM     26  C   UNL     1       0.757   3.152  19.596  0.00  0.00    +0.000 C 
ATOM     27  O   UNL     1       1.731   2.359  20.287  0.00  0.00    +0.000 OA
ATOM     28  C   UNL     1       2.708   3.183  20.933  0.00  0.00    +0.000 C 
ATOM     29  C   UNL     1       3.398   4.119  19.921  0.00  0.00    +0.000 C 
ENDBRANCH  23  24
ENDBRANCH  22  23
ENDBRANCH  10  22
TORSDOF 8
ENDMDL
MODEL 8
REMARK VINA RESULT:      -6.7      4.602      7.563
REMARK  Name = 
REMARK  10 active torsions:
REMARK  status: ('A' for Active; 'I' for Inactive)
REMARK    1  A    between atoms: C_1  and  O_2
REMARK    2  A    between atoms: O_2  and  C_3
REMARK    3  A    between atoms: C_9  and  C_10
REMARK    4  A    between atoms: C_10  and  C_11
REMARK    5  A    between atoms: N_13  and  C_14
REMARK    6  A    between atoms: C_14  and  C_15
REMARK    7  A    between atoms: C_18  and  C_19
REMARK    8  A    between atoms: N_20  and  C_21
REMARK    9  A    between atoms: C_21  and  C_22
REMARK   10  A    between atoms: C_22  and  N_23
REMARK                            x       y       z     vdW  Elec       q    Type
REMARK                         _______ _______ _______ _____ _____    ______ ____
ROOT
ATOM      1  C   UNL     1      -0.599  10.920  22.714  0.00  0.00    +0.000 A 
ATOM      2  C   UNL     1      -0.244   9.709  23.292  0.00  0.00    +0.000 A 
ATOM      3  C   UNL     1       0.459   8.754  22.560  0.00  0.00    +0.000 A 
ATOM      4  C   UNL     1       0.803   8.989  21.216  0.00  0.00    +0.000 A 
ATOM      5  C   UNL     1       0.411  10.187  20.604  0.00  0.00    +0.000 A 
ATOM      6  C   UNL     1      -0.297  11.151  21.368  0.00  0.00    +0.000 A 
ATOM      7  C   UNL     1       0.887  10.160  19.255  0.00  0.00    +0.000 A 
ATOM      8  C   UNL     1       1.530   8.942  19.067  0.00  0.00    +0.000 A 
ATOM      9  C   UNL     1       2.204   8.420  17.839  0.00  0.00    +0.000 C 
ATOM     10  N   UNL     1       1.512   8.251  20.272  0.00  0.00    +0.000 N 
ENDROOT
BRANCH   1  12
ATOM     11  C   UNL     1      -2.684  11.893  23.240  0.00  0.00    +0.000 C 
ATOM     12  O   UNL     1      -1.263  11.916  23.378  0.00  0.00    +0.000 OA
ENDBRANCH   1  12
BRANCH   7  13
ATOM     13  C   UNL     1       0.775  11.284  18.265  0.00  0.00    +0.000 C 
BRANCH  13  14
ATOM     14  C   UNL     1      -0.635  11.692  17.874  0.00  0.00    +0.000 C 
ATOM     15  O   UNL     1      -0.980  12.874  17.919  0.00  0.00    +0.000 OA
ATOM     16  N   UNL     1      -1.460  10.712  17.359  0.00  0.00    +0.000 N 
ATOM     17  H   UNL     1      -1.236   9.745  17.559  0.00  0.00    +0.000 HD
BRANCH  16  18
ATOM     18  C   UNL     1      -2.819  11.057  17.007  0.00  0.00    +0.000 C 
BRANCH  18  19
ATOM     19  C   UNL     1      -3.024  11.059  15.527  0.00  0.00    +0.000 C 
ATOM     20  C   UNL     1      -2.610   9.907  14.646  0.00  0.00    +0.000 C 
ATOM     21  C   UNL     1      -4.064  10.125  14.952  0.00  0.00    +0.000 C 
ENDBRANCH  18  19
ENDBRANCH  16  18
ENDBRANCH  13  14
ENDBRANCH   7  13
BRANCH  10  22
ATOM     22  C   UNL     1       2.228   6.979  20.486  0.00  0.00    +0.000 C 
BRANCH  22  23
ATOM     23  C   UNL     1       1.572   5.766  19.822  0.00  0.00    +0.000 C 
BRANCH  23  24
ATOM     24  N   UNL     1       2.342   4.871  18.943  0.00  0.00    +0.000 NA
ATOM     25  C   UNL     1       1.536   3.943  18.132  0.00  0.00    +0.000 C 
ATOM     26  C   UNL     1       0.848   2.834  18.942  0.00  0.00    +0.000 C 
ATOM     27  O   UNL     1       1.785   2.096  19.738  0.00  0.00    +0.000 OA
ATOM     28  C   UNL     1       2.531   2.963  20.600  0.00  0.00    +0.000 C 
ATOM     29  C   UNL     1       3.258   4.055  19.791  0.00  0.00    +0.000 C 
ENDBRANCH  23  24
ENDBRANCH  22  23
ENDBRANCH  10  22
TORSDOF 8
ENDMDL
MODEL 9
REMARK VINA RESULT:      -6.7      3.510      5.889
REMARK  Name = 
REMARK  10 active torsions:
REMARK  status: ('A' for Active; 'I' for Inactive)
REMARK    1  A    between atoms: C_1  and  O_2
REMARK    2  A    between atoms: O_2  and  C_3
REMARK    3  A    between atoms: C_9  and  C_10
REMARK    4  A    between atoms: C_10  and  C_11
REMARK    5  A    between atoms: N_13  and  C_14
REMARK    6  A    between atoms: C_14  and  C_15
REMARK    7  A    between atoms: C_18  and  C_19
REMARK    8  A    between atoms: N_20  and  C_21
REMARK    9  A    between atoms: C_21  and  C_22
REMARK   10  A    between atoms: C_22  and  N_23
REMARK                            x       y       z     vdW  Elec       q    Type
REMARK                         _______ _______ _______ _____ _____    ______ ____
ROOT
ATOM      1  C   UNL     1       5.485   5.965  16.473  0.00  0.00    +0.000 A 
ATOM      2  C   UNL     1       5.602   4.988  17.453  0.00  0.00    +0.000 A 
ATOM      3  C   UNL     1       4.762   4.993  18.564  0.00  0.00    +0.000 A 
ATOM      4  C   UNL     1       3.793   6.000  18.726  0.00  0.00    +0.000 A 
ATOM      5  C   UNL     1       3.692   7.021  17.771  0.00  0.00    +0.000 A 
ATOM      6  C   UNL     1       4.552   6.993  16.642  0.00  0.00    +0.000 A 
ATOM      7  C   UNL     1       2.638   7.896  18.182  0.00  0.00    +0.000 A 
ATOM      8  C   UNL     1       2.142   7.410  19.386  0.00  0.00    +0.000 A 
ATOM      9  C   UNL     1       1.035   7.956  20.230  0.00  0.00    +0.000 C 
ATOM     10  N   UNL     1       2.818   6.236  19.692  0.00  0.00    +0.000 N 
ENDROOT
BRANCH   1  12
ATOM     11  C   UNL     1       6.355   4.774  14.632  0.00  0.00    +0.000 C 
ATOM     12  O   UNL     1       6.254   6.008  15.342  0.00  0.00    +0.000 OA
ENDBRANCH   1  12
BRANCH   7  13
ATOM     13  C   UNL     1       2.123   9.071  17.402  0.00  0.00    +0.000 C 
BRANCH  13  14
ATOM     14  C   UNL     1       1.551  10.218  18.218  0.00  0.00    +0.000 C 
ATOM     15  O   UNL     1       2.292  10.947  18.879  0.00  0.00    +0.000 OA
ATOM     16  N   UNL     1       0.200  10.475  18.092  0.00  0.00    +0.000 N 
ATOM     17  H   UNL     1      -0.397   9.733  17.748  0.00  0.00    +0.000 HD
BRANCH  16  18
ATOM     18  C   UNL     1      -0.385  11.536  18.880  0.00  0.00    +0.000 C 
BRANCH  18  19
ATOM     19  C   UNL     1      -0.908  11.032  20.186  0.00  0.00    +0.000 C 
ATOM     20  C   UNL     1      -0.209  11.289  21.497  0.00  0.00    +0.000 C 
ATOM     21  C   UNL     1      -1.466  12.039  21.165  0.00  0.00    +0.000 C 
ENDBRANCH  18  19
ENDBRANCH  16  18
ENDBRANCH  13  14
ENDBRANCH   7  13
BRANCH  10  22
ATOM     22  C   UNL     1       2.457   5.367  20.828  0.00  0.00    +0.000 C 
BRANCH  22  23
ATOM     23  C   UNL     1       1.244   4.469  20.575  0.00  0.00    +0.000 C 
BRANCH  23  24
ATOM     24  N   UNL     1       1.285   3.029  20.880  0.00  0.00    +0.000 NA
ATOM     25  C   UNL     1       2.578   2.529  21.375  0.00  0.00    +0.000 C 
ATOM     26  C   UNL     1       3.692   2.510  20.317  0.00  0.00    +0.000 C 
ATOM     27  O   UNL     1       3.304   1.778  19.148  0.00  0.00    +0.000 OA
ATOM     28  C   UNL     1       2.088   2.292  18.592  0.00  0.00    +0.000 C 
ATOM     29  C   UNL     1       0.953   2.277  19.636  0.00  0.00    +0.000 C 
ENDBRANCH  23  24
ENDBRANCH  22  23
ENDBRANCH  10  22
TORSDOF 8
ENDMDL
