MODEL 1
REMARK VINA RESULT:      -8.2      0.000      0.000
REMARK  Name = 
REMARK  5 active torsions:
REMARK  status: ('A' for Active; 'I' for Inactive)
REMARK    1  A    between atoms: C_1  and  C_2
REMARK    2  A    between atoms: C_9  and  C_10
REMARK    3  A    between atoms: C_13  and  C_14
REMARK    4  A    between atoms: C_17  and  N_18
REMARK    5  A    between atoms: C_19  and  C_21
REMARK                            x       y       z     vdW  Elec       q    Type
REMARK                         _______ _______ _______ _____ _____    ______ ____
ROOT
ATOM      1  C   UNL     1       2.253   7.395  19.234  0.00  0.00    +0.000 A 
ATOM      2  C   UNL     1       1.791   7.168  20.514  0.00  0.00    +0.000 A 
ATOM      3  S   UNL     1       0.896   8.513  21.062  0.00  0.00    +0.000 S 
ATOM      4  C   UNL     1       1.187   9.321  19.561  0.00  0.00    +0.000 A 
ATOM      5  N   UNL     1       1.869   8.613  18.682  0.00  0.00    +0.000 NA
ENDROOT
BRANCH   1  14
ATOM      6  C   UNL     1       7.363   6.713  17.257  0.00  0.00    +0.000 C 
ATOM      7  C   UNL     1       6.254   6.189  16.360  0.00  0.00    +0.000 C 
ATOM      8  C   UNL     1       6.564   4.763  15.868  0.00  0.00    +0.000 C 
ATOM      9  O   UNL     1       7.525   4.407  15.209  0.00  0.00    +0.000 OA
ATOM     10  N   UNL     1       5.544   3.932  16.322  0.00  0.00    +0.000 N 
ATOM     11  C   UNL     1       4.611   4.638  17.062  0.00  0.00    +0.000 A 
ATOM     12  C   UNL     1       3.496   4.149  17.705  0.00  0.00    +0.000 A 
ATOM     13  C   UNL     1       2.719   5.063  18.427  0.00  0.00    +0.000 A 
ATOM     14  C   UNL     1       3.055   6.438  18.479  0.00  0.00    +0.000 A 
ATOM     15  C   UNL     1       4.198   6.896  17.809  0.00  0.00    +0.000 A 
ATOM     16  C   UNL     1       4.970   5.980  17.114  0.00  0.00    +0.000 A 
ATOM     17  H   UNL     1       5.529   2.940  16.141  0.00  0.00    +0.000 HD
ENDBRANCH   1  14
BRANCH   4  18
ATOM     18  C   UNL     1       0.636  10.668  19.332  0.00  0.00    +0.000 A 
ATOM     19  C   UNL     1       1.423  11.690  18.789  0.00  0.00    +0.000 A 
ATOM     20  C   UNL     1       0.923  12.984  18.635  0.00  0.00    +0.000 A 
ATOM     21  C   UNL     1      -0.384  13.296  19.006  0.00  0.00    +0.000 A 
ATOM     22  C   UNL     1      -1.193  12.277  19.522  0.00  0.00    +0.000 A 
ATOM     23  C   UNL     1      -0.692  10.971  19.665  0.00  0.00    +0.000 A 
BRANCH  21  24
ATOM     24  N   UNL     1      -0.915  14.600  18.906  0.00  0.00    +0.000 N 
ATOM     25  C   UNL     1      -0.715  15.645  19.797  0.00  0.00    +0.000 C 
ATOM     26  O   UNL     1       0.031  15.606  20.772  0.00  0.00    +0.000 OA
ATOM     27  H   UNL     1      -1.481  14.822  18.094  0.00  0.00    +0.000 HD
BRANCH  25  28
ATOM     28  C   UNL     1      -1.452  16.848  19.476  0.00  0.00    +0.000 A 
ATOM     29  C   UNL     1      -2.435  17.505  20.194  0.00  0.00    +0.000 A 
ATOM     30  C   UNL     1      -2.817  18.629  19.428  0.00  0.00    +0.000 A 
ATOM     31  C   UNL     1      -2.055  18.587  18.284  0.00  0.00    +0.000 A 
ATOM     32  O   UNL     1      -1.220  17.513  18.301  0.00  0.00    +0.000 OA
ENDBRANCH  25  28
ENDBRANCH  21  24
ENDBRANCH   4  18
TORSDOF 4
ENDMDL
MODEL 2
REMARK VINA RESULT:      -8.1      3.965      4.980
REMARK  Name = 
REMARK  5 active torsions:
REMARK  status: ('A' for Active; 'I' for Inactive)
REMARK    1  A    between atoms: C_1  and  C_2
REMARK    2  A    between atoms: C_9  and  C_10
REMARK    3  A    between atoms: C_13  and  C_14
REMARK    4  A    between atoms: C_17  and  N_18
REMARK    5  A    between atoms: C_19  and  C_21
REMARK                            x       y       z     vdW  Elec       q    Type
REMARK                         _______ _______ _______ _____ _____    ______ ____
ROOT
ATOM      1  C   UNL     1       1.788   9.276  18.808  0.00  0.00    +0.000 A 
ATOM      2  C   UNL     1       2.211  10.352  18.056  0.00  0.00    +0.000 A 
ATOM      3  S   UNL     1       1.262  11.725  18.409  0.00  0.00    +0.000 S 
ATOM      4  C   UNL     1       0.336  10.798  19.537  0.00  0.00    +0.000 A 
ATOM      5  N   UNL     1       0.740   9.551  19.683  0.00  0.00    +0.000 NA
ENDROOT
BRANCH   1  14
ATOM      6  C   UNL     1       0.997   4.118  20.610  0.00  0.00    +0.000 C 
ATOM      7  C   UNL     1       2.449   4.564  20.563  0.00  0.00    +0.000 C 
ATOM      8  C   UNL     1       3.333   3.505  19.878  0.00  0.00    +0.000 C 
ATOM      9  O   UNL     1       3.502   2.351  20.230  0.00  0.00    +0.000 OA
ATOM     10  N   UNL     1       3.911   4.101  18.761  0.00  0.00    +0.000 N 
ATOM     11  C   UNL     1       3.504   5.417  18.624  0.00  0.00    +0.000 A 
ATOM     12  C   UNL     1       3.829   6.302  17.621  0.00  0.00    +0.000 A 
ATOM     13  C   UNL     1       3.257   7.579  17.683  0.00  0.00    +0.000 A 
ATOM     14  C   UNL     1       2.393   7.950  18.742  0.00  0.00    +0.000 A 
ATOM     15  C   UNL     1       2.087   7.019  19.743  0.00  0.00    +0.000 A 
ATOM     16  C   UNL     1       2.644   5.752  19.663  0.00  0.00    +0.000 A 
ATOM     17  H   UNL     1       4.526   3.602  18.135  0.00  0.00    +0.000 HD
ENDBRANCH   1  14
BRANCH   4  18
ATOM     18  C   UNL     1      -0.764  11.433  20.284  0.00  0.00    +0.000 A 
ATOM     19  C   UNL     1      -0.879  11.284  21.671  0.00  0.00    +0.000 A 
ATOM     20  C   UNL     1      -1.958  11.827  22.370  0.00  0.00    +0.000 A 
ATOM     21  C   UNL     1      -2.950  12.548  21.709  0.00  0.00    +0.000 A 
ATOM     22  C   UNL     1      -2.833  12.732  20.326  0.00  0.00    +0.000 A 
ATOM     23  C   UNL     1      -1.739  12.194  19.624  0.00  0.00    +0.000 A 
BRANCH  21  24
ATOM     24  N   UNL     1      -4.078  13.078  22.371  0.00  0.00    +0.000 N 
ATOM     25  C   UNL     1      -5.406  12.751  22.134  0.00  0.00    +0.000 C 
ATOM     26  O   UNL     1      -5.788  11.879  21.358  0.00  0.00    +0.000 OA
ATOM     27  H   UNL     1      -3.921  13.748  23.116  0.00  0.00    +0.000 HD
BRANCH  25  28
ATOM     28  C   UNL     1      -6.355  13.516  22.914  0.00  0.00    +0.000 A 
ATOM     29  C   UNL     1      -6.676  14.859  22.852  0.00  0.00    +0.000 A 
ATOM     30  C   UNL     1      -7.666  15.087  23.834  0.00  0.00    +0.000 A 
ATOM     31  C   UNL     1      -7.884  13.875  24.444  0.00  0.00    +0.000 A 
ATOM     32  O   UNL     1      -7.096  12.911  23.895  0.00  0.00    +0.000 OA
ENDBRANCH  25  28
ENDBRANCH  21  24
ENDBRANCH   4  18
TORSDOF 4
ENDMDL
MODEL 3
REMARK VINA RESULT:      -8.1      3.387      4.039
REMARK  Name = 
REMARK  5 active torsions:
REMARK  status: ('A' for Active; 'I' for Inactive)
REMARK    1  A    between atoms: C_1  and  C_2
REMARK    2  A    between atoms: C_9  and  C_10
REMARK    3  A    between atoms: C_13  and  C_14
REMARK    4  A    between atoms: C_17  and  N_18
REMARK    5  A    between atoms: C_19  and  C_21
REMARK                            x       y       z     vdW  Elec       q    Type
REMARK                         _______ _______ _______ _____ _____    ______ ____
ROOT
ATOM      1  C   UNL     1       1.746   7.940  19.198  0.00  0.00    +0.000 A 
ATOM      2  C   UNL     1       2.233   8.696  18.152  0.00  0.00    +0.000 A 
ATOM      3  S   UNL     1       1.642  10.292  18.256  0.00  0.00    +0.000 S 
ATOM      4  C   UNL     1       0.763   9.877  19.686  0.00  0.00    +0.000 A 
ATOM      5  N   UNL     1       0.938   8.634  20.094  0.00  0.00    +0.000 NA
ENDROOT
BRANCH   1  14
ATOM      6  C   UNL     1       4.615   3.830  16.883  0.00  0.00    +0.000 C 
ATOM      7  C   UNL     1       3.293   3.416  17.507  0.00  0.00    +0.000 C 
ATOM      8  C   UNL     1       3.466   2.174  18.402  0.00  0.00    +0.000 C 
ATOM      9  O   UNL     1       3.868   1.075  18.062  0.00  0.00    +0.000 OA
ATOM     10  N   UNL     1       3.087   2.531  19.692  0.00  0.00    +0.000 N 
ATOM     11  C   UNL     1       2.699   3.858  19.754  0.00  0.00    +0.000 A 
ATOM     12  C   UNL     1       2.307   4.573  20.864  0.00  0.00    +0.000 A 
ATOM     13  C   UNL     1       1.995   5.926  20.677  0.00  0.00    +0.000 A 
ATOM     14  C   UNL     1       2.063   6.530  19.398  0.00  0.00    +0.000 A 
ATOM     15  C   UNL     1       2.467   5.766  18.294  0.00  0.00    +0.000 A 
ATOM     16  C   UNL     1       2.792   4.434  18.492  0.00  0.00    +0.000 A 
ATOM     17  H   UNL     1       3.127   1.887  20.468  0.00  0.00    +0.000 HD
ENDBRANCH   1  14
BRANCH   4  18
ATOM     18  C   UNL     1      -0.047  10.896  20.374  0.00  0.00    +0.000 A 
ATOM     19  C   UNL     1       0.050  11.088  21.757  0.00  0.00    +0.000 A 
ATOM     20  C   UNL     1      -0.767  12.005  22.420  0.00  0.00    +0.000 A 
ATOM     21  C   UNL     1      -1.699  12.770  21.721  0.00  0.00    +0.000 A 
ATOM     22  C   UNL     1      -1.787  12.612  20.333  0.00  0.00    +0.000 A 
ATOM     23  C   UNL     1      -0.955  11.696  19.664  0.00  0.00    +0.000 A 
BRANCH  21  24
ATOM     24  N   UNL     1      -2.571  13.678  22.358  0.00  0.00    +0.000 N 
ATOM     25  C   UNL     1      -3.732  13.362  23.051  0.00  0.00    +0.000 C 
ATOM     26  O   UNL     1      -4.125  12.222  23.282  0.00  0.00    +0.000 OA
ATOM     27  H   UNL     1      -2.329  14.663  22.340  0.00  0.00    +0.000 HD
BRANCH  25  28
ATOM     28  C   UNL     1      -4.469  14.511  23.531  0.00  0.00    +0.000 A 
ATOM     29  C   UNL     1      -5.808  14.828  23.394  0.00  0.00    +0.000 A 
ATOM     30  C   UNL     1      -6.004  16.062  24.053  0.00  0.00    +0.000 A 
ATOM     31  C   UNL     1      -4.775  16.431  24.545  0.00  0.00    +0.000 A 
ATOM     32  O   UNL     1      -3.833  15.498  24.237  0.00  0.00    +0.000 OA
ENDBRANCH  25  28
ENDBRANCH  21  24
ENDBRANCH   4  18
TORSDOF 4
ENDMDL
MODEL 4
REMARK VINA RESULT:      -8.0      3.444      4.039
REMARK  Name = 
REMARK  5 active torsions:
REMARK  status: ('A' for Active; 'I' for Inactive)
REMARK    1  A    between atoms: C_1  and  C_2
REMARK    2  A    between atoms: C_9  and  C_10
REMARK    3  A    between atoms: C_13  and  C_14
REMARK    4  A    between atoms: C_17  and  N_18
REMARK    5  A    between atoms: C_19  and  C_21
REMARK                            x       y       z     vdW  Elec       q    Type
REMARK                         _______ _______ _______ _____ _____    ______ ____
ROOT
ATOM      1  C   UNL     1       1.718   7.884  19.282  0.00  0.00    +0.000 A 
ATOM      2  C   UNL     1       2.202   8.685  18.269  0.00  0.00    +0.000 A 
ATOM      3  S   UNL     1       1.570  10.262  18.415  0.00  0.00    +0.000 S 
ATOM      4  C   UNL     1       0.680   9.779  19.817  0.00  0.00    +0.000 A 
ATOM      5  N   UNL     1       0.880   8.528  20.187  0.00  0.00    +0.000 NA
ENDROOT
BRANCH   1  14
ATOM      6  C   UNL     1       4.558   3.869  16.772  0.00  0.00    +0.000 C 
ATOM      7  C   UNL     1       3.271   3.420  17.442  0.00  0.00    +0.000 C 
ATOM      8  C   UNL     1       3.502   2.165  18.304  0.00  0.00    +0.000 C 
ATOM      9  O   UNL     1       3.908   1.080  17.927  0.00  0.00    +0.000 OA
ATOM     10  N   UNL     1       3.171   2.491  19.616  0.00  0.00    +0.000 N 
ATOM     11  C   UNL     1       2.763   3.810  19.720  0.00  0.00    +0.000 A 
ATOM     12  C   UNL     1       2.405   4.497  20.858  0.00  0.00    +0.000 A 
ATOM     13  C   UNL     1       2.062   5.847  20.711  0.00  0.00    +0.000 A 
ATOM     14  C   UNL     1       2.067   6.476  19.442  0.00  0.00    +0.000 A 
ATOM     15  C   UNL     1       2.438   5.740  18.308  0.00  0.00    +0.000 A 
ATOM     16  C   UNL     1       2.793   4.411  18.466  0.00  0.00    +0.000 A 
ATOM     17  H   UNL     1       3.254   1.834  20.377  0.00  0.00    +0.000 HD
ENDBRANCH   1  14
BRANCH   4  18
ATOM     18  C   UNL     1      -0.166  10.755  20.524  0.00  0.00    +0.000 A 
ATOM     19  C   UNL     1      -0.891  11.727  19.826  0.00  0.00    +0.000 A 
ATOM     20  C   UNL     1      -1.638  12.695  20.498  0.00  0.00    +0.000 A 
ATOM     21  C   UNL     1      -1.697  12.716  21.890  0.00  0.00    +0.000 A 
ATOM     22  C   UNL     1      -1.002  11.731  22.602  0.00  0.00    +0.000 A 
ATOM     23  C   UNL     1      -0.259  10.749  21.924  0.00  0.00    +0.000 A 
BRANCH  21  24
ATOM     24  N   UNL     1      -2.406  13.701  22.609  0.00  0.00    +0.000 N 
ATOM     25  C   UNL     1      -3.658  13.559  23.193  0.00  0.00    +0.000 C 
ATOM     26  O   UNL     1      -4.300  12.513  23.236  0.00  0.00    +0.000 OA
ATOM     27  H   UNL     1      -1.961  14.602  22.747  0.00  0.00    +0.000 HD
BRANCH  25  28
ATOM     28  C   UNL     1      -4.172  14.768  23.799  0.00  0.00    +0.000 A 
ATOM     29  C   UNL     1      -3.553  15.668  24.647  0.00  0.00    +0.000 A 
ATOM     30  C   UNL     1      -4.503  16.672  24.939  0.00  0.00    +0.000 A 
ATOM     31  C   UNL     1      -5.648  16.322  24.264  0.00  0.00    +0.000 A 
ATOM     32  O   UNL     1      -5.461  15.169  23.565  0.00  0.00    +0.000 OA
ENDBRANCH  25  28
ENDBRANCH  21  24
ENDBRANCH   4  18
TORSDOF 4
ENDMDL
MODEL 5
REMARK VINA RESULT:      -8.0      0.893      1.137
REMARK  Name = 
REMARK  5 active torsions:
REMARK  status: ('A' for Active; 'I' for Inactive)
REMARK    1  A    between atoms: C_1  and  C_2
REMARK    2  A    between atoms: C_9  and  C_10
REMARK    3  A    between atoms: C_13  and  C_14
REMARK    4  A    between atoms: C_17  and  N_18
REMARK    5  A    between atoms: C_19  and  C_21
REMARK                            x       y       z     vdW  Elec       q    Type
REMARK                         _______ _______ _______ _____ _____    ______ ____
ROOT
ATOM      1  C   UNL     1       2.170   7.127  19.635  0.00  0.00    +0.000 A 
ATOM      2  C   UNL     1       1.607   6.836  20.861  0.00  0.00    +0.000 A 
ATOM      3  S   UNL     1       0.661   8.150  21.398  0.00  0.00    +0.000 S 
ATOM      4  C   UNL     1       1.068   9.032  19.967  0.00  0.00    +0.000 A 
ATOM      5  N   UNL     1       1.823   8.369  19.113  0.00  0.00    +0.000 NA
ENDROOT
BRANCH   1  14
ATOM      6  C   UNL     1       7.204   6.879  17.382  0.00  0.00    +0.000 C 
ATOM      7  C   UNL     1       6.117   6.159  16.601  0.00  0.00    +0.000 C 
ATOM      8  C   UNL     1       6.568   4.743  16.198  0.00  0.00    +0.000 C 
ATOM      9  O   UNL     1       7.526   4.447  15.505  0.00  0.00    +0.000 OA
ATOM     10  N   UNL     1       5.683   3.840  16.779  0.00  0.00    +0.000 N 
ATOM     11  C   UNL     1       4.714   4.492  17.524  0.00  0.00    +0.000 A 
ATOM     12  C   UNL     1       3.705   3.931  18.274  0.00  0.00    +0.000 A 
ATOM     13  C   UNL     1       2.866   4.806  18.975  0.00  0.00    +0.000 A 
ATOM     14  C   UNL     1       3.036   6.210  18.902  0.00  0.00    +0.000 A 
ATOM     15  C   UNL     1       4.076   6.740  18.126  0.00  0.00    +0.000 A 
ATOM     16  C   UNL     1       4.913   5.866  17.452  0.00  0.00    +0.000 A 
ATOM     17  H   UNL     1       5.777   2.841  16.673  0.00  0.00    +0.000 HD
ENDBRANCH   1  14
BRANCH   4  18
ATOM     18  C   UNL     1       0.528  10.386  19.759  0.00  0.00    +0.000 A 
ATOM     19  C   UNL     1      -0.241  10.695  18.632  0.00  0.00    +0.000 A 
ATOM     20  C   UNL     1      -0.695  11.994  18.399  0.00  0.00    +0.000 A 
ATOM     21  C   UNL     1      -0.406  13.025  19.291  0.00  0.00    +0.000 A 
ATOM     22  C   UNL     1       0.337  12.726  20.438  0.00  0.00    +0.000 A 
ATOM     23  C   UNL     1       0.784  11.414  20.679  0.00  0.00    +0.000 A 
BRANCH  21  24
ATOM     24  N   UNL     1      -0.809  14.359  19.072  0.00  0.00    +0.000 N 
ATOM     25  C   UNL     1      -0.011  15.491  19.166  0.00  0.00    +0.000 C 
ATOM     26  O   UNL     1       1.198  15.484  19.378  0.00  0.00    +0.000 OA
ATOM     27  H   UNL     1      -1.770  14.526  18.791  0.00  0.00    +0.000 HD
BRANCH  25  28
ATOM     28  C   UNL     1      -0.720  16.737  18.964  0.00  0.00    +0.000 A 
ATOM     29  C   UNL     1      -0.856  17.506  17.823  0.00  0.00    +0.000 A 
ATOM     30  C   UNL     1      -1.651  18.619  18.175  0.00  0.00    +0.000 A 
ATOM     31  C   UNL     1      -1.943  18.473  19.510  0.00  0.00    +0.000 A 
ATOM     32  O   UNL     1      -1.387  17.333  20.002  0.00  0.00    +0.000 OA
ENDBRANCH  25  28
ENDBRANCH  21  24
ENDBRANCH   4  18
TORSDOF 4
ENDMDL
MODEL 6
REMARK VINA RESULT:      -8.0      3.315      4.003
REMARK  Name = 
REMARK  5 active torsions:
REMARK  status: ('A' for Active; 'I' for Inactive)
REMARK    1  A    between atoms: C_1  and  C_2
REMARK    2  A    between atoms: C_9  and  C_10
REMARK    3  A    between atoms: C_13  and  C_14
REMARK    4  A    between atoms: C_17  and  N_18
REMARK    5  A    between atoms: C_19  and  C_21
REMARK                            x       y       z     vdW  Elec       q    Type
REMARK                         _______ _______ _______ _____ _____    ______ ____
ROOT
ATOM      1  C   UNL     1       1.769   7.842  19.409  0.00  0.00    +0.000 A 
ATOM      2  C   UNL     1       2.005   8.584  18.269  0.00  0.00    +0.000 A 
ATOM      3  S   UNL     1       1.504  10.197  18.505  0.00  0.00    +0.000 S 
ATOM      4  C   UNL     1       0.992   9.806  20.110  0.00  0.00    +0.000 A 
ATOM      5  N   UNL     1       1.226   8.559  20.470  0.00  0.00    +0.000 NA
ENDROOT
BRANCH   1  14
ATOM      6  C   UNL     1       4.629   3.856  16.876  0.00  0.00    +0.000 C 
ATOM      7  C   UNL     1       3.308   3.411  17.480  0.00  0.00    +0.000 C 
ATOM      8  C   UNL     1       3.482   2.124  18.308  0.00  0.00    +0.000 C 
ATOM      9  O   UNL     1       3.881   1.044  17.911  0.00  0.00    +0.000 OA
ATOM     10  N   UNL     1       3.106   2.414  19.616  0.00  0.00    +0.000 N 
ATOM     11  C   UNL     1       2.719   3.736  19.749  0.00  0.00    +0.000 A 
ATOM     12  C   UNL     1       2.330   4.393  20.895  0.00  0.00    +0.000 A 
ATOM     13  C   UNL     1       2.019   5.753  20.780  0.00  0.00    +0.000 A 
ATOM     14  C   UNL     1       2.085   6.423  19.534  0.00  0.00    +0.000 A 
ATOM     15  C   UNL     1       2.486   5.718  18.391  0.00  0.00    +0.000 A 
ATOM     16  C   UNL     1       2.810   4.377  18.518  0.00  0.00    +0.000 A 
ATOM     17  H   UNL     1       3.146   1.730  20.358  0.00  0.00    +0.000 HD
ENDBRANCH   1  14
BRANCH   4  18
ATOM     18  C   UNL     1       0.405  10.849  20.969  0.00  0.00    +0.000 A 
ATOM     19  C   UNL     1      -0.422  10.518  22.049  0.00  0.00    +0.000 A 
ATOM     20  C   UNL     1      -1.034  11.506  22.822  0.00  0.00    +0.000 A 
ATOM     21  C   UNL     1      -0.830  12.857  22.549  0.00  0.00    +0.000 A 
ATOM     22  C   UNL     1       0.018  13.204  21.491  0.00  0.00    +0.000 A 
ATOM     23  C   UNL     1       0.644  12.208  20.720  0.00  0.00    +0.000 A 
BRANCH  21  24
ATOM     24  N   UNL     1      -1.462  13.886  23.279  0.00  0.00    +0.000 N 
ATOM     25  C   UNL     1      -2.777  14.310  23.142  0.00  0.00    +0.000 C 
ATOM     26  O   UNL     1      -3.614  13.785  22.412  0.00  0.00    +0.000 OA
ATOM     27  H   UNL     1      -0.925  14.359  23.998  0.00  0.00    +0.000 HD
BRANCH  25  28
ATOM     28  C   UNL     1      -3.126  15.443  23.972  0.00  0.00    +0.000 A 
ATOM     29  C   UNL     1      -2.311  16.357  24.614  0.00  0.00    +0.000 A 
ATOM     30  C   UNL     1      -3.164  17.261  25.287  0.00  0.00    +0.000 A 
ATOM     31  C   UNL     1      -4.446  16.840  25.027  0.00  0.00    +0.000 A 
ATOM     32  O   UNL     1      -4.439  15.738  24.228  0.00  0.00    +0.000 OA
ENDBRANCH  25  28
ENDBRANCH  21  24
ENDBRANCH   4  18
TORSDOF 4
ENDMDL
MODEL 7
REMARK VINA RESULT:      -7.9      3.090     11.352
REMARK  Name = 
REMARK  5 active torsions:
REMARK  status: ('A' for Active; 'I' for Inactive)
REMARK    1  A    between atoms: C_1  and  C_2
REMARK    2  A    between atoms: C_9  and  C_10
REMARK    3  A    between atoms: C_13  and  C_14
REMARK    4  A    between atoms: C_17  and  N_18
REMARK    5  A    between atoms: C_19  and  C_21
REMARK                            x       y       z     vdW  Elec       q    Type
REMARK                         _______ _______ _______ _____ _____    ______ ____
ROOT
ATOM      1  C   UNL     1      -0.539  10.704  21.678  0.00  0.00    +0.000 A 
ATOM      2  C   UNL     1      -0.040  10.187  22.855  0.00  0.00    +0.000 A 
ATOM      3  S   UNL     1       1.099   8.961  22.521  0.00  0.00    +0.000 S 
ATOM      4  C   UNL     1       0.849   9.187  20.825  0.00  0.00    +0.000 A 
ATOM      5  N   UNL     1       0.004  10.154  20.520  0.00  0.00    +0.000 NA
ENDROOT
BRANCH   1  14
ATOM      6  C   UNL     1      -2.494  14.910  24.673  0.00  0.00    +0.000 C 
ATOM      7  C   UNL     1      -3.539  14.159  23.865  0.00  0.00    +0.000 C 
ATOM      8  C   UNL     1      -4.443  15.133  23.086  0.00  0.00    +0.000 C 
ATOM      9  O   UNL     1      -5.155  16.005  23.552  0.00  0.00    +0.000 OA
ATOM     10  N   UNL     1      -4.299  14.846  21.732  0.00  0.00    +0.000 N 
ATOM     11  C   UNL     1      -3.401  13.813  21.528  0.00  0.00    +0.000 A 
ATOM     12  C   UNL     1      -2.973  13.289  20.330  0.00  0.00    +0.000 A 
ATOM     13  C   UNL     1      -2.023  12.261  20.381  0.00  0.00    +0.000 A 
ATOM     14  C   UNL     1      -1.534  11.769  21.616  0.00  0.00    +0.000 A 
ATOM     15  C   UNL     1      -1.996  12.330  22.815  0.00  0.00    +0.000 A 
ATOM     16  C   UNL     1      -2.922  13.359  22.752  0.00  0.00    +0.000 A 
ATOM     17  H   UNL     1      -4.782  15.363  21.013  0.00  0.00    +0.000 HD
ENDBRANCH   1  14
BRANCH   4  18
ATOM     18  C   UNL     1       1.598   8.370  19.855  0.00  0.00    +0.000 A 
ATOM     19  C   UNL     1       2.113   7.118  20.207  0.00  0.00    +0.000 A 
ATOM     20  C   UNL     1       2.882   6.373  19.311  0.00  0.00    +0.000 A 
ATOM     21  C   UNL     1       3.150   6.850  18.029  0.00  0.00    +0.000 A 
ATOM     22  C   UNL     1       2.616   8.088  17.652  0.00  0.00    +0.000 A 
ATOM     23  C   UNL     1       1.832   8.832  18.551  0.00  0.00    +0.000 A 
BRANCH  21  24
ATOM     24  N   UNL     1       3.957   6.149  17.108  0.00  0.00    +0.000 N 
ATOM     25  C   UNL     1       5.288   6.407  16.809  0.00  0.00    +0.000 C 
ATOM     26  O   UNL     1       5.986   7.244  17.374  0.00  0.00    +0.000 OA
ATOM     27  H   UNL     1       3.548   5.357  16.624  0.00  0.00    +0.000 HD
BRANCH  25  28
ATOM     28  C   UNL     1       5.835   5.571  15.762  0.00  0.00    +0.000 A 
ATOM     29  C   UNL     1       5.291   4.467  15.132  0.00  0.00    +0.000 A 
ATOM     30  C   UNL     1       6.243   4.029  14.184  0.00  0.00    +0.000 A 
ATOM     31  C   UNL     1       7.314   4.883  14.297  0.00  0.00    +0.000 A 
ATOM     32  O   UNL     1       7.080   5.826  15.250  0.00  0.00    +0.000 OA
ENDBRANCH  25  28
ENDBRANCH  21  24
ENDBRANCH   4  18
TORSDOF 4
ENDMDL
MODEL 8
REMARK VINA RESULT:      -7.9      0.733      1.178
REMARK  Name = 
REMARK  5 active torsions:
REMARK  status: ('A' for Active; 'I' for Inactive)
REMARK    1  A    between atoms: C_1  and  C_2
REMARK    2  A    between atoms: C_9  and  C_10
REMARK    3  A    between atoms: C_13  and  C_14
REMARK    4  A    between atoms: C_17  and  N_18
REMARK    5  A    between atoms: C_19  and  C_21
REMARK                            x       y       z     vdW  Elec       q    Type
REMARK                         _______ _______ _______ _____ _____    ______ ____
ROOT
ATOM      1  C   UNL     1       2.142   7.182  19.747  0.00  0.00    +0.000 A 
ATOM      2  C   UNL     1       1.561   7.007  20.986  0.00  0.00    +0.000 A 
ATOM      3  S   UNL     1       0.736   8.425  21.452  0.00  0.00    +0.000 S 
ATOM      4  C   UNL     1       1.213   9.191  19.977  0.00  0.00    +0.000 A 
ATOM      5  N   UNL     1       1.904   8.421  19.159  0.00  0.00    +0.000 NA
ENDROOT
BRANCH   1  14
ATOM      6  C   UNL     1       6.698   6.602  16.683  0.00  0.00    +0.000 C 
ATOM      7  C   UNL     1       5.539   5.706  16.282  0.00  0.00    +0.000 C 
ATOM      8  C   UNL     1       6.003   4.249  16.095  0.00  0.00    +0.000 C 
ATOM      9  O   UNL     1       6.839   3.840  15.308  0.00  0.00    +0.000 OA
ATOM     10  N   UNL     1       5.296   3.465  17.002  0.00  0.00    +0.000 N 
ATOM     11  C   UNL     1       4.436   4.232  17.769  0.00  0.00    +0.000 A 
ATOM     12  C   UNL     1       3.616   3.814  18.792  0.00  0.00    +0.000 A 
ATOM     13  C   UNL     1       2.859   4.794  19.448  0.00  0.00    +0.000 A 
ATOM     14  C   UNL     1       2.922   6.155  19.064  0.00  0.00    +0.000 A 
ATOM     15  C   UNL     1       3.770   6.539  18.015  0.00  0.00    +0.000 A 
ATOM     16  C   UNL     1       4.528   5.565  17.386  0.00  0.00    +0.000 A 
ATOM     17  H   UNL     1       5.435   2.469  17.083  0.00  0.00    +0.000 HD
ENDBRANCH   1  14
BRANCH   4  18
ATOM     18  C   UNL     1       0.794  10.575  19.698  0.00  0.00    +0.000 A 
ATOM     19  C   UNL     1      -0.472  11.039  20.073  0.00  0.00    +0.000 A 
ATOM     20  C   UNL     1      -0.896  12.329  19.748  0.00  0.00    +0.000 A 
ATOM     21  C   UNL     1      -0.065  13.201  19.049  0.00  0.00    +0.000 A 
ATOM     22  C   UNL     1       1.216  12.762  18.693  0.00  0.00    +0.000 A 
ATOM     23  C   UNL     1       1.647  11.467  19.031  0.00  0.00    +0.000 A 
BRANCH  21  24
ATOM     24  N   UNL     1      -0.469  14.497  18.664  0.00  0.00    +0.000 N 
ATOM     25  C   UNL     1      -0.224  15.679  19.351  0.00  0.00    +0.000 C 
ATOM     26  O   UNL     1       0.461  15.773  20.366  0.00  0.00    +0.000 OA
ATOM     27  H   UNL     1      -0.968  14.599  17.787  0.00  0.00    +0.000 HD
BRANCH  25  28
ATOM     28  C   UNL     1      -0.831  16.849  18.756  0.00  0.00    +0.000 A 
ATOM     29  C   UNL     1      -1.924  17.590  19.168  0.00  0.00    +0.000 A 
ATOM     30  C   UNL     1      -2.089  18.630  18.228  0.00  0.00    +0.000 A 
ATOM     31  C   UNL     1      -1.098  18.459  17.291  0.00  0.00    +0.000 A 
ATOM     32  O   UNL     1      -0.325  17.382  17.600  0.00  0.00    +0.000 OA
ENDBRANCH  25  28
ENDBRANCH  21  24
ENDBRANCH   4  18
TORSDOF 4
ENDMDL
MODEL 9
REMARK VINA RESULT:      -7.9      3.666      4.931
REMARK  Name = 
REMARK  5 active torsions:
REMARK  status: ('A' for Active; 'I' for Inactive)
REMARK    1  A    between atoms: C_1  and  C_2
REMARK    2  A    between atoms: C_9  and  C_10
REMARK    3  A    between atoms: C_13  and  C_14
REMARK    4  A    between atoms: C_17  and  N_18
REMARK    5  A    between atoms: C_19  and  C_21
REMARK                            x       y       z     vdW  Elec       q    Type
REMARK                         _______ _______ _______ _____ _____    ______ ____
ROOT
ATOM      1  C   UNL     1       4.469   5.164  17.512  0.00  0.00    +0.000 A 
ATOM      2  C   UNL     1       4.253   4.153  18.425  0.00  0.00    +0.000 A 
ATOM      3  S   UNL     1       3.153   4.668  19.622  0.00  0.00    +0.000 S 
ATOM      4  C   UNL     1       3.039   6.214  18.856  0.00  0.00    +0.000 A 
ATOM      5  N   UNL     1       3.739   6.326  17.744  0.00  0.00    +0.000 NA
ENDROOT
BRANCH   1  14
ATOM      6  C   UNL     1       4.435   3.593  12.220  0.00  0.00    +0.000 C 
ATOM      7  C   UNL     1       5.699   3.240  12.984  0.00  0.00    +0.000 C 
ATOM      8  C   UNL     1       6.958   3.639  12.191  0.00  0.00    +0.000 C 
ATOM      9  O   UNL     1       7.286   3.241  11.087  0.00  0.00    +0.000 OA
ATOM     10  N   UNL     1       7.665   4.557  12.960  0.00  0.00    +0.000 N 
ATOM     11  C   UNL     1       7.017   4.818  14.156  0.00  0.00    +0.000 A 
ATOM     12  C   UNL     1       7.389   5.701  15.144  0.00  0.00    +0.000 A 
ATOM     13  C   UNL     1       6.542   5.816  16.254  0.00  0.00    +0.000 A 
ATOM     14  C   UNL     1       5.359   5.044  16.363  0.00  0.00    +0.000 A 
ATOM     15  C   UNL     1       5.017   4.156  15.334  0.00  0.00    +0.000 A 
ATOM     16  C   UNL     1       5.852   4.063  14.232  0.00  0.00    +0.000 A 
ATOM     17  H   UNL     1       8.525   4.982  12.647  0.00  0.00    +0.000 HD
ENDBRANCH   1  14
BRANCH   4  18
ATOM     18  C   UNL     1       2.163   7.254  19.424  0.00  0.00    +0.000 A 
ATOM     19  C   UNL     1       1.906   8.442  18.732  0.00  0.00    +0.000 A 
ATOM     20  C   UNL     1       1.133   9.457  19.298  0.00  0.00    +0.000 A 
ATOM     21  C   UNL     1       0.580   9.312  20.569  0.00  0.00    +0.000 A 
ATOM     22  C   UNL     1       0.803   8.116  21.261  0.00  0.00    +0.000 A 
ATOM     23  C   UNL     1       1.572   7.089  20.685  0.00  0.00    +0.000 A 
BRANCH  21  24
ATOM     24  N   UNL     1      -0.172  10.329  21.194  0.00  0.00    +0.000 N 
ATOM     25  C   UNL     1      -0.288  10.553  22.559  0.00  0.00    +0.000 C 
ATOM     26  O   UNL     1       0.325   9.937  23.427  0.00  0.00    +0.000 OA
ATOM     27  H   UNL     1      -0.665  10.989  20.601  0.00  0.00    +0.000 HD
BRANCH  25  28
ATOM     28  C   UNL     1      -1.194  11.624  22.911  0.00  0.00    +0.000 A 
ATOM     29  C   UNL     1      -1.035  12.993  22.807  0.00  0.00    +0.000 A 
ATOM     30  C   UNL     1      -2.225  13.580  23.289  0.00  0.00    +0.000 A 
ATOM     31  C   UNL     1      -3.037  12.538  23.670  0.00  0.00    +0.000 A 
ATOM     32  O   UNL     1      -2.425  11.344  23.444  0.00  0.00    +0.000 OA
ENDBRANCH  25  28
ENDBRANCH  21  24
ENDBRANCH   4  18
TORSDOF 4
ENDMDL
