MODEL 1
REMARK VINA RESULT:      -7.3      0.000      0.000
REMARK  Name = 
REMARK  9 active torsions:
REMARK  status: ('A' for Active; 'I' for Inactive)
REMARK    1  A    between atoms: C_1  and  C_2
REMARK    2  A    between atoms: C_2  and  C_3
REMARK    3  A    between atoms: C_3  and  C_4
REMARK    4  A    between atoms: C_4  and  C_5
REMARK    5  A    between atoms: C_5  and  C_6
REMARK    6  A    between atoms: C_6  and  C_7
REMARK    7  A    between atoms: C_7  and  C_8
REMARK    8  A    between atoms: N_9  and  N_10
REMARK    9  A    between atoms: C_13  and  C_14
REMARK                            x       y       z     vdW  Elec       q    Type
REMARK                         _______ _______ _______ _____ _____    ______ ____
ROOT
ATOM      1  N   UNL     1       5.818   5.151  15.007  0.00  0.00    +0.000 N 
ATOM      2  C   UNL     1       4.978   5.186  16.076  0.00  0.00    +0.000 A 
ATOM      3  N   UNL     1       4.467   6.296  16.564  0.00  0.00    +0.000 NA
ATOM      4  C   UNL     1       3.639   6.010  17.641  0.00  0.00    +0.000 A 
ATOM      5  C   UNL     1       3.569   4.676  17.986  0.00  0.00    +0.000 A 
ATOM      6  S   UNL     1       4.508   3.745  16.908  0.00  0.00    +0.000 S 
ATOM      7  H   UNL     1       6.031   6.065  14.623  0.00  0.00    +0.000 HD
ENDROOT
BRANCH   4   8
ATOM      8  C   UNL     1       2.887   7.051  18.328  0.00  0.00    +0.000 A 
ATOM      9  C   UNL     1       2.562   8.235  17.651  0.00  0.00    +0.000 A 
ATOM     10  C   UNL     1       1.825   9.240  18.285  0.00  0.00    +0.000 A 
ATOM     11  C   UNL     1       1.415   9.062  19.606  0.00  0.00    +0.000 A 
ATOM     12 CL   UNL     1       0.517  10.299  20.395  0.00  0.00    +0.000 Cl
ATOM     13  C   UNL     1       1.731   7.895  20.295  0.00  0.00    +0.000 A 
ATOM     14  C   UNL     1       2.464   6.889  19.656  0.00  0.00    +0.000 A 
ENDBRANCH   4   8
BRANCH   1  17
ATOM     15  C   UNL     1       6.674   4.082  13.163  0.00  0.00    +0.000 C 
ATOM     16  C   UNL     1       7.578   5.242  12.833  0.00  0.00    +0.000 C 
ATOM     17  N   UNL     1       5.885   4.052  14.195  0.00  0.00    +0.000 NA
BRANCH  15  18
ATOM     18  C   UNL     1       6.632   2.869  12.249  0.00  0.00    +0.000 C 
BRANCH  18  19
ATOM     19  C   UNL     1       5.265   2.570  11.647  0.00  0.00    +0.000 C 
BRANCH  19  20
ATOM     20  C   UNL     1       4.541   3.813  11.127  0.00  0.00    +0.000 C 
BRANCH  20  21
ATOM     21  C   UNL     1       3.193   3.415  10.524  0.00  0.00    +0.000 C 
BRANCH  21  23
ATOM     22  C   UNL     1       2.041   5.128   9.095  0.00  0.00    +0.000 C 
ATOM     23  C   UNL     1       3.018   3.962   9.109  0.00  0.00    +0.000 C 
ENDBRANCH  21  23
ENDBRANCH  20  21
ENDBRANCH  19  20
ENDBRANCH  18  19
ENDBRANCH  15  18
ENDBRANCH   1  17
TORSDOF 7
ENDMDL
MODEL 2
REMARK VINA RESULT:      -7.0      2.011      3.055
REMARK  Name = 
REMARK  9 active torsions:
REMARK  status: ('A' for Active; 'I' for Inactive)
REMARK    1  A    between atoms: C_1  and  C_2
REMARK    2  A    between atoms: C_2  and  C_3
REMARK    3  A    between atoms: C_3  and  C_4
REMARK    4  A    between atoms: C_4  and  C_5
REMARK    5  A    between atoms: C_5  and  C_6
REMARK    6  A    between atoms: C_6  and  C_7
REMARK    7  A    between atoms: C_7  and  C_8
REMARK    8  A    between atoms: N_9  and  N_10
REMARK    9  A    between atoms: C_13  and  C_14
REMARK                            x       y       z     vdW  Elec       q    Type
REMARK                         _______ _______ _______ _____ _____    ______ ____
ROOT
ATOM      1  N   UNL     1       5.017   6.465  16.503  0.00  0.00    +0.000 N 
ATOM      2  C   UNL     1       4.060   6.443  17.470  0.00  0.00    +0.000 A 
ATOM      3  N   UNL     1       3.509   7.526  17.974  0.00  0.00    +0.000 NA
ATOM      4  C   UNL     1       2.560   7.182  18.927  0.00  0.00    +0.000 A 
ATOM      5  C   UNL     1       2.436   5.830  19.167  0.00  0.00    +0.000 A 
ATOM      6  S   UNL     1       3.480   4.957  18.139  0.00  0.00    +0.000 S 
ATOM      7  H   UNL     1       5.283   7.398  16.211  0.00  0.00    +0.000 HD
ENDROOT
BRANCH   4   8
ATOM      8  C   UNL     1       1.746   8.188  19.596  0.00  0.00    +0.000 A 
ATOM      9  C   UNL     1       1.410   8.025  20.947  0.00  0.00    +0.000 A 
ATOM     10  C   UNL     1       0.644   8.986  21.613  0.00  0.00    +0.000 A 
ATOM     11  C   UNL     1       0.207  10.116  20.922  0.00  0.00    +0.000 A 
ATOM     12 CL   UNL     1      -0.743  11.298  21.733  0.00  0.00    +0.000 Cl
ATOM     13  C   UNL     1       0.528  10.294  19.580  0.00  0.00    +0.000 A 
ATOM     14  C   UNL     1       1.299   9.332  18.918  0.00  0.00    +0.000 A 
ENDBRANCH   4   8
BRANCH   1  17
ATOM     15  C   UNL     1       6.227   4.682  15.709  0.00  0.00    +0.000 C 
ATOM     16  C   UNL     1       7.295   4.860  16.758  0.00  0.00    +0.000 C 
ATOM     17  N   UNL     1       5.164   5.423  15.629  0.00  0.00    +0.000 NA
BRANCH  15  18
ATOM     18  C   UNL     1       6.378   3.602  14.651  0.00  0.00    +0.000 C 
BRANCH  18  19
ATOM     19  C   UNL     1       5.603   3.858  13.364  0.00  0.00    +0.000 C 
BRANCH  19  20
ATOM     20  C   UNL     1       6.333   3.383  12.107  0.00  0.00    +0.000 C 
BRANCH  20  21
ATOM     21  C   UNL     1       5.619   2.163  11.522  0.00  0.00    +0.000 C 
BRANCH  21  23
ATOM     22  C   UNL     1       6.093  -0.293  11.308  0.00  0.00    +0.000 C 
ATOM     23  C   UNL     1       6.605   1.110  11.023  0.00  0.00    +0.000 C 
ENDBRANCH  21  23
ENDBRANCH  20  21
ENDBRANCH  19  20
ENDBRANCH  18  19
ENDBRANCH  15  18
ENDBRANCH   1  17
TORSDOF 7
ENDMDL
MODEL 3
REMARK VINA RESULT:      -6.9      4.218      6.276
REMARK  Name = 
REMARK  9 active torsions:
REMARK  status: ('A' for Active; 'I' for Inactive)
REMARK    1  A    between atoms: C_1  and  C_2
REMARK    2  A    between atoms: C_2  and  C_3
REMARK    3  A    between atoms: C_3  and  C_4
REMARK    4  A    between atoms: C_4  and  C_5
REMARK    5  A    between atoms: C_5  and  C_6
REMARK    6  A    between atoms: C_6  and  C_7
REMARK    7  A    between atoms: C_7  and  C_8
REMARK    8  A    between atoms: N_9  and  N_10
REMARK    9  A    between atoms: C_13  and  C_14
REMARK                            x       y       z     vdW  Elec       q    Type
REMARK                         _______ _______ _______ _____ _____    ______ ____
ROOT
ATOM      1  N   UNL     1       2.655   6.133  20.007  0.00  0.00    +0.000 N 
ATOM      2  C   UNL     1       2.125   7.364  19.775  0.00  0.00    +0.000 A 
ATOM      3  N   UNL     1       1.490   8.066  20.688  0.00  0.00    +0.000 NA
ATOM      4  C   UNL     1       1.079   9.282  20.158  0.00  0.00    +0.000 A 
ATOM      5  C   UNL     1       1.372   9.466  18.823  0.00  0.00    +0.000 A 
ATOM      6  S   UNL     1       2.233   8.121  18.224  0.00  0.00    +0.000 S 
ATOM      7  H   UNL     1       2.505   5.792  20.949  0.00  0.00    +0.000 HD
ENDROOT
BRANCH   4   8
ATOM      8  C   UNL     1       0.413  10.288  20.974  0.00  0.00    +0.000 A 
ATOM      9  C   UNL     1      -0.275   9.900  22.133  0.00  0.00    +0.000 A 
ATOM     10  C   UNL     1      -0.907  10.851  22.940  0.00  0.00    +0.000 A 
ATOM     11  C   UNL     1      -0.855  12.198  22.583  0.00  0.00    +0.000 A 
ATOM     12 CL   UNL     1      -1.639  13.372  23.566  0.00  0.00    +0.000 Cl
ATOM     13  C   UNL     1      -0.181  12.601  21.435  0.00  0.00    +0.000 A 
ATOM     14  C   UNL     1       0.455  11.648  20.632  0.00  0.00    +0.000 A 
ENDBRANCH   4   8
BRANCH   1  17
ATOM     15  C   UNL     1       3.567   4.707  18.454  0.00  0.00    +0.000 C 
ATOM     16  C   UNL     1       2.231   4.074  18.160  0.00  0.00    +0.000 C 
ATOM     17  N   UNL     1       3.734   5.681  19.296  0.00  0.00    +0.000 NA
BRANCH  15  18
ATOM     18  C   UNL     1       4.819   4.188  17.768  0.00  0.00    +0.000 C 
BRANCH  18  19
ATOM     19  C   UNL     1       5.028   4.702  16.349  0.00  0.00    +0.000 C 
BRANCH  19  20
ATOM     20  C   UNL     1       5.758   6.044  16.286  0.00  0.00    +0.000 C 
BRANCH  20  21
ATOM     21  C   UNL     1       7.195   5.877  16.782  0.00  0.00    +0.000 C 
BRANCH  21  23
ATOM     22  C   UNL     1       7.804   8.169  17.608  0.00  0.00    +0.000 C 
ATOM     23  C   UNL     1       7.477   6.739  18.010  0.00  0.00    +0.000 C 
ENDBRANCH  21  23
ENDBRANCH  20  21
ENDBRANCH  19  20
ENDBRANCH  18  19
ENDBRANCH  15  18
ENDBRANCH   1  17
TORSDOF 7
ENDMDL
MODEL 4
REMARK VINA RESULT:      -6.8      3.036      5.395
REMARK  Name = 
REMARK  9 active torsions:
REMARK  status: ('A' for Active; 'I' for Inactive)
REMARK    1  A    between atoms: C_1  and  C_2
REMARK    2  A    between atoms: C_2  and  C_3
REMARK    3  A    between atoms: C_3  and  C_4
REMARK    4  A    between atoms: C_4  and  C_5
REMARK    5  A    between atoms: C_5  and  C_6
REMARK    6  A    between atoms: C_6  and  C_7
REMARK    7  A    between atoms: C_7  and  C_8
REMARK    8  A    between atoms: N_9  and  N_10
REMARK    9  A    between atoms: C_13  and  C_14
REMARK                            x       y       z     vdW  Elec       q    Type
REMARK                         _______ _______ _______ _____ _____    ______ ____
ROOT
ATOM      1  N   UNL     1       2.781   6.133  19.948  0.00  0.00    +0.000 N 
ATOM      2  C   UNL     1       2.166   7.329  19.747  0.00  0.00    +0.000 A 
ATOM      3  N   UNL     1       1.438   7.935  20.660  0.00  0.00    +0.000 NA
ATOM      4  C   UNL     1       0.957   9.140  20.167  0.00  0.00    +0.000 A 
ATOM      5  C   UNL     1       1.293   9.412  18.858  0.00  0.00    +0.000 A 
ATOM      6  S   UNL     1       2.284   8.169  18.240  0.00  0.00    +0.000 S 
ATOM      7  H   UNL     1       2.617   5.735  20.866  0.00  0.00    +0.000 HD
ENDROOT
BRANCH   4   8
ATOM      8  C   UNL     1       0.177  10.051  20.995  0.00  0.00    +0.000 A 
ATOM      9  C   UNL     1      -0.344  11.226  20.435  0.00  0.00    +0.000 A 
ATOM     10  C   UNL     1      -1.109  12.106  21.207  0.00  0.00    +0.000 A 
ATOM     11  C   UNL     1      -1.351  11.810  22.548  0.00  0.00    +0.000 A 
ATOM     12 CL   UNL     1      -2.285  12.893  23.506  0.00  0.00    +0.000 Cl
ATOM     13  C   UNL     1      -0.839  10.651  23.122  0.00  0.00    +0.000 A 
ATOM     14  C   UNL     1      -0.078   9.770  22.346  0.00  0.00    +0.000 A 
ENDBRANCH   4   8
BRANCH   1  17
ATOM     15  C   UNL     1       3.861   4.893  18.344  0.00  0.00    +0.000 C 
ATOM     16  C   UNL     1       2.583   4.216  17.919  0.00  0.00    +0.000 C 
ATOM     17  N   UNL     1       3.923   5.801  19.271  0.00  0.00    +0.000 NA
BRANCH  15  18
ATOM     18  C   UNL     1       5.178   4.502  17.696  0.00  0.00    +0.000 C 
BRANCH  18  19
ATOM     19  C   UNL     1       5.376   5.034  16.282  0.00  0.00    +0.000 C 
BRANCH  19  20
ATOM     20  C   UNL     1       6.846   5.191  15.888  0.00  0.00    +0.000 C 
BRANCH  20  21
ATOM     21  C   UNL     1       7.023   4.865  14.404  0.00  0.00    +0.000 C 
BRANCH  21  23
ATOM     22  C   UNL     1       6.224   3.493  12.459  0.00  0.00    +0.000 C 
ATOM     23  C   UNL     1       5.966   3.882  13.906  0.00  0.00    +0.000 C 
ENDBRANCH  21  23
ENDBRANCH  20  21
ENDBRANCH  19  20
ENDBRANCH  18  19
ENDBRANCH  15  18
ENDBRANCH   1  17
TORSDOF 7
ENDMDL
MODEL 5
REMARK VINA RESULT:      -6.8      2.564      4.701
REMARK  Name = 
REMARK  9 active torsions:
REMARK  status: ('A' for Active; 'I' for Inactive)
REMARK    1  A    between atoms: C_1  and  C_2
REMARK    2  A    between atoms: C_2  and  C_3
REMARK    3  A    between atoms: C_3  and  C_4
REMARK    4  A    between atoms: C_4  and  C_5
REMARK    5  A    between atoms: C_5  and  C_6
REMARK    6  A    between atoms: C_6  and  C_7
REMARK    7  A    between atoms: C_7  and  C_8
REMARK    8  A    between atoms: N_9  and  N_10
REMARK    9  A    between atoms: C_13  and  C_14
REMARK                            x       y       z     vdW  Elec       q    Type
REMARK                         _______ _______ _______ _____ _____    ______ ____
ROOT
ATOM      1  N   UNL     1       3.249   5.809  19.228  0.00  0.00    +0.000 N 
ATOM      2  C   UNL     1       2.585   6.993  19.138  0.00  0.00    +0.000 A 
ATOM      3  N   UNL     1       1.840   7.484  20.104  0.00  0.00    +0.000 NA
ATOM      4  C   UNL     1       1.307   8.708  19.723  0.00  0.00    +0.000 A 
ATOM      5  C   UNL     1       1.622   9.109  18.442  0.00  0.00    +0.000 A 
ATOM      6  S   UNL     1       2.658   7.967  17.711  0.00  0.00    +0.000 S 
ATOM      7  H   UNL     1       3.108   5.325  20.107  0.00  0.00    +0.000 HD
ENDROOT
BRANCH   4   8
ATOM      8  C   UNL     1       0.498   9.508  20.632  0.00  0.00    +0.000 A 
ATOM      9  C   UNL     1       0.260   9.051  21.936  0.00  0.00    +0.000 A 
ATOM     10  C   UNL     1      -0.500   9.812  22.831  0.00  0.00    +0.000 A 
ATOM     11  C   UNL     1      -1.028  11.034  22.418  0.00  0.00    +0.000 A 
ATOM     12 CL   UNL     1      -1.970  11.970  23.511  0.00  0.00    +0.000 Cl
ATOM     13  C   UNL     1      -0.805  11.502  21.127  0.00  0.00    +0.000 A 
ATOM     14  C   UNL     1      -0.040  10.742  20.235  0.00  0.00    +0.000 A 
ENDBRANCH   4   8
BRANCH   1  17
ATOM     15  C   UNL     1       4.443   4.581  17.697  0.00  0.00    +0.000 C 
ATOM     16  C   UNL     1       3.273   3.670  17.424  0.00  0.00    +0.000 C 
ATOM     17  N   UNL     1       4.398   5.585  18.519  0.00  0.00    +0.000 NA
BRANCH  15  18
ATOM     18  C   UNL     1       5.775   4.330  17.012  0.00  0.00    +0.000 C 
BRANCH  18  19
ATOM     19  C   UNL     1       5.989   5.117  15.725  0.00  0.00    +0.000 C 
BRANCH  19  20
ATOM     20  C   UNL     1       5.476   4.399  14.477  0.00  0.00    +0.000 C 
BRANCH  20  21
ATOM     21  C   UNL     1       6.587   4.323  13.428  0.00  0.00    +0.000 C 
BRANCH  21  23
ATOM     22  C   UNL     1       4.815   3.391  11.912  0.00  0.00    +0.000 C 
ATOM     23  C   UNL     1       6.272   3.301  12.338  0.00  0.00    +0.000 C 
ENDBRANCH  21  23
ENDBRANCH  20  21
ENDBRANCH  19  20
ENDBRANCH  18  19
ENDBRANCH  15  18
ENDBRANCH   1  17
TORSDOF 7
ENDMDL
MODEL 6
REMARK VINA RESULT:      -6.8      5.204      6.967
REMARK  Name = 
REMARK  9 active torsions:
REMARK  status: ('A' for Active; 'I' for Inactive)
REMARK    1  A    between atoms: C_1  and  C_2
REMARK    2  A    between atoms: C_2  and  C_3
REMARK    3  A    between atoms: C_3  and  C_4
REMARK    4  A    between atoms: C_4  and  C_5
REMARK    5  A    between atoms: C_5  and  C_6
REMARK    6  A    between atoms: C_6  and  C_7
REMARK    7  A    between atoms: C_7  and  C_8
REMARK    8  A    between atoms: N_9  and  N_10
REMARK    9  A    between atoms: C_13  and  C_14
REMARK                            x       y       z     vdW  Elec       q    Type
REMARK                         _______ _______ _______ _____ _____    ______ ____
ROOT
ATOM      1  N   UNL     1       5.823   6.685  16.450  0.00  0.00    +0.000 N 
ATOM      2  C   UNL     1       6.783   7.196  17.267  0.00  0.00    +0.000 A 
ATOM      3  N   UNL     1       7.185   8.448  17.224  0.00  0.00    +0.000 NA
ATOM      4  C   UNL     1       8.160   8.671  18.187  0.00  0.00    +0.000 A 
ATOM      5  C   UNL     1       8.520   7.562  18.923  0.00  0.00    +0.000 A 
ATOM      6  S   UNL     1       7.580   6.219  18.451  0.00  0.00    +0.000 S 
ATOM      7  H   UNL     1       5.450   7.355  15.787  0.00  0.00    +0.000 HD
ENDROOT
BRANCH   4   8
ATOM      8  C   UNL     1       8.732   9.993  18.407  0.00  0.00    +0.000 A 
ATOM      9  C   UNL     1       8.372  11.055  17.565  0.00  0.00    +0.000 A 
ATOM     10  C   UNL     1       8.894  12.336  17.768  0.00  0.00    +0.000 A 
ATOM     11  C   UNL     1       9.787  12.555  18.817  0.00  0.00    +0.000 A 
ATOM     12 CL   UNL     1      10.441  14.126  19.067  0.00  0.00    +0.000 Cl
ATOM     13  C   UNL     1      10.158  11.512  19.661  0.00  0.00    +0.000 A 
ATOM     14  C   UNL     1       9.629  10.233  19.458  0.00  0.00    +0.000 A 
ENDBRANCH   4   8
BRANCH   1  17
ATOM     15  C   UNL     1       5.012   4.565  16.100  0.00  0.00    +0.000 C 
ATOM     16  C   UNL     1       5.833   4.392  14.847  0.00  0.00    +0.000 C 
ATOM     17  N   UNL     1       5.046   5.630  16.842  0.00  0.00    +0.000 NA
BRANCH  15  18
ATOM     18  C   UNL     1       4.059   3.467  16.539  0.00  0.00    +0.000 C 
BRANCH  18  19
ATOM     19  C   UNL     1       3.393   3.703  17.889  0.00  0.00    +0.000 C 
BRANCH  19  20
ATOM     20  C   UNL     1       1.878   3.891  17.798  0.00  0.00    +0.000 C 
BRANCH  20  21
ATOM     21  C   UNL     1       1.168   2.729  18.495  0.00  0.00    +0.000 C 
BRANCH  21  23
ATOM     22  C   UNL     1       1.043   4.233  20.501  0.00  0.00    +0.000 C 
ATOM     23  C   UNL     1       1.293   2.814  20.014  0.00  0.00    +0.000 C 
ENDBRANCH  21  23
ENDBRANCH  20  21
ENDBRANCH  19  20
ENDBRANCH  18  19
ENDBRANCH  15  18
ENDBRANCH   1  17
TORSDOF 7
ENDMDL
MODEL 7
REMARK VINA RESULT:      -6.7      5.196      7.389
REMARK  Name = 
REMARK  9 active torsions:
REMARK  status: ('A' for Active; 'I' for Inactive)
REMARK    1  A    between atoms: C_1  and  C_2
REMARK    2  A    between atoms: C_2  and  C_3
REMARK    3  A    between atoms: C_3  and  C_4
REMARK    4  A    between atoms: C_4  and  C_5
REMARK    5  A    between atoms: C_5  and  C_6
REMARK    6  A    between atoms: C_6  and  C_7
REMARK    7  A    between atoms: C_7  and  C_8
REMARK    8  A    between atoms: N_9  and  N_10
REMARK    9  A    between atoms: C_13  and  C_14
REMARK                            x       y       z     vdW  Elec       q    Type
REMARK                         _______ _______ _______ _____ _____    ______ ____
ROOT
ATOM      1  N   UNL     1       5.816   6.666  16.357  0.00  0.00    +0.000 N 
ATOM      2  C   UNL     1       6.762   7.145  17.209  0.00  0.00    +0.000 A 
ATOM      3  N   UNL     1       7.184   8.392  17.201  0.00  0.00    +0.000 NA
ATOM      4  C   UNL     1       8.137   8.581  18.193  0.00  0.00    +0.000 A 
ATOM      5  C   UNL     1       8.459   7.453  18.917  0.00  0.00    +0.000 A 
ATOM      6  S   UNL     1       7.512   6.134  18.395  0.00  0.00    +0.000 S 
ATOM      7  H   UNL     1       5.472   7.354  15.697  0.00  0.00    +0.000 HD
ENDROOT
BRANCH   4   8
ATOM      8  C   UNL     1       8.722   9.889  18.453  0.00  0.00    +0.000 A 
ATOM      9  C   UNL     1       8.460  10.954  17.579  0.00  0.00    +0.000 A 
ATOM     10  C   UNL     1       8.998  12.223  17.819  0.00  0.00    +0.000 A 
ATOM     11  C   UNL     1       9.806  12.426  18.937  0.00  0.00    +0.000 A 
ATOM     12 CL   UNL     1      10.478  13.982  19.233  0.00  0.00    +0.000 Cl
ATOM     13  C   UNL     1      10.080  11.380  19.813  0.00  0.00    +0.000 A 
ATOM     14  C   UNL     1       9.536  10.114  19.573  0.00  0.00    +0.000 A 
ENDBRANCH   4   8
BRANCH   1  17
ATOM     15  C   UNL     1       3.914   5.856  17.357  0.00  0.00    +0.000 C 
ATOM     16  C   UNL     1       3.429   7.242  17.697  0.00  0.00    +0.000 C 
ATOM     17  N   UNL     1       5.013   5.616  16.708  0.00  0.00    +0.000 NA
BRANCH  15  18
ATOM     18  C   UNL     1       3.115   4.643  17.801  0.00  0.00    +0.000 C 
BRANCH  18  19
ATOM     19  C   UNL     1       3.931   3.368  17.970  0.00  0.00    +0.000 C 
BRANCH  19  20
ATOM     20  C   UNL     1       3.268   2.334  18.881  0.00  0.00    +0.000 C 
BRANCH  20  21
ATOM     21  C   UNL     1       3.694   2.569  20.331  0.00  0.00    +0.000 C 
BRANCH  21  23
ATOM     22  C   UNL     1       1.212   2.926  20.449  0.00  0.00    +0.000 C 
ATOM     23  C   UNL     1       2.493   2.768  21.252  0.00  0.00    +0.000 C 
ENDBRANCH  21  23
ENDBRANCH  20  21
ENDBRANCH  19  20
ENDBRANCH  18  19
ENDBRANCH  15  18
ENDBRANCH   1  17
TORSDOF 7
ENDMDL
MODEL 8
REMARK VINA RESULT:      -6.7      4.326      6.437
REMARK  Name = 
REMARK  9 active torsions:
REMARK  status: ('A' for Active; 'I' for Inactive)
REMARK    1  A    between atoms: C_1  and  C_2
REMARK    2  A    between atoms: C_2  and  C_3
REMARK    3  A    between atoms: C_3  and  C_4
REMARK    4  A    between atoms: C_4  and  C_5
REMARK    5  A    between atoms: C_5  and  C_6
REMARK    6  A    between atoms: C_6  and  C_7
REMARK    7  A    between atoms: C_7  and  C_8
REMARK    8  A    between atoms: N_9  and  N_10
REMARK    9  A    between atoms: C_13  and  C_14
REMARK                            x       y       z     vdW  Elec       q    Type
REMARK                         _______ _______ _______ _____ _____    ______ ____
ROOT
ATOM      1  N   UNL     1       2.539   6.497  20.048  0.00  0.00    +0.000 N 
ATOM      2  C   UNL     1       1.988   7.721  19.831  0.00  0.00    +0.000 A 
ATOM      3  N   UNL     1       1.407   8.436  20.771  0.00  0.00    +0.000 NA
ATOM      4  C   UNL     1       0.956   9.640  20.248  0.00  0.00    +0.000 A 
ATOM      5  C   UNL     1       1.163   9.804  18.895  0.00  0.00    +0.000 A 
ATOM      6  S   UNL     1       1.994   8.454  18.264  0.00  0.00    +0.000 S 
ATOM      7  H   UNL     1       2.451   6.171  21.004  0.00  0.00    +0.000 HD
ENDROOT
BRANCH   4   8
ATOM      8  C   UNL     1       0.336  10.656  21.088  0.00  0.00    +0.000 A 
ATOM      9  C   UNL     1       0.556  12.013  20.814  0.00  0.00    +0.000 A 
ATOM     10  C   UNL     1      -0.043  13.005  21.596  0.00  0.00    +0.000 A 
ATOM     11  C   UNL     1      -0.864  12.637  22.662  0.00  0.00    +0.000 A 
ATOM     12 CL   UNL     1      -1.597  13.852  23.634  0.00  0.00    +0.000 Cl
ATOM     13  C   UNL     1      -1.091  11.295  22.951  0.00  0.00    +0.000 A 
ATOM     14  C   UNL     1      -0.494  10.305  22.163  0.00  0.00    +0.000 A 
ENDBRANCH   4   8
BRANCH   1  17
ATOM     15  C   UNL     1       3.338   5.122  18.391  0.00  0.00    +0.000 C 
ATOM     16  C   UNL     1       1.966   4.566  18.107  0.00  0.00    +0.000 C 
ATOM     17  N   UNL     1       3.574   6.040  19.279  0.00  0.00    +0.000 NA
BRANCH  15  18
ATOM     18  C   UNL     1       4.543   4.589  17.636  0.00  0.00    +0.000 C 
BRANCH  18  19
ATOM     19  C   UNL     1       4.830   5.291  16.314  0.00  0.00    +0.000 C 
BRANCH  19  20
ATOM     20  C   UNL     1       5.935   6.344  16.408  0.00  0.00    +0.000 C 
BRANCH  20  21
ATOM     21  C   UNL     1       7.138   5.768  17.157  0.00  0.00    +0.000 C 
BRANCH  21  23
ATOM     22  C   UNL     1       7.820   8.128  17.677  0.00  0.00    +0.000 C 
ATOM     23  C   UNL     1       7.650   6.722  18.233  0.00  0.00    +0.000 C 
ENDBRANCH  21  23
ENDBRANCH  20  21
ENDBRANCH  19  20
ENDBRANCH  18  19
ENDBRANCH  15  18
ENDBRANCH   1  17
TORSDOF 7
ENDMDL
MODEL 9
REMARK VINA RESULT:      -6.7      6.691      9.759
REMARK  Name = 
REMARK  9 active torsions:
REMARK  status: ('A' for Active; 'I' for Inactive)
REMARK    1  A    between atoms: C_1  and  C_2
REMARK    2  A    between atoms: C_2  and  C_3
REMARK    3  A    between atoms: C_3  and  C_4
REMARK    4  A    between atoms: C_4  and  C_5
REMARK    5  A    between atoms: C_5  and  C_6
REMARK    6  A    between atoms: C_6  and  C_7
REMARK    7  A    between atoms: C_7  and  C_8
REMARK    8  A    between atoms: N_9  and  N_10
REMARK    9  A    between atoms: C_13  and  C_14
REMARK                            x       y       z     vdW  Elec       q    Type
REMARK                         _______ _______ _______ _____ _____    ______ ____
ROOT
ATOM      1  N   UNL     1       7.897   8.892  17.940  0.00  0.00    +0.000 N 
ATOM      2  C   UNL     1       7.655   7.582  17.665  0.00  0.00    +0.000 A 
ATOM      3  N   UNL     1       7.209   7.152  16.504  0.00  0.00    +0.000 NA
ATOM      4  C   UNL     1       7.075   5.771  16.524  0.00  0.00    +0.000 A 
ATOM      5  C   UNL     1       7.381   5.171  17.727  0.00  0.00    +0.000 A 
ATOM      6  S   UNL     1       7.908   6.345  18.847  0.00  0.00    +0.000 S 
ATOM      7  H   UNL     1       7.689   9.518  17.171  0.00  0.00    +0.000 HD
ENDROOT
BRANCH   4   8
ATOM      8  C   UNL     1       6.665   5.023  15.343  0.00  0.00    +0.000 A 
ATOM      9  C   UNL     1       7.431   5.102  14.170  0.00  0.00    +0.000 A 
ATOM     10  C   UNL     1       7.066   4.379  13.030  0.00  0.00    +0.000 A 
ATOM     11  C   UNL     1       5.926   3.577  13.061  0.00  0.00    +0.000 A 
ATOM     12 CL   UNL     1       5.466   2.693  11.659  0.00  0.00    +0.000 Cl
ATOM     13  C   UNL     1       5.152   3.489  14.214  0.00  0.00    +0.000 A 
ATOM     14  C   UNL     1       5.523   4.209  15.355  0.00  0.00    +0.000 A 
ENDBRANCH   4   8
BRANCH   1  17
ATOM     15  C   UNL     1       9.265  10.485  18.871  0.00  0.00    +0.000 C 
ATOM     16  C   UNL     1       8.745  11.558  17.948  0.00  0.00    +0.000 C 
ATOM     17  N   UNL     1       8.835   9.259  18.866  0.00  0.00    +0.000 NA
BRANCH  15  18
ATOM     18  C   UNL     1      10.373  10.806  19.858  0.00  0.00    +0.000 C 
BRANCH  18  19
ATOM     19  C   UNL     1      10.202  12.124  20.603  0.00  0.00    +0.000 C 
BRANCH  19  20
ATOM     20  C   UNL     1      11.225  13.189  20.205  0.00  0.00    +0.000 C 
BRANCH  20  21
ATOM     21  C   UNL     1      12.298  12.568  19.309  0.00  0.00    +0.000 C 
BRANCH  21  23
ATOM     22  C   UNL     1      11.366  14.354  17.809  0.00  0.00    +0.000 C 
ATOM     23  C   UNL     1      12.223  13.099  17.879  0.00  0.00    +0.000 C 
ENDBRANCH  21  23
ENDBRANCH  20  21
ENDBRANCH  19  20
ENDBRANCH  18  19
ENDBRANCH  15  18
ENDBRANCH   1  17
TORSDOF 7
ENDMDL
