MODEL 1
REMARK VINA RESULT:      -7.2      0.000      0.000
REMARK  Name = 
REMARK  9 active torsions:
REMARK  status: ('A' for Active; 'I' for Inactive)
REMARK    1  A    between atoms: C_1  and  N_2
REMARK    2  A    between atoms: N_2  and  C_3
REMARK    3  A    between atoms: C_9  and  C_10
REMARK    4  A    between atoms: C_10  and  C_12
REMARK    5  A    between atoms: C_13  and  C_14
REMARK    6  A    between atoms: C_18  and  O_19
REMARK    7  A    between atoms: O_19  and  C_20
REMARK    8  A    between atoms: C_21  and  O_22
REMARK    9  A    between atoms: O_22  and  C_23
REMARK                            x       y       z     vdW  Elec       q    Type
REMARK                         _______ _______ _______ _____ _____    ______ ____
ROOT
ATOM      1  C   UNL     1       1.607   9.512  18.185  0.00  0.00    +0.000 C 
ATOM      2  O   UNL     1       2.409  10.149  17.471  0.00  0.00    +0.000 OA
ENDROOT
BRANCH   1   9
ATOM      3  C   UNL     1      -1.993  11.577  18.927  0.00  0.00    +0.000 A 
ATOM      4  C   UNL     1      -2.005  12.029  20.204  0.00  0.00    +0.000 A 
ATOM      5  C   UNL     1      -1.037  11.596  21.176  0.00  0.00    +0.000 A 
ATOM      6  C   UNL     1       0.240  11.815  20.830  0.00  0.00    +0.000 A 
ATOM      7 BR   UNL     1       0.901  13.535  20.415  0.00  0.00    +0.000 Br
ATOM      8  C   UNL     1       0.882  10.781  20.056  0.00  0.00    +0.000 A 
ATOM      9  C   UNL     1       0.462  10.302  18.855  0.00  0.00    +0.000 A 
ATOM     10  C   UNL     1      -0.937  10.577  18.306  0.00  0.00    +0.000 A 
ATOM     11  O   UNL     1      -1.325   9.960  17.308  0.00  0.00    +0.000 OA
BRANCH   3  13
ATOM     12  C   UNL     1      -4.439  11.533  18.157  0.00  0.00    +0.000 C 
ATOM     13  N   UNL     1      -3.043  11.911  18.069  0.00  0.00    +0.000 N 
ATOM     14  H   UNL     1      -2.778  12.562  17.333  0.00  0.00    +0.000 HD
ENDBRANCH   3  13
ENDBRANCH   1   9
BRANCH   1  15
ATOM     15  C   UNL     1       1.921   8.027  18.183  0.00  0.00    +0.000 C 
ATOM     16  C   UNL     1       2.872   7.245  18.697  0.00  0.00    +0.000 C 
BRANCH  16  17
ATOM     17  C   UNL     1       3.066   5.767  18.506  0.00  0.00    +0.000 A 
ATOM     18  C   UNL     1       2.026   5.092  17.833  0.00  0.00    +0.000 A 
ATOM     19  C   UNL     1       1.961   3.695  17.791  0.00  0.00    +0.000 A 
ATOM     20  C   UNL     1       2.941   2.941  18.437  0.00  0.00    +0.000 A 
ATOM     21  C   UNL     1       4.020   3.563  19.055  0.00  0.00    +0.000 A 
ATOM     22  C   UNL     1       4.109   4.974  19.087  0.00  0.00    +0.000 A 
BRANCH  21  23
ATOM     23  O   UNL     1       4.864   2.618  19.607  0.00  0.00    +0.000 OA
ATOM     24  C   UNL     1       4.485   1.885  20.764  0.00  0.00    +0.000 C 
ENDBRANCH  21  23
BRANCH  22  25
ATOM     25  O   UNL     1       5.268   5.478  19.621  0.00  0.00    +0.000 OA
ATOM     26  C   UNL     1       6.408   5.571  18.784  0.00  0.00    +0.000 C 
ENDBRANCH  22  25
ENDBRANCH  16  17
ENDBRANCH   1  15
TORSDOF 6
ENDMDL
MODEL 2
REMARK VINA RESULT:      -7.2      1.201      1.283
REMARK  Name = 
REMARK  9 active torsions:
REMARK  status: ('A' for Active; 'I' for Inactive)
REMARK    1  A    between atoms: C_1  and  N_2
REMARK    2  A    between atoms: N_2  and  C_3
REMARK    3  A    between atoms: C_9  and  C_10
REMARK    4  A    between atoms: C_10  and  C_12
REMARK    5  A    between atoms: C_13  and  C_14
REMARK    6  A    between atoms: C_18  and  O_19
REMARK    7  A    between atoms: O_19  and  C_20
REMARK    8  A    between atoms: C_21  and  O_22
REMARK    9  A    between atoms: O_22  and  C_23
REMARK                            x       y       z     vdW  Elec       q    Type
REMARK                         _______ _______ _______ _____ _____    ______ ____
ROOT
ATOM      1  C   UNL     1       1.436   9.331  18.311  0.00  0.00    +0.000 C 
ATOM      2  O   UNL     1       2.314   9.735  17.521  0.00  0.00    +0.000 OA
ENDROOT
BRANCH   1   9
ATOM      3  C   UNL     1      -2.064  11.680  18.300  0.00  0.00    +0.000 A 
ATOM      4  C   UNL     1      -2.111  12.435  19.424  0.00  0.00    +0.000 A 
ATOM      5  C   UNL     1      -1.218  12.214  20.530  0.00  0.00    +0.000 A 
ATOM      6  C   UNL     1       0.084  12.280  20.219  0.00  0.00    +0.000 A 
ATOM      7 BR   UNL     1       0.867  13.810  19.435  0.00  0.00    +0.000 Br
ATOM      8  C   UNL     1       0.700  11.057  19.764  0.00  0.00    +0.000 A 
ATOM      9  C   UNL     1       0.310  10.314  18.694  0.00  0.00    +0.000 A 
ATOM     10  C   UNL     1      -1.042  10.509  18.010  0.00  0.00    +0.000 A 
ATOM     11  O   UNL     1      -1.418   9.682  17.172  0.00  0.00    +0.000 OA
BRANCH   3  13
ATOM     12  C   UNL     1      -4.462  11.519  17.402  0.00  0.00    +0.000 C 
ATOM     13  N   UNL     1      -3.050  11.838  17.324  0.00  0.00    +0.000 N 
ATOM     14  H   UNL     1      -2.721  12.304  16.481  0.00  0.00    +0.000 HD
ENDBRANCH   3  13
ENDBRANCH   1   9
BRANCH   1  15
ATOM     15  C   UNL     1       1.655   7.876  18.686  0.00  0.00    +0.000 C 
ATOM     16  C   UNL     1       2.255   7.219  19.680  0.00  0.00    +0.000 C 
BRANCH  16  17
ATOM     17  C   UNL     1       2.448   5.737  19.833  0.00  0.00    +0.000 A 
ATOM     18  C   UNL     1       1.427   5.052  20.525  0.00  0.00    +0.000 A 
ATOM     19  C   UNL     1       1.583   3.726  20.944  0.00  0.00    +0.000 A 
ATOM     20  C   UNL     1       2.779   3.058  20.681  0.00  0.00    +0.000 A 
ATOM     21  C   UNL     1       3.785   3.670  19.943  0.00  0.00    +0.000 A 
ATOM     22  C   UNL     1       3.633   5.004  19.497  0.00  0.00    +0.000 A 
BRANCH  21  23
ATOM     23  O   UNL     1       4.860   2.815  19.797  0.00  0.00    +0.000 OA
ATOM     24  C   UNL     1       4.927   1.594  20.522  0.00  0.00    +0.000 C 
ENDBRANCH  21  23
BRANCH  22  25
ATOM     25  O   UNL     1       4.635   5.470  18.685  0.00  0.00    +0.000 OA
ATOM     26  C   UNL     1       4.464   5.369  17.281  0.00  0.00    +0.000 C 
ENDBRANCH  22  25
ENDBRANCH  16  17
ENDBRANCH   1  15
TORSDOF 6
ENDMDL
MODEL 3
REMARK VINA RESULT:      -7.1      3.795      8.709
REMARK  Name = 
REMARK  9 active torsions:
REMARK  status: ('A' for Active; 'I' for Inactive)
REMARK    1  A    between atoms: C_1  and  N_2
REMARK    2  A    between atoms: N_2  and  C_3
REMARK    3  A    between atoms: C_9  and  C_10
REMARK    4  A    between atoms: C_10  and  C_12
REMARK    5  A    between atoms: C_13  and  C_14
REMARK    6  A    between atoms: C_18  and  O_19
REMARK    7  A    between atoms: O_19  and  C_20
REMARK    8  A    between atoms: C_21  and  O_22
REMARK    9  A    between atoms: O_22  and  C_23
REMARK                            x       y       z     vdW  Elec       q    Type
REMARK                         _______ _______ _______ _____ _____    ______ ____
ROOT
ATOM      1  C   UNL     1       2.485   7.937  18.231  0.00  0.00    +0.000 C 
ATOM      2  O   UNL     1       2.548   8.687  17.235  0.00  0.00    +0.000 OA
ENDROOT
BRANCH   1   9
ATOM      3  C   UNL     1       4.776   4.640  16.943  0.00  0.00    +0.000 A 
ATOM      4  C   UNL     1       4.725   3.657  17.874  0.00  0.00    +0.000 A 
ATOM      5  C   UNL     1       4.186   3.879  19.190  0.00  0.00    +0.000 A 
ATOM      6  C   UNL     1       2.924   4.329  19.209  0.00  0.00    +0.000 A 
ATOM      7 BR   UNL     1       1.497   3.393  18.398  0.00  0.00    +0.000 Br
ATOM      8  C   UNL     1       2.750   5.759  19.138  0.00  0.00    +0.000 A 
ATOM      9  C   UNL     1       3.202   6.573  18.147  0.00  0.00    +0.000 A 
ATOM     10  C   UNL     1       4.240   6.117  17.122  0.00  0.00    +0.000 A 
ATOM     11  O   UNL     1       4.752   6.954  16.370  0.00  0.00    +0.000 OA
BRANCH   3  13
ATOM     12  C   UNL     1       6.870   4.432  15.476  0.00  0.00    +0.000 C 
ATOM     13  N   UNL     1       5.444   4.413  15.739  0.00  0.00    +0.000 N 
ATOM     14  H   UNL     1       4.831   4.131  14.977  0.00  0.00    +0.000 HD
ENDBRANCH   3  13
ENDBRANCH   1   9
BRANCH   1  15
ATOM     15  C   UNL     1       1.733   8.595  19.374  0.00  0.00    +0.000 C 
ATOM     16  C   UNL     1       0.722   9.458  19.489  0.00  0.00    +0.000 C 
BRANCH  16  17
ATOM     17  C   UNL     1       0.162  10.076  20.739  0.00  0.00    +0.000 A 
ATOM     18  C   UNL     1       0.384   9.357  21.933  0.00  0.00    +0.000 A 
ATOM     19  C   UNL     1      -0.273   9.685  23.123  0.00  0.00    +0.000 A 
ATOM     20  C   UNL     1      -1.180  10.745  23.138  0.00  0.00    +0.000 A 
ATOM     21  C   UNL     1      -1.378  11.524  22.003  0.00  0.00    +0.000 A 
ATOM     22  C   UNL     1      -0.705  11.214  20.798  0.00  0.00    +0.000 A 
BRANCH  21  23
ATOM     23  O   UNL     1      -2.301  12.519  22.261  0.00  0.00    +0.000 OA
ATOM     24  C   UNL     1      -3.045  12.531  23.472  0.00  0.00    +0.000 C 
ENDBRANCH  21  23
BRANCH  22  25
ATOM     25  O   UNL     1      -0.888  12.112  19.777  0.00  0.00    +0.000 OA
ATOM     26  C   UNL     1      -1.948  11.883  18.863  0.00  0.00    +0.000 C 
ENDBRANCH  22  25
ENDBRANCH  16  17
ENDBRANCH   1  15
TORSDOF 6
ENDMDL
MODEL 4
REMARK VINA RESULT:      -7.1      3.706      8.522
REMARK  Name = 
REMARK  9 active torsions:
REMARK  status: ('A' for Active; 'I' for Inactive)
REMARK    1  A    between atoms: C_1  and  N_2
REMARK    2  A    between atoms: N_2  and  C_3
REMARK    3  A    between atoms: C_9  and  C_10
REMARK    4  A    between atoms: C_10  and  C_12
REMARK    5  A    between atoms: C_13  and  C_14
REMARK    6  A    between atoms: C_18  and  O_19
REMARK    7  A    between atoms: O_19  and  C_20
REMARK    8  A    between atoms: C_21  and  O_22
REMARK    9  A    between atoms: O_22  and  C_23
REMARK                            x       y       z     vdW  Elec       q    Type
REMARK                         _______ _______ _______ _____ _____    ______ ____
ROOT
ATOM      1  C   UNL     1       2.577   8.153  18.000  0.00  0.00    +0.000 C 
ATOM      2  O   UNL     1       2.479   8.932  17.029  0.00  0.00    +0.000 OA
ENDROOT
BRANCH   1   9
ATOM      3  C   UNL     1       4.409   4.394  18.529  0.00  0.00    +0.000 A 
ATOM      4  C   UNL     1       5.270   4.158  17.510  0.00  0.00    +0.000 A 
ATOM      5  C   UNL     1       5.297   4.977  16.328  0.00  0.00    +0.000 A 
ATOM      6  C   UNL     1       5.506   6.282  16.555  0.00  0.00    +0.000 A 
ATOM      7 BR   UNL     1       7.032   6.924  17.463  0.00  0.00    +0.000 Br
ATOM      8  C   UNL     1       4.336   7.084  16.818  0.00  0.00    +0.000 A 
ATOM      9  C   UNL     1       3.433   6.883  17.814  0.00  0.00    +0.000 A 
ATOM     10  C   UNL     1       3.365   5.578  18.607  0.00  0.00    +0.000 A 
ATOM     11  O   UNL     1       2.406   5.382  19.362  0.00  0.00    +0.000 OA
BRANCH   3  13
ATOM     12  C   UNL     1       3.737   2.154  19.584  0.00  0.00    +0.000 C 
ATOM     13  N   UNL     1       4.323   3.480  19.581  0.00  0.00    +0.000 N 
ATOM     14  H   UNL     1       4.802   3.783  20.426  0.00  0.00    +0.000 HD
ENDBRANCH   3  13
ENDBRANCH   1   9
BRANCH   1  15
ATOM     15  C   UNL     1       1.846   8.690  19.217  0.00  0.00    +0.000 C 
ATOM     16  C   UNL     1       0.919   9.621  19.449  0.00  0.00    +0.000 C 
BRANCH  16  17
ATOM     17  C   UNL     1       0.371  10.081  20.771  0.00  0.00    +0.000 A 
ATOM     18  C   UNL     1       0.502   9.171  21.841  0.00  0.00    +0.000 A 
ATOM     19  C   UNL     1      -0.162   9.363  23.056  0.00  0.00    +0.000 A 
ATOM     20  C   UNL     1      -0.986  10.477  23.222  0.00  0.00    +0.000 A 
ATOM     21  C   UNL     1      -1.091  11.435  22.219  0.00  0.00    +0.000 A 
ATOM     22  C   UNL     1      -0.408  11.262  20.992  0.00  0.00    +0.000 A 
BRANCH  21  23
ATOM     23  O   UNL     1      -1.943  12.448  22.613  0.00  0.00    +0.000 OA
ATOM     24  C   UNL     1      -3.074  12.178  23.429  0.00  0.00    +0.000 C 
ENDBRANCH  21  23
BRANCH  22  25
ATOM     25  O   UNL     1      -0.492  12.318  20.120  0.00  0.00    +0.000 OA
ATOM     26  C   UNL     1       0.522  13.308  20.164  0.00  0.00    +0.000 C 
ENDBRANCH  22  25
ENDBRANCH  16  17
ENDBRANCH   1  15
TORSDOF 6
ENDMDL
MODEL 5
REMARK VINA RESULT:      -7.1      2.901      4.118
REMARK  Name = 
REMARK  9 active torsions:
REMARK  status: ('A' for Active; 'I' for Inactive)
REMARK    1  A    between atoms: C_1  and  N_2
REMARK    2  A    between atoms: N_2  and  C_3
REMARK    3  A    between atoms: C_9  and  C_10
REMARK    4  A    between atoms: C_10  and  C_12
REMARK    5  A    between atoms: C_13  and  C_14
REMARK    6  A    between atoms: C_18  and  O_19
REMARK    7  A    between atoms: O_19  and  C_20
REMARK    8  A    between atoms: C_21  and  O_22
REMARK    9  A    between atoms: O_22  and  C_23
REMARK                            x       y       z     vdW  Elec       q    Type
REMARK                         _______ _______ _______ _____ _____    ______ ____
ROOT
ATOM      1  C   UNL     1       1.949   7.054  20.092  0.00  0.00    +0.000 C 
ATOM      2  O   UNL     1       1.369   6.243  20.843  0.00  0.00    +0.000 OA
ENDROOT
BRANCH   1   9
ATOM      3  C   UNL     1       0.342  10.764  21.286  0.00  0.00    +0.000 A 
ATOM      4  C   UNL     1       0.404  11.641  20.255  0.00  0.00    +0.000 A 
ATOM      5  C   UNL     1       1.162  11.367  19.064  0.00  0.00    +0.000 A 
ATOM      6  C   UNL     1       0.819  10.237  18.430  0.00  0.00    +0.000 A 
ATOM      7 BR   UNL     1      -0.936   9.907  17.814  0.00  0.00    +0.000 Br
ATOM      8  C   UNL     1       1.482   9.031  18.864  0.00  0.00    +0.000 A 
ATOM      9  C   UNL     1       1.478   8.523  20.125  0.00  0.00    +0.000 A 
ATOM     10  C   UNL     1       1.027   9.340  21.336  0.00  0.00    +0.000 A 
ATOM     11  O   UNL     1       1.227   8.895  22.471  0.00  0.00    +0.000 OA
BRANCH   3  13
ATOM     12  C   UNL     1      -1.613  11.685  22.668  0.00  0.00    +0.000 C 
ATOM     13  N   UNL     1      -0.282  11.145  22.476  0.00  0.00    +0.000 N 
ATOM     14  H   UNL     1       0.267  10.941  23.309  0.00  0.00    +0.000 HD
ENDBRANCH   3  13
ENDBRANCH   1   9
BRANCH   1  15
ATOM     15  C   UNL     1       3.079   6.390  19.326  0.00  0.00    +0.000 C 
ATOM     16  C   UNL     1       3.975   5.433  19.573  0.00  0.00    +0.000 C 
BRANCH  16  17
ATOM     17  C   UNL     1       5.101   4.963  18.695  0.00  0.00    +0.000 A 
ATOM     18  C   UNL     1       6.386   5.429  19.042  0.00  0.00    +0.000 A 
ATOM     19  C   UNL     1       7.483   5.268  18.189  0.00  0.00    +0.000 A 
ATOM     20  C   UNL     1       7.309   4.637  16.957  0.00  0.00    +0.000 A 
ATOM     21  C   UNL     1       6.075   4.102  16.602  0.00  0.00    +0.000 A 
ATOM     22  C   UNL     1       4.963   4.242  17.465  0.00  0.00    +0.000 A 
BRANCH  21  23
ATOM     23  O   UNL     1       6.149   3.516  15.354  0.00  0.00    +0.000 OA
ATOM     24  C   UNL     1       6.097   4.303  14.172  0.00  0.00    +0.000 C 
ENDBRANCH  21  23
BRANCH  22  25
ATOM     25  O   UNL     1       3.827   3.581  17.070  0.00  0.00    +0.000 OA
ATOM     26  C   UNL     1       3.464   2.397  17.761  0.00  0.00    +0.000 C 
ENDBRANCH  22  25
ENDBRANCH  16  17
ENDBRANCH   1  15
TORSDOF 6
ENDMDL
MODEL 6
REMARK VINA RESULT:      -7.0      3.683      8.542
REMARK  Name = 
REMARK  9 active torsions:
REMARK  status: ('A' for Active; 'I' for Inactive)
REMARK    1  A    between atoms: C_1  and  N_2
REMARK    2  A    between atoms: N_2  and  C_3
REMARK    3  A    between atoms: C_9  and  C_10
REMARK    4  A    between atoms: C_10  and  C_12
REMARK    5  A    between atoms: C_13  and  C_14
REMARK    6  A    between atoms: C_18  and  O_19
REMARK    7  A    between atoms: O_19  and  C_20
REMARK    8  A    between atoms: C_21  and  O_22
REMARK    9  A    between atoms: O_22  and  C_23
REMARK                            x       y       z     vdW  Elec       q    Type
REMARK                         _______ _______ _______ _____ _____    ______ ____
ROOT
ATOM      1  C   UNL     1       2.494   7.760  18.197  0.00  0.00    +0.000 C 
ATOM      2  O   UNL     1       2.656   8.555  17.249  0.00  0.00    +0.000 OA
ENDROOT
BRANCH   1   9
ATOM      3  C   UNL     1       3.312   3.650  18.660  0.00  0.00    +0.000 A 
ATOM      4  C   UNL     1       4.315   3.288  17.825  0.00  0.00    +0.000 A 
ATOM      5  C   UNL     1       4.789   4.155  16.779  0.00  0.00    +0.000 A 
ATOM      6  C   UNL     1       5.211   5.356  17.196  0.00  0.00    +0.000 A 
ATOM      7 BR   UNL     1       6.586   5.564  18.474  0.00  0.00    +0.000 Br
ATOM      8  C   UNL     1       4.210   6.390  17.297  0.00  0.00    +0.000 A 
ATOM      9  C   UNL     1       3.080   6.340  18.050  0.00  0.00    +0.000 A 
ATOM     10  C   UNL     1       2.553   5.038  18.653  0.00  0.00    +0.000 A 
ATOM     11  O   UNL     1       1.427   5.022  19.161  0.00  0.00    +0.000 OA
BRANCH   3  13
ATOM     12  C   UNL     1       3.003   2.617  20.987  0.00  0.00    +0.000 C 
ATOM     13  N   UNL     1       2.791   2.715  19.556  0.00  0.00    +0.000 N 
ATOM     14  H   UNL     1       2.125   2.071  19.135  0.00  0.00    +0.000 HD
ENDBRANCH   3  13
ENDBRANCH   1   9
BRANCH   1  15
ATOM     15  C   UNL     1       1.775   8.423  19.359  0.00  0.00    +0.000 C 
ATOM     16  C   UNL     1       0.905   9.424  19.506  0.00  0.00    +0.000 C 
BRANCH  16  17
ATOM     17  C   UNL     1       0.362  10.006  20.781  0.00  0.00    +0.000 A 
ATOM     18  C   UNL     1       0.416   9.165  21.912  0.00  0.00    +0.000 A 
ATOM     19  C   UNL     1      -0.259   9.481  23.096  0.00  0.00    +0.000 A 
ATOM     20  C   UNL     1      -1.013  10.652  23.167  0.00  0.00    +0.000 A 
ATOM     21  C   UNL     1      -1.040  11.543  22.100  0.00  0.00    +0.000 A 
ATOM     22  C   UNL     1      -0.346  11.245  20.904  0.00  0.00    +0.000 A 
BRANCH  21  23
ATOM     23  O   UNL     1      -1.833  12.632  22.406  0.00  0.00    +0.000 OA
ATOM     24  C   UNL     1      -3.232  12.484  22.608  0.00  0.00    +0.000 C 
ENDBRANCH  21  23
BRANCH  22  25
ATOM     25  O   UNL     1      -0.346  12.242  19.961  0.00  0.00    +0.000 OA
ATOM     26  C   UNL     1      -1.391  12.260  19.003  0.00  0.00    +0.000 C 
ENDBRANCH  22  25
ENDBRANCH  16  17
ENDBRANCH   1  15
TORSDOF 6
ENDMDL
MODEL 7
REMARK VINA RESULT:      -7.0      1.420      1.804
REMARK  Name = 
REMARK  9 active torsions:
REMARK  status: ('A' for Active; 'I' for Inactive)
REMARK    1  A    between atoms: C_1  and  N_2
REMARK    2  A    between atoms: N_2  and  C_3
REMARK    3  A    between atoms: C_9  and  C_10
REMARK    4  A    between atoms: C_10  and  C_12
REMARK    5  A    between atoms: C_13  and  C_14
REMARK    6  A    between atoms: C_18  and  O_19
REMARK    7  A    between atoms: O_19  and  C_20
REMARK    8  A    between atoms: C_21  and  O_22
REMARK    9  A    between atoms: O_22  and  C_23
REMARK                            x       y       z     vdW  Elec       q    Type
REMARK                         _______ _______ _______ _____ _____    ______ ____
ROOT
ATOM      1  C   UNL     1       1.782  10.041  18.000  0.00  0.00    +0.000 C 
ATOM      2  O   UNL     1       2.569  10.848  17.465  0.00  0.00    +0.000 OA
ENDROOT
BRANCH   1   9
ATOM      3  C   UNL     1      -2.155  11.340  18.764  0.00  0.00    +0.000 A 
ATOM      4  C   UNL     1      -2.229  11.866  20.010  0.00  0.00    +0.000 A 
ATOM      5  C   UNL     1      -1.164  11.717  20.966  0.00  0.00    +0.000 A 
ATOM      6  C   UNL     1       0.026  12.178  20.554  0.00  0.00    +0.000 A 
ATOM      7 BR   UNL     1       0.291  13.966  20.005  0.00  0.00    +0.000 Br
ATOM      8  C   UNL     1       0.854  11.252  19.818  0.00  0.00    +0.000 A 
ATOM      9  C   UNL     1       0.513  10.613  18.667  0.00  0.00    +0.000 A 
ATOM     10  C   UNL     1      -0.928  10.547  18.162  0.00  0.00    +0.000 A 
ATOM     11  O   UNL     1      -1.201   9.794  17.221  0.00  0.00    +0.000 OA
BRANCH   3  13
ATOM     12  C   UNL     1      -4.676  11.457  18.302  0.00  0.00    +0.000 C 
ATOM     13  N   UNL     1      -3.276  11.383  17.933  0.00  0.00    +0.000 N 
ATOM     14  H   UNL     1      -3.049  11.438  16.942  0.00  0.00    +0.000 HD
ENDBRANCH   3  13
ENDBRANCH   1   9
BRANCH   1  15
ATOM     15  C   UNL     1       2.244   8.607  17.811  0.00  0.00    +0.000 C 
ATOM     16  C   UNL     1       2.632   7.609  18.606  0.00  0.00    +0.000 C 
BRANCH  16  17
ATOM     17  C   UNL     1       3.151   6.254  18.215  0.00  0.00    +0.000 A 
ATOM     18  C   UNL     1       4.203   6.246  17.275  0.00  0.00    +0.000 A 
ATOM     19  C   UNL     1       4.622   5.068  16.648  0.00  0.00    +0.000 A 
ATOM     20  C   UNL     1       3.984   3.865  16.948  0.00  0.00    +0.000 A 
ATOM     21  C   UNL     1       2.988   3.814  17.917  0.00  0.00    +0.000 A 
ATOM     22  C   UNL     1       2.568   4.995  18.573  0.00  0.00    +0.000 A 
BRANCH  21  23
ATOM     23  O   UNL     1       2.519   2.521  18.053  0.00  0.00    +0.000 OA
ATOM     24  C   UNL     1       3.365   1.481  18.523  0.00  0.00    +0.000 C 
ENDBRANCH  21  23
BRANCH  22  25
ATOM     25  O   UNL     1       1.663   4.813  19.587  0.00  0.00    +0.000 OA
ATOM     26  C   UNL     1       2.157   4.568  20.894  0.00  0.00    +0.000 C 
ENDBRANCH  22  25
ENDBRANCH  16  17
ENDBRANCH   1  15
TORSDOF 6
ENDMDL
MODEL 8
REMARK VINA RESULT:      -7.0      2.680      3.073
REMARK  Name = 
REMARK  9 active torsions:
REMARK  status: ('A' for Active; 'I' for Inactive)
REMARK    1  A    between atoms: C_1  and  N_2
REMARK    2  A    between atoms: N_2  and  C_3
REMARK    3  A    between atoms: C_9  and  C_10
REMARK    4  A    between atoms: C_10  and  C_12
REMARK    5  A    between atoms: C_13  and  C_14
REMARK    6  A    between atoms: C_18  and  O_19
REMARK    7  A    between atoms: O_19  and  C_20
REMARK    8  A    between atoms: C_21  and  O_22
REMARK    9  A    between atoms: O_22  and  C_23
REMARK                            x       y       z     vdW  Elec       q    Type
REMARK                         _______ _______ _______ _____ _____    ______ ____
ROOT
ATOM      1  C   UNL     1       1.050   9.165  21.565  0.00  0.00    +0.000 C 
ATOM      2  O   UNL     1       1.857   9.383  22.493  0.00  0.00    +0.000 OA
ENDROOT
BRANCH   1   9
ATOM      3  C   UNL     1      -1.830  12.233  21.308  0.00  0.00    +0.000 A 
ATOM      4  C   UNL     1      -1.749  12.834  20.096  0.00  0.00    +0.000 A 
ATOM      5  C   UNL     1      -0.651  12.598  19.198  0.00  0.00    +0.000 A 
ATOM      6  C   UNL     1      -0.463  11.312  18.869  0.00  0.00    +0.000 A 
ATOM      7 BR   UNL     1      -1.810  10.261  18.063  0.00  0.00    +0.000 Br
ATOM      8  C   UNL     1       0.378  10.539  19.750  0.00  0.00    +0.000 A 
ATOM      9  C   UNL     1       0.180  10.344  21.081  0.00  0.00    +0.000 A 
ATOM     10  C   UNL     1      -0.800  11.188  21.896  0.00  0.00    +0.000 A 
ATOM     11  O   UNL     1      -0.795  11.094  23.128  0.00  0.00    +0.000 OA
BRANCH   3  13
ATOM     12  C   UNL     1      -3.466  13.909  22.353  0.00  0.00    +0.000 C 
ATOM     13  N   UNL     1      -2.836  12.613  22.198  0.00  0.00    +0.000 N 
ATOM     14  H   UNL     1      -3.204  11.843  22.753  0.00  0.00    +0.000 HD
ENDBRANCH   3  13
ENDBRANCH   1   9
BRANCH   1  15
ATOM     15  C   UNL     1       1.156   7.736  21.062  0.00  0.00    +0.000 C 
ATOM     16  C   UNL     1       2.061   7.017  20.396  0.00  0.00    +0.000 C 
BRANCH  16  17
ATOM     17  C   UNL     1       1.943   5.604  19.899  0.00  0.00    +0.000 A 
ATOM     18  C   UNL     1       1.123   4.748  20.664  0.00  0.00    +0.000 A 
ATOM     19  C   UNL     1       1.108   3.365  20.459  0.00  0.00    +0.000 A 
ATOM     20  C   UNL     1       1.928   2.805  19.479  0.00  0.00    +0.000 A 
ATOM     21  C   UNL     1       2.701   3.616  18.656  0.00  0.00    +0.000 A 
ATOM     22  C   UNL     1       2.711   5.019  18.840  0.00  0.00    +0.000 A 
BRANCH  21  23
ATOM     23  O   UNL     1       3.411   2.845  17.756  0.00  0.00    +0.000 OA
ATOM     24  C   UNL     1       3.730   1.491  18.044  0.00  0.00    +0.000 C 
ENDBRANCH  21  23
BRANCH  22  25
ATOM     25  O   UNL     1       3.418   5.729  17.903  0.00  0.00    +0.000 OA
ATOM     26  C   UNL     1       4.806   5.928  18.118  0.00  0.00    +0.000 C 
ENDBRANCH  22  25
ENDBRANCH  16  17
ENDBRANCH   1  15
TORSDOF 6
ENDMDL
MODEL 9
REMARK VINA RESULT:      -7.0      2.848      3.475
REMARK  Name = 
REMARK  9 active torsions:
REMARK  status: ('A' for Active; 'I' for Inactive)
REMARK    1  A    between atoms: C_1  and  N_2
REMARK    2  A    between atoms: N_2  and  C_3
REMARK    3  A    between atoms: C_9  and  C_10
REMARK    4  A    between atoms: C_10  and  C_12
REMARK    5  A    between atoms: C_13  and  C_14
REMARK    6  A    between atoms: C_18  and  O_19
REMARK    7  A    between atoms: O_19  and  C_20
REMARK    8  A    between atoms: C_21  and  O_22
REMARK    9  A    between atoms: O_22  and  C_23
REMARK                            x       y       z     vdW  Elec       q    Type
REMARK                         _______ _______ _______ _____ _____    ______ ____
ROOT
ATOM      1  C   UNL     1       0.950   9.513  21.641  0.00  0.00    +0.000 C 
ATOM      2  O   UNL     1       1.509   9.531  22.757  0.00  0.00    +0.000 OA
ENDROOT
BRANCH   1   9
ATOM      3  C   UNL     1      -2.315  12.174  21.825  0.00  0.00    +0.000 A 
ATOM      4  C   UNL     1      -2.325  12.960  20.721  0.00  0.00    +0.000 A 
ATOM      5  C   UNL     1      -1.213  13.013  19.811  0.00  0.00    +0.000 A 
ATOM      6  C   UNL     1      -0.859  11.830  19.290  0.00  0.00    +0.000 A 
ATOM      7 BR   UNL     1      -2.060  10.747  18.315  0.00  0.00    +0.000 Br
ATOM      8  C   UNL     1       0.086  11.049  20.052  0.00  0.00    +0.000 A 
ATOM      9  C   UNL     1      -0.073  10.627  21.334  0.00  0.00    +0.000 A 
ATOM     10  C   UNL     1      -1.150  11.197  22.257  0.00  0.00    +0.000 A 
ATOM     11  O   UNL     1      -1.121  10.916  23.460  0.00  0.00    +0.000 OA
BRANCH   3  13
ATOM     12  C   UNL     1      -4.265  13.381  22.974  0.00  0.00    +0.000 C 
ATOM     13  N   UNL     1      -3.354  12.275  22.751  0.00  0.00    +0.000 N 
ATOM     14  H   UNL     1      -3.516  11.421  23.280  0.00  0.00    +0.000 HD
ENDBRANCH   3  13
ENDBRANCH   1   9
BRANCH   1  15
ATOM     15  C   UNL     1       1.475   8.380  20.777  0.00  0.00    +0.000 C 
ATOM     16  C   UNL     1       1.466   7.047  20.831  0.00  0.00    +0.000 C 
BRANCH  16  17
ATOM     17  C   UNL     1       2.133   6.073  19.902  0.00  0.00    +0.000 A 
ATOM     18  C   UNL     1       2.960   6.639  18.908  0.00  0.00    +0.000 A 
ATOM     19  C   UNL     1       3.452   5.881  17.841  0.00  0.00    +0.000 A 
ATOM     20  C   UNL     1       3.116   4.531  17.743  0.00  0.00    +0.000 A 
ATOM     21  C   UNL     1       2.360   3.915  18.735  0.00  0.00    +0.000 A 
ATOM     22  C   UNL     1       1.873   4.666  19.830  0.00  0.00    +0.000 A 
BRANCH  21  23
ATOM     23  O   UNL     1       2.170   2.581  18.432  0.00  0.00    +0.000 OA
ATOM     24  C   UNL     1       3.247   1.774  17.975  0.00  0.00    +0.000 C 
ENDBRANCH  21  23
BRANCH  22  25
ATOM     25  O   UNL     1       1.237   3.938  20.804  0.00  0.00    +0.000 OA
ATOM     26  C   UNL     1       2.032   3.217  21.731  0.00  0.00    +0.000 C 
ENDBRANCH  22  25
ENDBRANCH  16  17
ENDBRANCH   1  15
TORSDOF 6
ENDMDL
