MODEL 1
REMARK VINA RESULT:      -6.0      0.000      0.000
REMARK  Name = 
REMARK  9 active torsions:
REMARK  status: ('A' for Active; 'I' for Inactive)
REMARK    1  A    between atoms: C_1  and  O_2
REMARK    2  A    between atoms: O_2  and  C_3
REMARK    3  A    between atoms: C_3  and  C_4
REMARK    4  A    between atoms: C_4  and  N_5
REMARK    5  A    between atoms: N_5  and  C_18
REMARK    6  A    between atoms: C_6  and  C_8
REMARK    7  A    between atoms: C_19  and  N_20
REMARK    8  A    between atoms: N_21  and  C_22
REMARK    9  A    between atoms: C_22  and  C_23
REMARK                            x       y       z     vdW  Elec       q    Type
REMARK                         _______ _______ _______ _____ _____    ______ ____
ROOT
ATOM      1  C   UNL     1       0.310  12.468  20.087  0.00  0.00    +0.000 A 
ATOM      2  C   UNL     1      -0.573  12.660  19.075  0.00  0.00    +0.000 A 
ATOM      3  N   UNL     1      -1.359  11.595  18.638  0.00  0.00    +0.000 N 
ATOM      4  C   UNL     1      -1.158  10.294  19.078  0.00  0.00    +0.000 A 
ATOM      5  O   UNL     1      -1.775   9.313  18.663  0.00  0.00    +0.000 OA
ATOM      6  N   UNL     1      -0.215  10.117  20.050  0.00  0.00    +0.000 N 
ATOM      7  C   UNL     1       0.438  11.115  20.707  0.00  0.00    +0.000 A 
ATOM      8  O   UNL     1       1.098  10.904  21.712  0.00  0.00    +0.000 OA
ATOM      9  H   UNL     1      -0.132   9.188  20.429  0.00  0.00    +0.000 HD
ENDROOT
BRANCH   1  10
ATOM     10  N   UNL     1       1.029  13.534  20.634  0.00  0.00    +0.000 N 
ATOM     11  C   UNL     1       0.600  14.164  21.838  0.00  0.00    +0.000 C 
ATOM     12  O   UNL     1       1.385  14.833  22.512  0.00  0.00    +0.000 OA
BRANCH  11  13
ATOM     13  C   UNL     1      -0.807  13.995  22.242  0.00  0.00    +0.000 A 
ATOM     14  C   UNL     1      -1.425  13.069  23.062  0.00  0.00    +0.000 A 
ATOM     15  C   UNL     1      -2.754  13.442  23.445  0.00  0.00    +0.000 A 
ATOM     16  C   UNL     1      -3.129  14.607  22.804  0.00  0.00    +0.000 A 
ATOM     17  S   UNL     1      -1.974  15.102  21.645  0.00  0.00    +0.000 S 
ATOM     18  C   UNL     1      -4.322  15.459  23.080  0.00  0.00    +0.000 C 
ATOM     19  C   UNL     1      -5.673  14.746  23.095  0.00  0.00    +0.000 C 
ATOM     20  C   UNL     1      -5.677  13.220  23.068  0.00  0.00    +0.000 C 
ATOM     21  C   UNL     1      -5.048  12.567  24.293  0.00  0.00    +0.000 C 
ATOM     22  C   UNL     1      -3.541  12.734  24.508  0.00  0.00    +0.000 C 
ENDBRANCH  11  13
BRANCH  10  23
ATOM     23  C   UNL     1       2.479  13.550  20.337  0.00  0.00    +0.000 C 
BRANCH  23  24
ATOM     24  C   UNL     1       2.939  14.755  19.501  0.00  0.00    +0.000 C 
BRANCH  24  26
ATOM     25  C   UNL     1       2.126  16.594  18.280  0.00  0.00    +0.000 C 
ATOM     26  O   UNL     1       1.858  15.263  18.714  0.00  0.00    +0.000 OA
ENDBRANCH  24  26
ENDBRANCH  23  24
ENDBRANCH  10  23
ENDBRANCH   1  10
BRANCH   2  27
ATOM     27  N   UNL     1      -0.710  13.928  18.521  0.00  0.00    +0.000 N 
ATOM     28  H   UNL     1       0.164  14.465  18.574  0.00  0.00    +0.000 HD
ATOM     29  H   UNL     1      -1.469  14.456  18.941  0.00  0.00    +0.000 HD
ENDBRANCH   2  27
BRANCH   3  30
ATOM     30  C   UNL     1      -2.409  11.807  17.638  0.00  0.00    +0.000 C 
BRANCH  30  31
ATOM     31  C   UNL     1      -3.826  11.817  18.188  0.00  0.00    +0.000 A 
ATOM     32  C   UNL     1      -4.863  11.150  17.512  0.00  0.00    +0.000 A 
ATOM     33  C   UNL     1      -6.132  11.026  18.090  0.00  0.00    +0.000 A 
ATOM     34  C   UNL     1      -6.386  11.566  19.348  0.00  0.00    +0.000 A 
ATOM     35  C   UNL     1      -5.381  12.259  20.015  0.00  0.00    +0.000 A 
ATOM     36  C   UNL     1      -4.114  12.391  19.436  0.00  0.00    +0.000 A 
ENDBRANCH  30  31
ENDBRANCH   3  30
TORSDOF 8
ENDMDL
MODEL 2
REMARK VINA RESULT:      -6.0      2.982      5.498
REMARK  Name = 
REMARK  9 active torsions:
REMARK  status: ('A' for Active; 'I' for Inactive)
REMARK    1  A    between atoms: C_1  and  O_2
REMARK    2  A    between atoms: O_2  and  C_3
REMARK    3  A    between atoms: C_3  and  C_4
REMARK    4  A    between atoms: C_4  and  N_5
REMARK    5  A    between atoms: N_5  and  C_18
REMARK    6  A    between atoms: C_6  and  C_8
REMARK    7  A    between atoms: C_19  and  N_20
REMARK    8  A    between atoms: N_21  and  C_22
REMARK    9  A    between atoms: C_22  and  C_23
REMARK                            x       y       z     vdW  Elec       q    Type
REMARK                         _______ _______ _______ _____ _____    ______ ____
ROOT
ATOM      1  C   UNL     1      -3.185  13.713  23.349  0.00  0.00    +0.000 A 
ATOM      2  C   UNL     1      -2.184  13.805  22.438  0.00  0.00    +0.000 A 
ATOM      3  N   UNL     1      -1.459  12.663  22.097  0.00  0.00    +0.000 N 
ATOM      4  C   UNL     1      -1.603  11.461  22.776  0.00  0.00    +0.000 A 
ATOM      5  O   UNL     1      -0.931  10.453  22.561  0.00  0.00    +0.000 OA
ATOM      6  N   UNL     1      -2.574  11.415  23.736  0.00  0.00    +0.000 N 
ATOM      7  C   UNL     1      -3.486  12.395  23.983  0.00  0.00    +0.000 A 
ATOM      8  O   UNL     1      -4.461  12.206  24.694  0.00  0.00    +0.000 OA
ATOM      9  H   UNL     1      -2.734  10.519  24.167  0.00  0.00    +0.000 HD
ENDROOT
BRANCH   1  10
ATOM     10  N   UNL     1      -4.013  14.804  23.629  0.00  0.00    +0.000 N 
ATOM     11  C   UNL     1      -5.311  14.906  23.051  0.00  0.00    +0.000 C 
ATOM     12  O   UNL     1      -6.167  15.637  23.551  0.00  0.00    +0.000 OA
BRANCH  11  13
ATOM     13  C   UNL     1      -5.590  14.116  21.839  0.00  0.00    +0.000 A 
ATOM     14  C   UNL     1      -6.039  12.820  21.667  0.00  0.00    +0.000 A 
ATOM     15  C   UNL     1      -6.479  12.540  20.332  0.00  0.00    +0.000 A 
ATOM     16  C   UNL     1      -6.245  13.626  19.512  0.00  0.00    +0.000 A 
ATOM     17  S   UNL     1      -5.352  14.849  20.306  0.00  0.00    +0.000 S 
ATOM     18  C   UNL     1      -6.746  13.850  18.124  0.00  0.00    +0.000 C 
ATOM     19  C   UNL     1      -6.482  12.728  17.122  0.00  0.00    +0.000 C 
ATOM     20  C   UNL     1      -5.955  11.399  17.658  0.00  0.00    +0.000 C 
ATOM     21  C   UNL     1      -6.917  10.668  18.586  0.00  0.00    +0.000 C 
ATOM     22  C   UNL     1      -7.224  11.296  19.948  0.00  0.00    +0.000 C 
ENDBRANCH  11  13
BRANCH  10  23
ATOM     23  C   UNL     1      -3.801  15.448  24.945  0.00  0.00    +0.000 C 
BRANCH  23  24
ATOM     24  C   UNL     1      -2.956  16.730  24.893  0.00  0.00    +0.000 C 
BRANCH  24  26
ATOM     25  C   UNL     1      -3.254  18.307  23.172  0.00  0.00    +0.000 C 
ATOM     26  O   UNL     1      -3.740  17.831  24.424  0.00  0.00    +0.000 OA
ENDBRANCH  24  26
ENDBRANCH  23  24
ENDBRANCH  10  23
ENDBRANCH   1  10
BRANCH   2  27
ATOM     27  N   UNL     1      -1.927  15.027  21.828  0.00  0.00    +0.000 N 
ATOM     28  H   UNL     1      -1.003  15.395  22.083  0.00  0.00    +0.000 HD
ATOM     29  H   UNL     1      -2.644  15.719  22.025  0.00  0.00    +0.000 HD
ENDBRANCH   2  27
BRANCH   3  30
ATOM     30  C   UNL     1      -0.463  12.709  21.024  0.00  0.00    +0.000 C 
BRANCH  30  31
ATOM     31  C   UNL     1      -0.846  11.958  19.759  0.00  0.00    +0.000 A 
ATOM     32  C   UNL     1      -0.012  10.953  19.240  0.00  0.00    +0.000 A 
ATOM     33  C   UNL     1      -0.431  10.155  18.168  0.00  0.00    +0.000 A 
ATOM     34  C   UNL     1      -1.686  10.351  17.597  0.00  0.00    +0.000 A 
ATOM     35  C   UNL     1      -2.509  11.365  18.075  0.00  0.00    +0.000 A 
ATOM     36  C   UNL     1      -2.090  12.168  19.142  0.00  0.00    +0.000 A 
ENDBRANCH  30  31
ENDBRANCH   3  30
TORSDOF 8
ENDMDL
MODEL 3
REMARK VINA RESULT:      -5.9      2.454      4.980
REMARK  Name = 
REMARK  9 active torsions:
REMARK  status: ('A' for Active; 'I' for Inactive)
REMARK    1  A    between atoms: C_1  and  O_2
REMARK    2  A    between atoms: O_2  and  C_3
REMARK    3  A    between atoms: C_3  and  C_4
REMARK    4  A    between atoms: C_4  and  N_5
REMARK    5  A    between atoms: N_5  and  C_18
REMARK    6  A    between atoms: C_6  and  C_8
REMARK    7  A    between atoms: C_19  and  N_20
REMARK    8  A    between atoms: N_21  and  C_22
REMARK    9  A    between atoms: C_22  and  C_23
REMARK                            x       y       z     vdW  Elec       q    Type
REMARK                         _______ _______ _______ _____ _____    ______ ____
ROOT
ATOM      1  C   UNL     1      -2.089  12.264  20.516  0.00  0.00    +0.000 A 
ATOM      2  C   UNL     1      -3.396  12.615  20.432  0.00  0.00    +0.000 A 
ATOM      3  N   UNL     1      -4.110  12.334  19.268  0.00  0.00    +0.000 N 
ATOM      4  C   UNL     1      -3.497  11.860  18.117  0.00  0.00    +0.000 A 
ATOM      5  O   UNL     1      -4.073  11.671  17.046  0.00  0.00    +0.000 OA
ATOM      6  N   UNL     1      -2.164  11.576  18.207  0.00  0.00    +0.000 N 
ATOM      7  C   UNL     1      -1.430  11.595  19.355  0.00  0.00    +0.000 A 
ATOM      8  O   UNL     1      -0.307  11.119  19.410  0.00  0.00    +0.000 OA
ATOM      9  H   UNL     1      -1.741  11.152  17.399  0.00  0.00    +0.000 HD
ENDROOT
BRANCH   1  10
ATOM     10  N   UNL     1      -1.371  12.418  21.704  0.00  0.00    +0.000 N 
ATOM     11  C   UNL     1      -0.873  13.693  22.099  0.00  0.00    +0.000 C 
ATOM     12  O   UNL     1      -0.571  13.915  23.273  0.00  0.00    +0.000 OA
BRANCH  11  13
ATOM     13  C   UNL     1      -0.726  14.728  21.061  0.00  0.00    +0.000 A 
ATOM     14  C   UNL     1      -1.580  15.726  20.628  0.00  0.00    +0.000 A 
ATOM     15  C   UNL     1      -0.936  16.716  19.816  0.00  0.00    +0.000 A 
ATOM     16  C   UNL     1       0.378  16.364  19.582  0.00  0.00    +0.000 A 
ATOM     17  S   UNL     1       0.738  14.799  20.170  0.00  0.00    +0.000 S 
ATOM     18  C   UNL     1       1.458  17.204  18.987  0.00  0.00    +0.000 C 
ATOM     19  C   UNL     1       1.141  17.861  17.645  0.00  0.00    +0.000 C 
ATOM     20  C   UNL     1      -0.301  17.808  17.145  0.00  0.00    +0.000 C 
ATOM     21  C   UNL     1      -1.299  18.556  18.020  0.00  0.00    +0.000 C 
ATOM     22  C   UNL     1      -1.580  18.012  19.424  0.00  0.00    +0.000 C 
ENDBRANCH  11  13
BRANCH  10  23
ATOM     23  C   UNL     1      -1.693  11.451  22.778  0.00  0.00    +0.000 C 
BRANCH  23  24
ATOM     24  C   UNL     1      -0.564  10.456  23.091  0.00  0.00    +0.000 C 
BRANCH  24  26
ATOM     25  C   UNL     1       0.750   8.930  21.875  0.00  0.00    +0.000 C 
ATOM     26  O   UNL     1      -0.576   9.372  22.158  0.00  0.00    +0.000 OA
ENDBRANCH  24  26
ENDBRANCH  23  24
ENDBRANCH  10  23
ENDBRANCH   1  10
BRANCH   2  27
ATOM     27  N   UNL     1      -4.013  13.211  21.527  0.00  0.00    +0.000 N 
ATOM     28  H   UNL     1      -4.947  13.567  21.291  0.00  0.00    +0.000 HD
ATOM     29  H   UNL     1      -3.451  13.951  21.936  0.00  0.00    +0.000 HD
ENDBRANCH   2  27
BRANCH   3  30
ATOM     30  C   UNL     1      -5.552  12.585  19.202  0.00  0.00    +0.000 C 
BRANCH  30  31
ATOM     31  C   UNL     1      -6.427  11.426  19.652  0.00  0.00    +0.000 A 
ATOM     32  C   UNL     1      -6.363  10.182  19.000  0.00  0.00    +0.000 A 
ATOM     33  C   UNL     1      -7.049   9.071  19.503  0.00  0.00    +0.000 A 
ATOM     34  C   UNL     1      -7.811   9.185  20.663  0.00  0.00    +0.000 A 
ATOM     35  C   UNL     1      -7.914  10.416  21.302  0.00  0.00    +0.000 A 
ATOM     36  C   UNL     1      -7.235  11.530  20.795  0.00  0.00    +0.000 A 
ENDBRANCH  30  31
ENDBRANCH   3  30
TORSDOF 8
ENDMDL
MODEL 4
REMARK VINA RESULT:      -5.9      3.234      5.844
REMARK  Name = 
REMARK  9 active torsions:
REMARK  status: ('A' for Active; 'I' for Inactive)
REMARK    1  A    between atoms: C_1  and  O_2
REMARK    2  A    between atoms: O_2  and  C_3
REMARK    3  A    between atoms: C_3  and  C_4
REMARK    4  A    between atoms: C_4  and  N_5
REMARK    5  A    between atoms: N_5  and  C_18
REMARK    6  A    between atoms: C_6  and  C_8
REMARK    7  A    between atoms: C_19  and  N_20
REMARK    8  A    between atoms: N_21  and  C_22
REMARK    9  A    between atoms: C_22  and  C_23
REMARK                            x       y       z     vdW  Elec       q    Type
REMARK                         _______ _______ _______ _____ _____    ______ ____
ROOT
ATOM      1  C   UNL     1      -5.278  13.476  21.775  0.00  0.00    +0.000 A 
ATOM      2  C   UNL     1      -5.099  13.456  20.431  0.00  0.00    +0.000 A 
ATOM      3  N   UNL     1      -5.788  12.521  19.660  0.00  0.00    +0.000 N 
ATOM      4  C   UNL     1      -6.526  11.490  20.226  0.00  0.00    +0.000 A 
ATOM      5  O   UNL     1      -7.084  10.599  19.587  0.00  0.00    +0.000 OA
ATOM      6  N   UNL     1      -6.636  11.494  21.587  0.00  0.00    +0.000 N 
ATOM      7  C   UNL     1      -6.199  12.487  22.411  0.00  0.00    +0.000 A 
ATOM      8  O   UNL     1      -6.523  12.540  23.587  0.00  0.00    +0.000 OA
ATOM      9  H   UNL     1      -7.241  10.797  21.989  0.00  0.00    +0.000 HD
ENDROOT
BRANCH   1  10
ATOM     10  N   UNL     1      -4.702  14.471  22.569  0.00  0.00    +0.000 N 
ATOM     11  C   UNL     1      -3.287  14.582  22.693  0.00  0.00    +0.000 C 
ATOM     12  O   UNL     1      -2.769  15.633  23.072  0.00  0.00    +0.000 OA
BRANCH  11  13
ATOM     13  C   UNL     1      -2.471  13.401  22.360  0.00  0.00    +0.000 A 
ATOM     14  C   UNL     1      -1.528  13.182  21.373  0.00  0.00    +0.000 A 
ATOM     15  C   UNL     1      -0.740  12.004  21.587  0.00  0.00    +0.000 A 
ATOM     16  C   UNL     1      -1.198  11.315  22.693  0.00  0.00    +0.000 A 
ATOM     17  S   UNL     1      -2.644  11.985  23.313  0.00  0.00    +0.000 S 
ATOM     18  C   UNL     1      -0.541  10.176  23.398  0.00  0.00    +0.000 C 
ATOM     19  C   UNL     1      -0.128   8.991  22.527  0.00  0.00    +0.000 C 
ATOM     20  C   UNL     1      -0.196   9.157  21.012  0.00  0.00    +0.000 C 
ATOM     21  C   UNL     1       0.753  10.209  20.450  0.00  0.00    +0.000 C 
ATOM     22  C   UNL     1       0.494  11.677  20.799  0.00  0.00    +0.000 C 
ENDBRANCH  11  13
BRANCH  10  23
ATOM     23  C   UNL     1      -5.497  15.710  22.722  0.00  0.00    +0.000 C 
BRANCH  23  24
ATOM     24  C   UNL     1      -6.093  15.911  24.124  0.00  0.00    +0.000 C 
BRANCH  24  26
ATOM     25  C   UNL     1      -5.296  18.100  24.453  0.00  0.00    +0.000 C 
ATOM     26  O   UNL     1      -5.247  16.752  24.914  0.00  0.00    +0.000 OA
ENDBRANCH  24  26
ENDBRANCH  23  24
ENDBRANCH  10  23
ENDBRANCH   1  10
BRANCH   2  27
ATOM     27  N   UNL     1      -4.264  14.398  19.840  0.00  0.00    +0.000 N 
ATOM     28  H   UNL     1      -4.367  14.412  18.818  0.00  0.00    +0.000 HD
ATOM     29  H   UNL     1      -3.289  14.265  20.090  0.00  0.00    +0.000 HD
ENDBRANCH   2  27
BRANCH   3  30
ATOM     30  C   UNL     1      -5.712  12.563  18.197  0.00  0.00    +0.000 C 
BRANCH  30  31
ATOM     31  C   UNL     1      -4.549  11.793  17.593  0.00  0.00    +0.000 A 
ATOM     32  C   UNL     1      -3.457  11.401  18.387  0.00  0.00    +0.000 A 
ATOM     33  C   UNL     1      -2.460  10.562  17.873  0.00  0.00    +0.000 A 
ATOM     34  C   UNL     1      -2.537  10.105  16.560  0.00  0.00    +0.000 A 
ATOM     35  C   UNL     1      -3.592  10.513  15.750  0.00  0.00    +0.000 A 
ATOM     36  C   UNL     1      -4.585  11.356  16.259  0.00  0.00    +0.000 A 
ENDBRANCH  30  31
ENDBRANCH   3  30
TORSDOF 8
ENDMDL
MODEL 5
REMARK VINA RESULT:      -5.7      2.238      5.006
REMARK  Name = 
REMARK  9 active torsions:
REMARK  status: ('A' for Active; 'I' for Inactive)
REMARK    1  A    between atoms: C_1  and  O_2
REMARK    2  A    between atoms: O_2  and  C_3
REMARK    3  A    between atoms: C_3  and  C_4
REMARK    4  A    between atoms: C_4  and  N_5
REMARK    5  A    between atoms: N_5  and  C_18
REMARK    6  A    between atoms: C_6  and  C_8
REMARK    7  A    between atoms: C_19  and  N_20
REMARK    8  A    between atoms: N_21  and  C_22
REMARK    9  A    between atoms: C_22  and  C_23
REMARK                            x       y       z     vdW  Elec       q    Type
REMARK                         _______ _______ _______ _____ _____    ______ ____
ROOT
ATOM      1  C   UNL     1      -1.627  12.173  20.717  0.00  0.00    +0.000 A 
ATOM      2  C   UNL     1      -2.910  12.554  20.499  0.00  0.00    +0.000 A 
ATOM      3  N   UNL     1      -3.507  12.283  19.268  0.00  0.00    +0.000 N 
ATOM      4  C   UNL     1      -2.790  11.789  18.187  0.00  0.00    +0.000 A 
ATOM      5  O   UNL     1      -3.257  11.608  17.063  0.00  0.00    +0.000 OA
ATOM      6  N   UNL     1      -1.480  11.476  18.415  0.00  0.00    +0.000 N 
ATOM      7  C   UNL     1      -0.867  11.483  19.632  0.00  0.00    +0.000 A 
ATOM      8  O   UNL     1       0.232  10.982  19.804  0.00  0.00    +0.000 OA
ATOM      9  H   UNL     1      -0.986  11.038  17.655  0.00  0.00    +0.000 HD
ENDROOT
BRANCH   1  10
ATOM     10  N   UNL     1      -1.031  12.317  21.973  0.00  0.00    +0.000 N 
ATOM     11  C   UNL     1      -0.402  13.539  22.349  0.00  0.00    +0.000 C 
ATOM     12  O   UNL     1      -0.205  13.805  23.536  0.00  0.00    +0.000 OA
BRANCH  11  13
ATOM     13  C   UNL     1       0.007  14.463  21.278  0.00  0.00    +0.000 A 
ATOM     14  C   UNL     1       1.158  14.538  20.515  0.00  0.00    +0.000 A 
ATOM     15  C   UNL     1       1.029  15.388  19.369  0.00  0.00    +0.000 A 
ATOM     16  C   UNL     1      -0.203  16.011  19.369  0.00  0.00    +0.000 A 
ATOM     17  S   UNL     1      -1.073  15.711  20.810  0.00  0.00    +0.000 S 
ATOM     18  C   UNL     1      -0.835  16.790  18.264  0.00  0.00    +0.000 C 
ATOM     19  C   UNL     1       0.006  17.916  17.665  0.00  0.00    +0.000 C 
ATOM     20  C   UNL     1       1.477  18.002  18.065  0.00  0.00    +0.000 C 
ATOM     21  C   UNL     1       2.320  16.813  17.622  0.00  0.00    +0.000 C 
ATOM     22  C   UNL     1       2.044  15.451  18.265  0.00  0.00    +0.000 C 
ENDBRANCH  11  13
BRANCH  10  23
ATOM     23  C   UNL     1      -1.607  11.487  23.054  0.00  0.00    +0.000 C 
BRANCH  23  24
ATOM     24  C   UNL     1      -1.009  10.075  23.153  0.00  0.00    +0.000 C 
BRANCH  24  26
ATOM     25  C   UNL     1       1.058   9.170  22.487  0.00  0.00    +0.000 C 
ATOM     26  O   UNL     1       0.412  10.140  23.308  0.00  0.00    +0.000 OA
ENDBRANCH  24  26
ENDBRANCH  23  24
ENDBRANCH  10  23
ENDBRANCH   1  10
BRANCH   2  27
ATOM     27  N   UNL     1      -3.623  13.169  21.522  0.00  0.00    +0.000 N 
ATOM     28  H   UNL     1      -3.063  13.887  21.999  0.00  0.00    +0.000 HD
ATOM     29  H   UNL     1      -3.985  12.504  22.198  0.00  0.00    +0.000 HD
ENDBRANCH   2  27
BRANCH   3  30
ATOM     30  C   UNL     1      -4.928  12.566  19.053  0.00  0.00    +0.000 C 
BRANCH  30  31
ATOM     31  C   UNL     1      -5.882  11.518  19.604  0.00  0.00    +0.000 A 
ATOM     32  C   UNL     1      -6.703  11.804  20.708  0.00  0.00    +0.000 A 
ATOM     33  C   UNL     1      -7.690  10.901  21.122  0.00  0.00    +0.000 A 
ATOM     34  C   UNL     1      -7.869   9.699  20.442  0.00  0.00    +0.000 A 
ATOM     35  C   UNL     1      -7.041   9.384  19.370  0.00  0.00    +0.000 A 
ATOM     36  C   UNL     1      -6.050  10.282  18.959  0.00  0.00    +0.000 A 
ENDBRANCH  30  31
ENDBRANCH   3  30
TORSDOF 8
ENDMDL
MODEL 6
REMARK VINA RESULT:      -5.7      2.428      4.791
REMARK  Name = 
REMARK  9 active torsions:
REMARK  status: ('A' for Active; 'I' for Inactive)
REMARK    1  A    between atoms: C_1  and  O_2
REMARK    2  A    between atoms: O_2  and  C_3
REMARK    3  A    between atoms: C_3  and  C_4
REMARK    4  A    between atoms: C_4  and  N_5
REMARK    5  A    between atoms: N_5  and  C_18
REMARK    6  A    between atoms: C_6  and  C_8
REMARK    7  A    between atoms: C_19  and  N_20
REMARK    8  A    between atoms: N_21  and  C_22
REMARK    9  A    between atoms: C_22  and  C_23
REMARK                            x       y       z     vdW  Elec       q    Type
REMARK                         _______ _______ _______ _____ _____    ______ ____
ROOT
ATOM      1  C   UNL     1      -1.185  11.776  20.757  0.00  0.00    +0.000 A 
ATOM      2  C   UNL     1      -2.350  12.456  20.617  0.00  0.00    +0.000 A 
ATOM      3  N   UNL     1      -3.115  12.749  21.746  0.00  0.00    +0.000 N 
ATOM      4  C   UNL     1      -2.822  12.224  22.998  0.00  0.00    +0.000 A 
ATOM      5  O   UNL     1      -3.512  12.392  24.003  0.00  0.00    +0.000 OA
ATOM      6  N   UNL     1      -1.678  11.486  23.098  0.00  0.00    +0.000 N 
ATOM      7  C   UNL     1      -0.746  11.337  22.115  0.00  0.00    +0.000 A 
ATOM      8  O   UNL     1       0.354  10.855  22.336  0.00  0.00    +0.000 OA
ATOM      9  H   UNL     1      -1.423  11.179  24.022  0.00  0.00    +0.000 HD
ENDROOT
BRANCH   1  10
ATOM     10  N   UNL     1      -0.332  11.568  19.670  0.00  0.00    +0.000 N 
ATOM     11  C   UNL     1       0.807  12.398  19.464  0.00  0.00    +0.000 C 
ATOM     12  O   UNL     1       1.742  12.021  18.756  0.00  0.00    +0.000 OA
BRANCH  11  13
ATOM     13  C   UNL     1       0.827  13.718  20.119  0.00  0.00    +0.000 A 
ATOM     14  C   UNL     1       1.333  14.135  21.336  0.00  0.00    +0.000 A 
ATOM     15  C   UNL     1       1.425  15.560  21.457  0.00  0.00    +0.000 A 
ATOM     16  C   UNL     1       0.881  16.174  20.346  0.00  0.00    +0.000 A 
ATOM     17  S   UNL     1       0.121  15.052  19.303  0.00  0.00    +0.000 S 
ATOM     18  C   UNL     1       0.971  17.611  19.958  0.00  0.00    +0.000 C 
ATOM     19  C   UNL     1       0.555  18.626  21.023  0.00  0.00    +0.000 C 
ATOM     20  C   UNL     1       0.317  18.116  22.442  0.00  0.00    +0.000 C 
ATOM     21  C   UNL     1       1.555  17.548  23.124  0.00  0.00    +0.000 C 
ATOM     22  C   UNL     1       2.154  16.252  22.572  0.00  0.00    +0.000 C 
ENDBRANCH  11  13
BRANCH  10  23
ATOM     23  C   UNL     1      -0.260  10.177  19.169  0.00  0.00    +0.000 C 
BRANCH  23  24
ATOM     24  C   UNL     1      -0.821   9.987  17.750  0.00  0.00    +0.000 C 
BRANCH  24  26
ATOM     25  C   UNL     1      -2.627  10.720  16.433  0.00  0.00    +0.000 C 
ATOM     26  O   UNL     1      -2.223  10.267  17.723  0.00  0.00    +0.000 OA
ENDBRANCH  24  26
ENDBRANCH  23  24
ENDBRANCH  10  23
ENDBRANCH   1  10
BRANCH   2  27
ATOM     27  N   UNL     1      -2.740  12.889  19.355  0.00  0.00    +0.000 N 
ATOM     28  H   UNL     1      -2.632  13.905  19.249  0.00  0.00    +0.000 HD
ATOM     29  H   UNL     1      -3.690  12.615  19.125  0.00  0.00    +0.000 HD
ENDBRANCH   2  27
BRANCH   3  30
ATOM     30  C   UNL     1      -4.307  13.593  21.638  0.00  0.00    +0.000 C 
BRANCH  30  31
ATOM     31  C   UNL     1      -5.621  12.836  21.520  0.00  0.00    +0.000 A 
ATOM     32  C   UNL     1      -5.883  12.023  20.404  0.00  0.00    +0.000 A 
ATOM     33  C   UNL     1      -7.020  11.206  20.362  0.00  0.00    +0.000 A 
ATOM     34  C   UNL     1      -7.912  11.192  21.431  0.00  0.00    +0.000 A 
ATOM     35  C   UNL     1      -7.686  12.018  22.528  0.00  0.00    +0.000 A 
ATOM     36  C   UNL     1      -6.554  12.839  22.568  0.00  0.00    +0.000 A 
ENDBRANCH  30  31
ENDBRANCH   3  30
TORSDOF 8
ENDMDL
MODEL 7
REMARK VINA RESULT:      -5.6      0.773      1.376
REMARK  Name = 
REMARK  9 active torsions:
REMARK  status: ('A' for Active; 'I' for Inactive)
REMARK    1  A    between atoms: C_1  and  O_2
REMARK    2  A    between atoms: O_2  and  C_3
REMARK    3  A    between atoms: C_3  and  C_4
REMARK    4  A    between atoms: C_4  and  N_5
REMARK    5  A    between atoms: N_5  and  C_18
REMARK    6  A    between atoms: C_6  and  C_8
REMARK    7  A    between atoms: C_19  and  N_20
REMARK    8  A    between atoms: N_21  and  C_22
REMARK    9  A    between atoms: C_22  and  C_23
REMARK                            x       y       z     vdW  Elec       q    Type
REMARK                         _______ _______ _______ _____ _____    ______ ____
ROOT
ATOM      1  C   UNL     1       0.395  12.507  19.974  0.00  0.00    +0.000 A 
ATOM      2  C   UNL     1      -0.498  12.698  18.971  0.00  0.00    +0.000 A 
ATOM      3  N   UNL     1      -1.374  11.669  18.625  0.00  0.00    +0.000 N 
ATOM      4  C   UNL     1      -1.261  10.389  19.150  0.00  0.00    +0.000 A 
ATOM      5  O   UNL     1      -1.960   9.434  18.817  0.00  0.00    +0.000 OA
ATOM      6  N   UNL     1      -0.308  10.206  20.111  0.00  0.00    +0.000 N 
ATOM      7  C   UNL     1       0.437  11.193  20.682  0.00  0.00    +0.000 A 
ATOM      8  O   UNL     1       1.106  10.999  21.685  0.00  0.00    +0.000 OA
ATOM      9  H   UNL     1      -0.284   9.301  20.551  0.00  0.00    +0.000 HD
ENDROOT
BRANCH   1  10
ATOM     10  N   UNL     1       1.206  13.548  20.431  0.00  0.00    +0.000 N 
ATOM     11  C   UNL     1       0.824  14.335  21.555  0.00  0.00    +0.000 C 
ATOM     12  O   UNL     1       1.660  14.990  22.179  0.00  0.00    +0.000 OA
BRANCH  11  13
ATOM     13  C   UNL     1      -0.598  14.344  21.940  0.00  0.00    +0.000 A 
ATOM     14  C   UNL     1      -1.664  15.114  21.511  0.00  0.00    +0.000 A 
ATOM     15  C   UNL     1      -2.940  14.594  21.907  0.00  0.00    +0.000 A 
ATOM     16  C   UNL     1      -2.777  13.489  22.720  0.00  0.00    +0.000 A 
ATOM     17  S   UNL     1      -1.136  13.229  23.128  0.00  0.00    +0.000 S 
ATOM     18  C   UNL     1      -3.819  12.519  23.165  0.00  0.00    +0.000 C 
ATOM     19  C   UNL     1      -5.065  13.117  23.817  0.00  0.00    +0.000 C 
ATOM     20  C   UNL     1      -5.252  14.631  23.747  0.00  0.00    +0.000 C 
ATOM     21  C   UNL     1      -5.433  15.178  22.337  0.00  0.00    +0.000 C 
ATOM     22  C   UNL     1      -4.245  15.105  21.374  0.00  0.00    +0.000 C 
ENDBRANCH  11  13
BRANCH  10  23
ATOM     23  C   UNL     1       2.655  13.395  20.168  0.00  0.00    +0.000 C 
BRANCH  23  24
ATOM     24  C   UNL     1       3.156  14.150  18.927  0.00  0.00    +0.000 C 
BRANCH  24  26
ATOM     25  C   UNL     1       2.693  16.422  18.528  0.00  0.00    +0.000 C 
ATOM     26  O   UNL     1       2.177  15.094  18.484  0.00  0.00    +0.000 OA
ENDBRANCH  24  26
ENDBRANCH  23  24
ENDBRANCH  10  23
ENDBRANCH   1  10
BRANCH   2  27
ATOM     27  N   UNL     1      -0.555  13.933  18.334  0.00  0.00    +0.000 N 
ATOM     28  H   UNL     1      -0.930  14.664  18.950  0.00  0.00    +0.000 HD
ATOM     29  H   UNL     1      -1.085  13.901  17.469  0.00  0.00    +0.000 HD
ENDBRANCH   2  27
BRANCH   3  30
ATOM     30  C   UNL     1      -2.432  11.895  17.637  0.00  0.00    +0.000 C 
BRANCH  30  31
ATOM     31  C   UNL     1      -3.849  11.807  18.182  0.00  0.00    +0.000 A 
ATOM     32  C   UNL     1      -4.849  11.119  17.474  0.00  0.00    +0.000 A 
ATOM     33  C   UNL     1      -6.111  10.904  18.041  0.00  0.00    +0.000 A 
ATOM     34  C   UNL     1      -6.394  11.375  19.320  0.00  0.00    +0.000 A 
ATOM     35  C   UNL     1      -5.427  12.090  20.020  0.00  0.00    +0.000 A 
ATOM     36  C   UNL     1      -4.168  12.312  19.452  0.00  0.00    +0.000 A 
ENDBRANCH  30  31
ENDBRANCH   3  30
TORSDOF 8
ENDMDL
MODEL 8
REMARK VINA RESULT:      -5.5      3.229      5.496
REMARK  Name = 
REMARK  9 active torsions:
REMARK  status: ('A' for Active; 'I' for Inactive)
REMARK    1  A    between atoms: C_1  and  O_2
REMARK    2  A    between atoms: O_2  and  C_3
REMARK    3  A    between atoms: C_3  and  C_4
REMARK    4  A    between atoms: C_4  and  N_5
REMARK    5  A    between atoms: N_5  and  C_18
REMARK    6  A    between atoms: C_6  and  C_8
REMARK    7  A    between atoms: C_19  and  N_20
REMARK    8  A    between atoms: N_21  and  C_22
REMARK    9  A    between atoms: C_22  and  C_23
REMARK                            x       y       z     vdW  Elec       q    Type
REMARK                         _______ _______ _______ _____ _____    ______ ____
ROOT
ATOM      1  C   UNL     1      -4.620  14.195  22.349  0.00  0.00    +0.000 A 
ATOM      2  C   UNL     1      -4.730  14.118  21.000  0.00  0.00    +0.000 A 
ATOM      3  N   UNL     1      -5.543  13.137  20.432  0.00  0.00    +0.000 N 
ATOM      4  C   UNL     1      -6.116  12.120  21.184  0.00  0.00    +0.000 A 
ATOM      5  O   UNL     1      -6.774  11.192  20.715  0.00  0.00    +0.000 OA
ATOM      6  N   UNL     1      -5.934  12.184  22.535  0.00  0.00    +0.000 N 
ATOM      7  C   UNL     1      -5.359  13.220  23.207  0.00  0.00    +0.000 A 
ATOM      8  O   UNL     1      -5.426  13.320  24.421  0.00  0.00    +0.000 OA
ATOM      9  H   UNL     1      -6.421  11.495  23.085  0.00  0.00    +0.000 HD
ENDROOT
BRANCH   1  10
ATOM     10  N   UNL     1      -3.915  15.235  22.961  0.00  0.00    +0.000 N 
ATOM     11  C   UNL     1      -2.490  15.257  22.954  0.00  0.00    +0.000 C 
ATOM     12  O   UNL     1      -1.876  16.306  23.154  0.00  0.00    +0.000 OA
BRANCH  11  13
ATOM     13  C   UNL     1      -1.782  13.988  22.708  0.00  0.00    +0.000 A 
ATOM     14  C   UNL     1      -1.668  12.836  23.464  0.00  0.00    +0.000 A 
ATOM     15  C   UNL     1      -1.152  11.720  22.727  0.00  0.00    +0.000 A 
ATOM     16  C   UNL     1      -0.796  12.110  21.451  0.00  0.00    +0.000 A 
ATOM     17  S   UNL     1      -0.911  13.803  21.242  0.00  0.00    +0.000 S 
ATOM     18  C   UNL     1      -0.434  11.238  20.295  0.00  0.00    +0.000 C 
ATOM     19  C   UNL     1       0.660  10.202  20.547  0.00  0.00    +0.000 C 
ATOM     20  C   UNL     1       1.119   9.981  21.986  0.00  0.00    +0.000 C 
ATOM     21  C   UNL     1       0.045   9.422  22.910  0.00  0.00    +0.000 C 
ATOM     22  C   UNL     1      -1.155  10.312  23.245  0.00  0.00    +0.000 C 
ENDBRANCH  11  13
BRANCH  10  23
ATOM     23  C   UNL     1      -4.615  16.538  23.019  0.00  0.00    +0.000 C 
BRANCH  23  24
ATOM     24  C   UNL     1      -5.459  16.746  24.286  0.00  0.00    +0.000 C 
BRANCH  24  26
ATOM     25  C   UNL     1      -4.069  18.611  24.646  0.00  0.00    +0.000 C 
ATOM     26  O   UNL     1      -4.730  17.505  25.256  0.00  0.00    +0.000 OA
ENDBRANCH  24  26
ENDBRANCH  23  24
ENDBRANCH  10  23
ENDBRANCH   1  10
BRANCH   2  27
ATOM     27  N   UNL     1      -4.065  15.046  20.207  0.00  0.00    +0.000 N 
ATOM     28  H   UNL     1      -4.668  15.842  19.964  0.00  0.00    +0.000 HD
ATOM     29  H   UNL     1      -3.679  14.633  19.363  0.00  0.00    +0.000 HD
ENDBRANCH   2  27
BRANCH   3  30
ATOM     30  C   UNL     1      -5.781  13.114  18.986  0.00  0.00    +0.000 C 
BRANCH  30  31
ATOM     31  C   UNL     1      -4.867  12.188  18.200  0.00  0.00    +0.000 A 
ATOM     32  C   UNL     1      -5.184  11.815  16.883  0.00  0.00    +0.000 A 
ATOM     33  C   UNL     1      -4.275  11.090  16.103  0.00  0.00    +0.000 A 
ATOM     34  C   UNL     1      -3.037  10.726  16.627  0.00  0.00    +0.000 A 
ATOM     35  C   UNL     1      -2.722  11.056  17.941  0.00  0.00    +0.000 A 
ATOM     36  C   UNL     1      -3.632  11.774  18.724  0.00  0.00    +0.000 A 
ENDBRANCH  30  31
ENDBRANCH   3  30
TORSDOF 8
ENDMDL
MODEL 9
REMARK VINA RESULT:      -5.5      2.534      4.729
REMARK  Name = 
REMARK  9 active torsions:
REMARK  status: ('A' for Active; 'I' for Inactive)
REMARK    1  A    between atoms: C_1  and  O_2
REMARK    2  A    between atoms: O_2  and  C_3
REMARK    3  A    between atoms: C_3  and  C_4
REMARK    4  A    between atoms: C_4  and  N_5
REMARK    5  A    between atoms: N_5  and  C_18
REMARK    6  A    between atoms: C_6  and  C_8
REMARK    7  A    between atoms: C_19  and  N_20
REMARK    8  A    between atoms: N_21  and  C_22
REMARK    9  A    between atoms: C_22  and  C_23
REMARK                            x       y       z     vdW  Elec       q    Type
REMARK                         _______ _______ _______ _____ _____    ______ ____
ROOT
ATOM      1  C   UNL     1      -1.222  11.783  20.603  0.00  0.00    +0.000 A 
ATOM      2  C   UNL     1      -2.409  12.424  20.460  0.00  0.00    +0.000 A 
ATOM      3  N   UNL     1      -3.165  12.731  21.591  0.00  0.00    +0.000 N 
ATOM      4  C   UNL     1      -2.838  12.257  22.854  0.00  0.00    +0.000 A 
ATOM      5  O   UNL     1      -3.517  12.437  23.865  0.00  0.00    +0.000 OA
ATOM      6  N   UNL     1      -1.671  11.556  22.960  0.00  0.00    +0.000 N 
ATOM      7  C   UNL     1      -0.750  11.403  21.968  0.00  0.00    +0.000 A 
ATOM      8  O   UNL     1       0.367  10.962  22.186  0.00  0.00    +0.000 OA
ATOM      9  H   UNL     1      -1.393  11.288  23.889  0.00  0.00    +0.000 HD
ENDROOT
BRANCH   1  10
ATOM     10  N   UNL     1      -0.380  11.565  19.510  0.00  0.00    +0.000 N 
ATOM     11  C   UNL     1       0.686  12.464  19.216  0.00  0.00    +0.000 C 
ATOM     12  O   UNL     1       1.631  12.110  18.510  0.00  0.00    +0.000 OA
BRANCH  11  13
ATOM     13  C   UNL     1       0.616  13.825  19.777  0.00  0.00    +0.000 A 
ATOM     14  C   UNL     1      -0.081  14.951  19.379  0.00  0.00    +0.000 A 
ATOM     15  C   UNL     1      -0.122  15.979  20.376  0.00  0.00    +0.000 A 
ATOM     16  C   UNL     1       0.647  15.622  21.466  0.00  0.00    +0.000 A 
ATOM     17  S   UNL     1       1.526  14.182  21.187  0.00  0.00    +0.000 S 
ATOM     18  C   UNL     1       0.703  16.283  22.802  0.00  0.00    +0.000 C 
ATOM     19  C   UNL     1       0.969  17.788  22.801  0.00  0.00    +0.000 C 
ATOM     20  C   UNL     1       0.919  18.522  21.463  0.00  0.00    +0.000 C 
ATOM     21  C   UNL     1      -0.450  18.521  20.795  0.00  0.00    +0.000 C 
ATOM     22  C   UNL     1      -1.004  17.189  20.284  0.00  0.00    +0.000 C 
ENDBRANCH  11  13
BRANCH  10  23
ATOM     23  C   UNL     1      -0.209  10.152  19.104  0.00  0.00    +0.000 C 
BRANCH  23  24
ATOM     24  C   UNL     1      -0.953   9.771  17.814  0.00  0.00    +0.000 C 
BRANCH  24  26
ATOM     25  C   UNL     1      -2.657  10.456  16.343  0.00  0.00    +0.000 C 
ATOM     26  O   UNL     1      -1.720  10.878  17.331  0.00  0.00    +0.000 OA
ENDBRANCH  24  26
ENDBRANCH  23  24
ENDBRANCH  10  23
ENDBRANCH   1  10
BRANCH   2  27
ATOM     27  N   UNL     1      -2.831  12.804  19.191  0.00  0.00    +0.000 N 
ATOM     28  H   UNL     1      -2.573  13.775  18.977  0.00  0.00    +0.000 HD
ATOM     29  H   UNL     1      -3.828  12.671  19.055  0.00  0.00    +0.000 HD
ENDBRANCH   2  27
BRANCH   3  30
ATOM     30  C   UNL     1      -4.384  13.535  21.474  0.00  0.00    +0.000 C 
BRANCH  30  31
ATOM     31  C   UNL     1      -5.675  12.736  21.387  0.00  0.00    +0.000 A 
ATOM     32  C   UNL     1      -5.938  11.917  20.275  0.00  0.00    +0.000 A 
ATOM     33  C   UNL     1      -7.048  11.063  20.259  0.00  0.00    +0.000 A 
ATOM     34  C   UNL     1      -7.912  11.017  21.350  0.00  0.00    +0.000 A 
ATOM     35  C   UNL     1      -7.686  11.848  22.443  0.00  0.00    +0.000 A 
ATOM     36  C   UNL     1      -6.582  12.706  22.458  0.00  0.00    +0.000 A 
ENDBRANCH  30  31
ENDBRANCH   3  30
TORSDOF 8
ENDMDL
