MODEL 1
REMARK VINA RESULT:      -7.8      0.000      0.000
REMARK  Name = 
REMARK  8 active torsions:
REMARK  status: ('A' for Active; 'I' for Inactive)
REMARK    1  A    between atoms: C_1  and  C_2
REMARK    2  A    between atoms: C_2  and  N_3
REMARK    3  A    between atoms: N_7  and  C_8
REMARK    4  A    between atoms: C_8  and  C_9
REMARK    5  A    between atoms: C_8  and  C_10
REMARK    6  A    between atoms: C_12  and  O_13
REMARK    7  A    between atoms: O_13  and  C_14
REMARK    8  A    between atoms: N_19  and  C_20
REMARK                            x       y       z     vdW  Elec       q    Type
REMARK                         _______ _______ _______ _____ _____    ______ ____
ROOT
ATOM      1  N   UNL     1       7.231   7.405  16.751  0.00  0.00    +0.000 N 
ATOM      2  C   UNL     1       6.666   6.131  16.717  0.00  0.00    +0.000 A 
ATOM      3  N   UNL     1       6.627   5.537  15.532  0.00  0.00    +0.000 NA
ATOM      4  C   UNL     1       6.203   4.277  15.519  0.00  0.00    +0.000 A 
ATOM      5  N   UNL     1       6.294   3.529  14.354  0.00  0.00    +0.000 N 
ATOM      6  N   UNL     1       5.772   3.627  16.593  0.00  0.00    +0.000 NA
ATOM      7  C   UNL     1       5.783   4.343  17.714  0.00  0.00    +0.000 A 
ATOM      8  N   UNL     1       6.274   5.564  17.844  0.00  0.00    +0.000 NA
ATOM      9  H   UNL     1       7.764   7.499  15.893  0.00  0.00    +0.000 HD
ATOM     10  H   UNL     1       5.817   2.647  14.493  0.00  0.00    +0.000 HD
ENDROOT
BRANCH   5  11
ATOM     11  C   UNL     1       6.100   4.200  13.073  0.00  0.00    +0.000 C 
ATOM     12  C   UNL     1       7.392   4.146  12.258  0.00  0.00    +0.000 C 
ATOM     13  C   UNL     1       4.988   3.486  12.297  0.00  0.00    +0.000 C 
ENDBRANCH   5  11
BRANCH   1  15
ATOM     14  C   UNL     1       8.305   9.150  18.068  0.00  0.00    +0.000 C 
ATOM     15  C   UNL     1       7.966   7.673  17.979  0.00  0.00    +0.000 C 
ENDBRANCH   1  15
BRANCH   7  16
ATOM     16  O   UNL     1       5.517   3.622  18.900  0.00  0.00    +0.000 OA
BRANCH  16  17
ATOM     17  C   UNL     1       4.209   3.642  19.336  0.00  0.00    +0.000 A 
ATOM     18  C   UNL     1       3.618   2.317  19.119  0.00  0.00    +0.000 A 
ATOM     19  C   UNL     1       2.346   2.167  19.500  0.00  0.00    +0.000 A 
ATOM     20  C   UNL     1       1.587   3.298  20.084  0.00  0.00    +0.000 A 
ATOM     21  O   UNL     1       0.421   3.110  20.420  0.00  0.00    +0.000 OA
ATOM     22  N   UNL     1       2.276   4.501  20.193  0.00  0.00    +0.000 N 
ATOM     23  C   UNL     1       1.614   5.674  20.735  0.00  0.00    +0.000 C 
ATOM     24  N   UNL     1       3.597   4.678  19.813  0.00  0.00    +0.000 NA
ENDBRANCH  16  17
ENDBRANCH   7  16
TORSDOF 4
ENDMDL
MODEL 2
REMARK VINA RESULT:      -7.7      1.025      1.106
REMARK  Name = 
REMARK  8 active torsions:
REMARK  status: ('A' for Active; 'I' for Inactive)
REMARK    1  A    between atoms: C_1  and  C_2
REMARK    2  A    between atoms: C_2  and  N_3
REMARK    3  A    between atoms: N_7  and  C_8
REMARK    4  A    between atoms: C_8  and  C_9
REMARK    5  A    between atoms: C_8  and  C_10
REMARK    6  A    between atoms: C_12  and  O_13
REMARK    7  A    between atoms: O_13  and  C_14
REMARK    8  A    between atoms: N_19  and  C_20
REMARK                            x       y       z     vdW  Elec       q    Type
REMARK                         _______ _______ _______ _____ _____    ______ ____
ROOT
ATOM      1  N   UNL     1       7.255   7.492  16.817  0.00  0.00    +0.000 N 
ATOM      2  C   UNL     1       6.686   6.220  16.774  0.00  0.00    +0.000 A 
ATOM      3  N   UNL     1       6.699   5.611  15.596  0.00  0.00    +0.000 NA
ATOM      4  C   UNL     1       6.272   4.352  15.579  0.00  0.00    +0.000 A 
ATOM      5  N   UNL     1       6.411   3.589  14.429  0.00  0.00    +0.000 N 
ATOM      6  N   UNL     1       5.790   3.718  16.640  0.00  0.00    +0.000 NA
ATOM      7  C   UNL     1       5.753   4.448  17.752  0.00  0.00    +0.000 A 
ATOM      8  N   UNL     1       6.242   5.669  17.888  0.00  0.00    +0.000 NA
ATOM      9  H   UNL     1       7.827   7.573  15.983  0.00  0.00    +0.000 HD
ATOM     10  H   UNL     1       5.925   2.711  14.558  0.00  0.00    +0.000 HD
ENDROOT
BRANCH   5  11
ATOM     11  C   UNL     1       6.279   4.245  13.132  0.00  0.00    +0.000 C 
ATOM     12  C   UNL     1       7.652   4.696  12.635  0.00  0.00    +0.000 C 
ATOM     13  C   UNL     1       5.684   3.251  12.128  0.00  0.00    +0.000 C 
ENDBRANCH   5  11
BRANCH   1  15
ATOM     14  C   UNL     1       8.355   9.232  18.120  0.00  0.00    +0.000 C 
ATOM     15  C   UNL     1       7.935   7.773  18.074  0.00  0.00    +0.000 C 
ENDBRANCH   1  15
BRANCH   7  16
ATOM     16  O   UNL     1       5.430   3.743  18.934  0.00  0.00    +0.000 OA
BRANCH  16  17
ATOM     17  C   UNL     1       4.109   3.372  19.072  0.00  0.00    +0.000 A 
ATOM     18  C   UNL     1       3.523   3.207  17.738  0.00  0.00    +0.000 A 
ATOM     19  C   UNL     1       2.239   2.838  17.697  0.00  0.00    +0.000 A 
ATOM     20  C   UNL     1       1.465   2.636  18.945  0.00  0.00    +0.000 A 
ATOM     21  O   UNL     1       0.288   2.295  18.856  0.00  0.00    +0.000 OA
ATOM     22  N   UNL     1       2.153   2.866  20.132  0.00  0.00    +0.000 N 
ATOM     23  C   UNL     1       1.476   2.714  21.407  0.00  0.00    +0.000 C 
ATOM     24  N   UNL     1       3.486   3.241  20.198  0.00  0.00    +0.000 NA
ENDBRANCH  16  17
ENDBRANCH   7  16
TORSDOF 4
ENDMDL
MODEL 3
REMARK VINA RESULT:      -7.7      1.545      4.328
REMARK  Name = 
REMARK  8 active torsions:
REMARK  status: ('A' for Active; 'I' for Inactive)
REMARK    1  A    between atoms: C_1  and  C_2
REMARK    2  A    between atoms: C_2  and  N_3
REMARK    3  A    between atoms: N_7  and  C_8
REMARK    4  A    between atoms: C_8  and  C_9
REMARK    5  A    between atoms: C_8  and  C_10
REMARK    6  A    between atoms: C_12  and  O_13
REMARK    7  A    between atoms: O_13  and  C_14
REMARK    8  A    between atoms: N_19  and  C_20
REMARK                            x       y       z     vdW  Elec       q    Type
REMARK                         _______ _______ _______ _____ _____    ______ ____
ROOT
ATOM      1  N   UNL     1       6.541   4.197  14.145  0.00  0.00    +0.000 N 
ATOM      2  C   UNL     1       5.921   4.656  15.306  0.00  0.00    +0.000 A 
ATOM      3  N   UNL     1       6.495   5.688  15.909  0.00  0.00    +0.000 NA
ATOM      4  C   UNL     1       5.839   6.205  16.943  0.00  0.00    +0.000 A 
ATOM      5  N   UNL     1       6.279   7.386  17.522  0.00  0.00    +0.000 N 
ATOM      6  N   UNL     1       4.704   5.714  17.423  0.00  0.00    +0.000 NA
ATOM      7  C   UNL     1       4.257   4.633  16.789  0.00  0.00    +0.000 A 
ATOM      8  N   UNL     1       4.786   4.106  15.697  0.00  0.00    +0.000 NA
ATOM      9  H   UNL     1       7.157   4.944  13.840  0.00  0.00    +0.000 HD
ATOM     10  H   UNL     1       5.741   7.561  18.361  0.00  0.00    +0.000 HD
ENDROOT
BRANCH   5  11
ATOM     11  C   UNL     1       7.715   7.646  17.581  0.00  0.00    +0.000 C 
ATOM     12  C   UNL     1       7.966   9.148  17.714  0.00  0.00    +0.000 C 
ATOM     13  C   UNL     1       8.303   6.930  18.802  0.00  0.00    +0.000 C 
ENDBRANCH   5  11
BRANCH   1  15
ATOM     14  C   UNL     1       6.350   3.048  12.006  0.00  0.00    +0.000 C 
ATOM     15  C   UNL     1       5.599   3.714  13.145  0.00  0.00    +0.000 C 
ENDBRANCH   1  15
BRANCH   7  16
ATOM     16  O   UNL     1       2.959   4.207  17.150  0.00  0.00    +0.000 OA
BRANCH  16  17
ATOM     17  C   UNL     1       2.827   3.689  18.422  0.00  0.00    +0.000 A 
ATOM     18  C   UNL     1       1.538   4.117  18.974  0.00  0.00    +0.000 A 
ATOM     19  C   UNL     1       1.251   3.690  20.208  0.00  0.00    +0.000 A 
ATOM     20  C   UNL     1       2.209   2.850  20.964  0.00  0.00    +0.000 A 
ATOM     21  O   UNL     1       1.900   2.480  22.094  0.00  0.00    +0.000 OA
ATOM     22  N   UNL     1       3.405   2.558  20.317  0.00  0.00    +0.000 N 
ATOM     23  C   UNL     1       4.417   1.758  20.983  0.00  0.00    +0.000 C 
ATOM     24  N   UNL     1       3.720   2.983  19.036  0.00  0.00    +0.000 NA
ENDBRANCH  16  17
ENDBRANCH   7  16
TORSDOF 4
ENDMDL
MODEL 4
REMARK VINA RESULT:      -7.4      0.874      1.415
REMARK  Name = 
REMARK  8 active torsions:
REMARK  status: ('A' for Active; 'I' for Inactive)
REMARK    1  A    between atoms: C_1  and  C_2
REMARK    2  A    between atoms: C_2  and  N_3
REMARK    3  A    between atoms: N_7  and  C_8
REMARK    4  A    between atoms: C_8  and  C_9
REMARK    5  A    between atoms: C_8  and  C_10
REMARK    6  A    between atoms: C_12  and  O_13
REMARK    7  A    between atoms: O_13  and  C_14
REMARK    8  A    between atoms: N_19  and  C_20
REMARK                            x       y       z     vdW  Elec       q    Type
REMARK                         _______ _______ _______ _____ _____    ______ ____
ROOT
ATOM      1  N   UNL     1       7.235   7.369  16.632  0.00  0.00    +0.000 N 
ATOM      2  C   UNL     1       6.634   6.112  16.583  0.00  0.00    +0.000 A 
ATOM      3  N   UNL     1       6.624   5.512  15.400  0.00  0.00    +0.000 NA
ATOM      4  C   UNL     1       6.165   4.265  15.377  0.00  0.00    +0.000 A 
ATOM      5  N   UNL     1       6.278   3.507  14.221  0.00  0.00    +0.000 N 
ATOM      6  N   UNL     1       5.675   3.634  16.437  0.00  0.00    +0.000 NA
ATOM      7  C   UNL     1       5.664   4.356  17.554  0.00  0.00    +0.000 A 
ATOM      8  N   UNL     1       6.184   5.564  17.697  0.00  0.00    +0.000 NA
ATOM      9  H   UNL     1       7.803   7.443  15.795  0.00  0.00    +0.000 HD
ATOM     10  H   UNL     1       5.771   2.641  14.346  0.00  0.00    +0.000 HD
ENDROOT
BRANCH   5  11
ATOM     11  C   UNL     1       6.152   4.176  12.929  0.00  0.00    +0.000 C 
ATOM     12  C   UNL     1       7.473   4.083  12.166  0.00  0.00    +0.000 C 
ATOM     13  C   UNL     1       5.053   3.487  12.113  0.00  0.00    +0.000 C 
ENDBRANCH   5  11
BRANCH   1  15
ATOM     14  C   UNL     1       8.271   9.099  17.999  0.00  0.00    +0.000 C 
ATOM     15  C   UNL     1       7.930   7.624  17.886  0.00  0.00    +0.000 C 
ENDBRANCH   1  15
BRANCH   7  16
ATOM     16  O   UNL     1       5.332   3.650  18.733  0.00  0.00    +0.000 OA
BRANCH  16  17
ATOM     17  C   UNL     1       4.006   3.696  19.109  0.00  0.00    +0.000 A 
ATOM     18  C   UNL     1       3.810   4.839  20.007  0.00  0.00    +0.000 A 
ATOM     19  C   UNL     1       2.566   5.030  20.459  0.00  0.00    +0.000 A 
ATOM     20  C   UNL     1       1.468   4.111  20.080  0.00  0.00    +0.000 A 
ATOM     21  O   UNL     1       0.342   4.329  20.519  0.00  0.00    +0.000 OA
ATOM     22  N   UNL     1       1.821   3.052  19.249  0.00  0.00    +0.000 N 
ATOM     23  C   UNL     1       0.820   2.085  18.837  0.00  0.00    +0.000 C 
ATOM     24  N   UNL     1       3.101   2.839  18.762  0.00  0.00    +0.000 NA
ENDBRANCH  16  17
ENDBRANCH   7  16
TORSDOF 4
ENDMDL
MODEL 5
REMARK VINA RESULT:      -7.1      1.315      4.076
REMARK  Name = 
REMARK  8 active torsions:
REMARK  status: ('A' for Active; 'I' for Inactive)
REMARK    1  A    between atoms: C_1  and  C_2
REMARK    2  A    between atoms: C_2  and  N_3
REMARK    3  A    between atoms: N_7  and  C_8
REMARK    4  A    between atoms: C_8  and  C_9
REMARK    5  A    between atoms: C_8  and  C_10
REMARK    6  A    between atoms: C_12  and  O_13
REMARK    7  A    between atoms: O_13  and  C_14
REMARK    8  A    between atoms: N_19  and  C_20
REMARK                            x       y       z     vdW  Elec       q    Type
REMARK                         _______ _______ _______ _____ _____    ______ ____
ROOT
ATOM      1  N   UNL     1       7.259   4.319  14.066  0.00  0.00    +0.000 N 
ATOM      2  C   UNL     1       6.515   4.687  15.186  0.00  0.00    +0.000 A 
ATOM      3  N   UNL     1       6.926   5.767  15.835  0.00  0.00    +0.000 NA
ATOM      4  C   UNL     1       6.148   6.190  16.827  0.00  0.00    +0.000 A 
ATOM      5  N   UNL     1       6.411   7.404  17.443  0.00  0.00    +0.000 N 
ATOM      6  N   UNL     1       5.047   5.565  17.224  0.00  0.00    +0.000 NA
ATOM      7  C   UNL     1       4.770   4.451  16.552  0.00  0.00    +0.000 A 
ATOM      8  N   UNL     1       5.428   4.005  15.495  0.00  0.00    +0.000 NA
ATOM      9  H   UNL     1       7.805   5.136  13.810  0.00  0.00    +0.000 HD
ATOM     10  H   UNL     1       5.802   7.503  18.246  0.00  0.00    +0.000 HD
ENDROOT
BRANCH   5  11
ATOM     11  C   UNL     1       7.800   7.824  17.602  0.00  0.00    +0.000 C 
ATOM     12  C   UNL     1       7.864   9.336  17.816  0.00  0.00    +0.000 C 
ATOM     13  C   UNL     1       8.400   7.119  18.823  0.00  0.00    +0.000 C 
ENDBRANCH   5  11
BRANCH   1  15
ATOM     14  C   UNL     1       7.060   4.076  11.650  0.00  0.00    +0.000 C 
ATOM     15  C   UNL     1       6.448   3.748  13.001  0.00  0.00    +0.000 C 
ENDBRANCH   1  15
BRANCH   7  16
ATOM     16  O   UNL     1       3.508   3.875  16.822  0.00  0.00    +0.000 OA
BRANCH  16  17
ATOM     17  C   UNL     1       3.183   3.732  18.154  0.00  0.00    +0.000 A 
ATOM     18  C   UNL     1       3.855   2.539  18.679  0.00  0.00    +0.000 A 
ATOM     19  C   UNL     1       3.648   2.262  19.970  0.00  0.00    +0.000 A 
ATOM     20  C   UNL     1       2.764   3.115  20.799  0.00  0.00    +0.000 A 
ATOM     21  O   UNL     1       2.606   2.821  21.981  0.00  0.00    +0.000 OA
ATOM     22  N   UNL     1       2.170   4.191  20.147  0.00  0.00    +0.000 N 
ATOM     23  C   UNL     1       1.272   5.074  20.868  0.00  0.00    +0.000 C 
ATOM     24  N   UNL     1       2.377   4.502  18.812  0.00  0.00    +0.000 NA
ENDBRANCH  16  17
ENDBRANCH   7  16
TORSDOF 4
ENDMDL
MODEL 6
REMARK VINA RESULT:      -6.9      2.807      7.330
REMARK  Name = 
REMARK  8 active torsions:
REMARK  status: ('A' for Active; 'I' for Inactive)
REMARK    1  A    between atoms: C_1  and  C_2
REMARK    2  A    between atoms: C_2  and  N_3
REMARK    3  A    between atoms: N_7  and  C_8
REMARK    4  A    between atoms: C_8  and  C_9
REMARK    5  A    between atoms: C_8  and  C_10
REMARK    6  A    between atoms: C_12  and  O_13
REMARK    7  A    between atoms: O_13  and  C_14
REMARK    8  A    between atoms: N_19  and  C_20
REMARK                            x       y       z     vdW  Elec       q    Type
REMARK                         _______ _______ _______ _____ _____    ______ ____
ROOT
ATOM      1  N   UNL     1       1.082   3.668  20.563  0.00  0.00    +0.000 N 
ATOM      2  C   UNL     1       1.524   4.826  19.926  0.00  0.00    +0.000 A 
ATOM      3  N   UNL     1       1.352   5.963  20.587  0.00  0.00    +0.000 NA
ATOM      4  C   UNL     1       1.884   7.050  20.038  0.00  0.00    +0.000 A 
ATOM      5  N   UNL     1       1.900   8.244  20.743  0.00  0.00    +0.000 N 
ATOM      6  N   UNL     1       2.506   7.061  18.866  0.00  0.00    +0.000 NA
ATOM      7  C   UNL     1       2.555   5.881  18.255  0.00  0.00    +0.000 A 
ATOM      8  N   UNL     1       2.141   4.732  18.763  0.00  0.00    +0.000 NA
ATOM      9  H   UNL     1       0.975   3.909  21.543  0.00  0.00    +0.000 HD
ATOM     10  H   UNL     1       2.225   8.982  20.131  0.00  0.00    +0.000 HD
ENDROOT
BRANCH   5  11
ATOM     11  C   UNL     1       0.780   8.552  21.627  0.00  0.00    +0.000 C 
ATOM     12  C   UNL     1       1.289   9.255  22.885  0.00  0.00    +0.000 C 
ATOM     13  C   UNL     1      -0.195   9.481  20.894  0.00  0.00    +0.000 C 
ENDBRANCH   5  11
BRANCH   1  15
ATOM     14  C   UNL     1       3.004   2.392  21.346  0.00  0.00    +0.000 C 
ATOM     15  C   UNL     1       1.919   2.508  20.290  0.00  0.00    +0.000 C 
ENDBRANCH   1  15
BRANCH   7  16
ATOM     16  O   UNL     1       3.376   5.823  17.105  0.00  0.00    +0.000 OA
BRANCH  16  17
ATOM     17  C   UNL     1       4.689   5.461  17.320  0.00  0.00    +0.000 A 
ATOM     18  C   UNL     1       5.151   4.664  16.179  0.00  0.00    +0.000 A 
ATOM     19  C   UNL     1       6.417   4.237  16.229  0.00  0.00    +0.000 A 
ATOM     20  C   UNL     1       7.279   4.546  17.395  0.00  0.00    +0.000 A 
ATOM     21  O   UNL     1       8.436   4.133  17.394  0.00  0.00    +0.000 OA
ATOM     22  N   UNL     1       6.684   5.282  18.413  0.00  0.00    +0.000 N 
ATOM     23  C   UNL     1       7.439   5.618  19.607  0.00  0.00    +0.000 C 
ATOM     24  N   UNL     1       5.376   5.741  18.380  0.00  0.00    +0.000 NA
ENDBRANCH  16  17
ENDBRANCH   7  16
TORSDOF 4
ENDMDL
MODEL 7
REMARK VINA RESULT:      -6.8      4.536      6.685
REMARK  Name = 
REMARK  8 active torsions:
REMARK  status: ('A' for Active; 'I' for Inactive)
REMARK    1  A    between atoms: C_1  and  C_2
REMARK    2  A    between atoms: C_2  and  N_3
REMARK    3  A    between atoms: N_7  and  C_8
REMARK    4  A    between atoms: C_8  and  C_9
REMARK    5  A    between atoms: C_8  and  C_10
REMARK    6  A    between atoms: C_12  and  O_13
REMARK    7  A    between atoms: O_13  and  C_14
REMARK    8  A    between atoms: N_19  and  C_20
REMARK                            x       y       z     vdW  Elec       q    Type
REMARK                         _______ _______ _______ _____ _____    ______ ____
ROOT
ATOM      1  N   UNL     1       2.902   5.165  20.500  0.00  0.00    +0.000 N 
ATOM      2  C   UNL     1       3.098   6.063  19.452  0.00  0.00    +0.000 A 
ATOM      3  N   UNL     1       4.160   5.850  18.687  0.00  0.00    +0.000 NA
ATOM      4  C   UNL     1       4.280   6.628  17.615  0.00  0.00    +0.000 A 
ATOM      5  N   UNL     1       5.262   6.361  16.673  0.00  0.00    +0.000 N 
ATOM      6  N   UNL     1       3.447   7.617  17.320  0.00  0.00    +0.000 NA
ATOM      7  C   UNL     1       2.461   7.791  18.196  0.00  0.00    +0.000 A 
ATOM      8  N   UNL     1       2.205   7.011  19.233  0.00  0.00    +0.000 NA
ATOM      9  H   UNL     1       3.467   4.351  20.282  0.00  0.00    +0.000 HD
ATOM     10  H   UNL     1       5.285   7.118  16.001  0.00  0.00    +0.000 HD
ENDROOT
BRANCH   5  11
ATOM     11  C   UNL     1       6.543   5.828  17.126  0.00  0.00    +0.000 C 
ATOM     12  C   UNL     1       7.155   4.950  16.034  0.00  0.00    +0.000 C 
ATOM     13  C   UNL     1       7.493   6.993  17.424  0.00  0.00    +0.000 C 
ENDBRANCH   5  11
BRANCH   1  15
ATOM     14  C   UNL     1       1.097   3.562  20.171  0.00  0.00    +0.000 C 
ATOM     15  C   UNL     1       1.496   4.899  20.771  0.00  0.00    +0.000 C 
ENDBRANCH   1  15
BRANCH   7  16
ATOM     16  O   UNL     1       1.454   8.704  17.808  0.00  0.00    +0.000 OA
BRANCH  16  17
ATOM     17  C   UNL     1       1.476   9.929  18.439  0.00  0.00    +0.000 A 
ATOM     18  C   UNL     1       0.610   9.867  19.621  0.00  0.00    +0.000 A 
ATOM     19  C   UNL     1       0.527  10.982  20.354  0.00  0.00    +0.000 A 
ATOM     20  C   UNL     1       1.260  12.208  19.961  0.00  0.00    +0.000 A 
ATOM     21  O   UNL     1       1.154  13.207  20.668  0.00  0.00    +0.000 OA
ATOM     22  N   UNL     1       2.012  12.119  18.794  0.00  0.00    +0.000 N 
ATOM     23  C   UNL     1       2.751  13.273  18.314  0.00  0.00    +0.000 C 
ATOM     24  N   UNL     1       2.119  10.972  18.023  0.00  0.00    +0.000 NA
ENDBRANCH  16  17
ENDBRANCH   7  16
TORSDOF 4
ENDMDL
MODEL 8
REMARK VINA RESULT:      -6.8      4.497      6.561
REMARK  Name = 
REMARK  8 active torsions:
REMARK  status: ('A' for Active; 'I' for Inactive)
REMARK    1  A    between atoms: C_1  and  C_2
REMARK    2  A    between atoms: C_2  and  N_3
REMARK    3  A    between atoms: N_7  and  C_8
REMARK    4  A    between atoms: C_8  and  C_9
REMARK    5  A    between atoms: C_8  and  C_10
REMARK    6  A    between atoms: C_12  and  O_13
REMARK    7  A    between atoms: O_13  and  C_14
REMARK    8  A    between atoms: N_19  and  C_20
REMARK                            x       y       z     vdW  Elec       q    Type
REMARK                         _______ _______ _______ _____ _____    ______ ____
ROOT
ATOM      1  N   UNL     1       2.927   5.151  20.474  0.00  0.00    +0.000 N 
ATOM      2  C   UNL     1       3.115   6.058  19.432  0.00  0.00    +0.000 A 
ATOM      3  N   UNL     1       4.163   5.843  18.649  0.00  0.00    +0.000 NA
ATOM      4  C   UNL     1       4.273   6.631  17.583  0.00  0.00    +0.000 A 
ATOM      5  N   UNL     1       5.238   6.366  16.623  0.00  0.00    +0.000 N 
ATOM      6  N   UNL     1       3.444   7.630  17.311  0.00  0.00    +0.000 NA
ATOM      7  C   UNL     1       2.473   7.803  18.204  0.00  0.00    +0.000 A 
ATOM      8  N   UNL     1       2.227   7.015  19.237  0.00  0.00    +0.000 NA
ATOM      9  H   UNL     1       3.482   4.334  20.240  0.00  0.00    +0.000 HD
ATOM     10  H   UNL     1       5.258   7.129  15.959  0.00  0.00    +0.000 HD
ENDROOT
BRANCH   5  11
ATOM     11  C   UNL     1       6.521   5.817  17.051  0.00  0.00    +0.000 C 
ATOM     12  C   UNL     1       7.127   4.976  15.928  0.00  0.00    +0.000 C 
ATOM     13  C   UNL     1       7.474   6.972  17.382  0.00  0.00    +0.000 C 
ENDBRANCH   5  11
BRANCH   1  15
ATOM     14  C   UNL     1       1.089   3.594  20.109  0.00  0.00    +0.000 C 
ATOM     15  C   UNL     1       1.524   4.893  20.764  0.00  0.00    +0.000 C 
ENDBRANCH   1  15
BRANCH   7  16
ATOM     16  O   UNL     1       1.468   8.728  17.840  0.00  0.00    +0.000 OA
BRANCH  16  17
ATOM     17  C   UNL     1       1.300   9.801  18.690  0.00  0.00    +0.000 A 
ATOM     18  C   UNL     1       1.979  10.968  18.117  0.00  0.00    +0.000 A 
ATOM     19  C   UNL     1       1.904  12.102  18.821  0.00  0.00    +0.000 A 
ATOM     20  C   UNL     1       1.188  12.146  20.118  0.00  0.00    +0.000 A 
ATOM     21  O   UNL     1       1.145  13.212  20.727  0.00  0.00    +0.000 OA
ATOM     22  N   UNL     1       0.627  10.947  20.544  0.00  0.00    +0.000 N 
ATOM     23  C   UNL     1      -0.078  10.883  21.812  0.00  0.00    +0.000 C 
ATOM     24  N   UNL     1       0.685   9.762  19.828  0.00  0.00    +0.000 NA
ENDBRANCH  16  17
ENDBRANCH   7  16
TORSDOF 4
ENDMDL
MODEL 9
REMARK VINA RESULT:      -6.6      3.401      6.029
REMARK  Name = 
REMARK  8 active torsions:
REMARK  status: ('A' for Active; 'I' for Inactive)
REMARK    1  A    between atoms: C_1  and  C_2
REMARK    2  A    between atoms: C_2  and  N_3
REMARK    3  A    between atoms: N_7  and  C_8
REMARK    4  A    between atoms: C_8  and  C_9
REMARK    5  A    between atoms: C_8  and  C_10
REMARK    6  A    between atoms: C_12  and  O_13
REMARK    7  A    between atoms: O_13  and  C_14
REMARK    8  A    between atoms: N_19  and  C_20
REMARK                            x       y       z     vdW  Elec       q    Type
REMARK                         _______ _______ _______ _____ _____    ______ ____
ROOT
ATOM      1  N   UNL     1       5.424   3.902  17.038  0.00  0.00    +0.000 N 
ATOM      2  C   UNL     1       4.395   4.619  17.646  0.00  0.00    +0.000 A 
ATOM      3  N   UNL     1       3.725   3.989  18.602  0.00  0.00    +0.000 NA
ATOM      4  C   UNL     1       2.828   4.711  19.267  0.00  0.00    +0.000 A 
ATOM      5  N   UNL     1       2.209   4.182  20.389  0.00  0.00    +0.000 N 
ATOM      6  N   UNL     1       2.538   5.975  18.986  0.00  0.00    +0.000 NA
ATOM      7  C   UNL     1       3.215   6.484  17.960  0.00  0.00    +0.000 A 
ATOM      8  N   UNL     1       4.190   5.878  17.304  0.00  0.00    +0.000 NA
ATOM      9  H   UNL     1       5.635   3.130  17.662  0.00  0.00    +0.000 HD
ATOM     10  H   UNL     1       1.477   4.815  20.688  0.00  0.00    +0.000 HD
ENDROOT
BRANCH   5  11
ATOM     11  C   UNL     1       1.913   2.753  20.420  0.00  0.00    +0.000 C 
ATOM     12  C   UNL     1       1.481   2.343  21.827  0.00  0.00    +0.000 C 
ATOM     13  C   UNL     1       0.773   2.457  19.439  0.00  0.00    +0.000 C 
ENDBRANCH   5  11
BRANCH   1  15
ATOM     14  C   UNL     1       7.619   4.683  17.747  0.00  0.00    +0.000 C 
ATOM     15  C   UNL     1       6.558   4.734  16.663  0.00  0.00    +0.000 C 
ENDBRANCH   1  15
BRANCH   7  16
ATOM     16  O   UNL     1       3.070   7.877  17.765  0.00  0.00    +0.000 OA
BRANCH  16  17
ATOM     17  C   UNL     1       2.121   8.499  18.548  0.00  0.00    +0.000 A 
ATOM     18  C   UNL     1       1.280   9.342  17.692  0.00  0.00    +0.000 A 
ATOM     19  C   UNL     1       0.299  10.013  18.303  0.00  0.00    +0.000 A 
ATOM     20  C   UNL     1       0.106   9.914  19.769  0.00  0.00    +0.000 A 
ATOM     21  O   UNL     1      -0.811  10.548  20.283  0.00  0.00    +0.000 OA
ATOM     22  N   UNL     1       1.008   9.101  20.447  0.00  0.00    +0.000 N 
ATOM     23  C   UNL     1       0.914   8.954  21.889  0.00  0.00    +0.000 C 
ATOM     24  N   UNL     1       2.028   8.389  19.834  0.00  0.00    +0.000 NA
ENDBRANCH  16  17
ENDBRANCH   7  16
TORSDOF 4
ENDMDL
