MODEL 1
REMARK VINA RESULT:      -8.9      0.000      0.000
REMARK  Name = 
REMARK  4 active torsions:
REMARK  status: ('A' for Active; 'I' for Inactive)
REMARK    1  A    between atoms: C_2  and  C_11
REMARK    2  A    between atoms: N_3  and  C_4
REMARK    3  A    between atoms: C_4  and  C_5
REMARK    4  A    between atoms: C_14  and  N_15
REMARK                            x       y       z     vdW  Elec       q    Type
REMARK                         _______ _______ _______ _____ _____    ______ ____
ROOT
ATOM      1  C   UNL     1      -0.578  11.341  22.213  0.00  0.00    +0.000 A 
ATOM      2  C   UNL     1       0.132  11.207  21.040  0.00  0.00    +0.000 A 
ATOM      3  C   UNL     1       0.721   9.977  20.717  0.00  0.00    +0.000 A 
ATOM      4  C   UNL     1       0.620   8.852  21.513  0.00  0.00    +0.000 A 
ATOM      5  C   UNL     1      -0.106   8.985  22.721  0.00  0.00    +0.000 A 
ATOM      6  C   UNL     1      -0.689  10.231  23.069  0.00  0.00    +0.000 A 
ENDROOT
BRANCH   4   7
ATOM      7  N   UNL     1       1.195   7.569  21.161  0.00  0.00    +0.000 N 
ATOM      8  C   UNL     1       1.846   7.347  19.976  0.00  0.00    +0.000 C 
ATOM      9  O   UNL     1       2.007   8.204  19.113  0.00  0.00    +0.000 OA
ATOM     10  N   UNL     1       2.367   6.110  19.679  0.00  0.00    +0.000 N 
ATOM     11  C   UNL     1       2.867   6.010  18.313  0.00  0.00    +0.000 C 
ATOM     12  C   UNL     1       3.088   4.551  18.202  0.00  0.00    +0.000 A 
ATOM     13  C   UNL     1       2.418   3.636  17.410  0.00  0.00    +0.000 A 
ATOM     14  C   UNL     1       2.641   2.280  17.640  0.00  0.00    +0.000 A 
ATOM     15  C   UNL     1       3.600   1.905  18.576  0.00  0.00    +0.000 A 
ATOM     16  F   UNL     1       4.062   0.648  18.580  0.00  0.00    +0.000 F 
ATOM     17  C   UNL     1       4.088   2.826  19.496  0.00  0.00    +0.000 A 
ATOM     18  C   UNL     1       3.601   4.119  19.420  0.00  0.00    +0.000 A 
ATOM     19  C   UNL     1       2.678   4.880  20.417  0.00  0.00    +0.000 C 
ATOM     20  H   UNL     1       0.998   6.775  21.748  0.00  0.00    +0.000 HD
ENDBRANCH   4   7
BRANCH   1  22
ATOM     21  O   UNL     1      -0.696  13.329  23.487  0.00  0.00    +0.000 OA
ATOM     22  C   UNL     1      -1.227  12.624  22.621  0.00  0.00    +0.000 C 
ATOM     23  N   UNL     1      -2.397  12.970  21.990  0.00  0.00    +0.000 N 
ATOM     24  H   UNL     1      -2.875  12.266  21.440  0.00  0.00    +0.000 HD
BRANCH  23  25
ATOM     25  C   UNL     1      -3.128  14.180  22.317  0.00  0.00    +0.000 C 
BRANCH  25  26
ATOM     26  C   UNL     1      -4.614  13.945  22.644  0.00  0.00    +0.000 C 
ATOM     27  C   UNL     1      -4.814  13.063  23.884  0.00  0.00    +0.000 C 
ATOM     28  C   UNL     1      -6.277  12.691  24.087  0.00  0.00    +0.000 C 
ATOM     29  O   UNL     1      -6.814  12.098  22.907  0.00  0.00    +0.000 OA
ATOM     30  C   UNL     1      -6.808  13.006  21.808  0.00  0.00    +0.000 C 
ATOM     31  C   UNL     1      -5.379  13.382  21.436  0.00  0.00    +0.000 C 
ENDBRANCH  25  26
ENDBRANCH  23  25
ENDBRANCH   1  22
TORSDOF 4
ENDMDL
MODEL 2
REMARK VINA RESULT:      -8.9      0.891      1.106
REMARK  Name = 
REMARK  4 active torsions:
REMARK  status: ('A' for Active; 'I' for Inactive)
REMARK    1  A    between atoms: C_2  and  C_11
REMARK    2  A    between atoms: N_3  and  C_4
REMARK    3  A    between atoms: C_4  and  C_5
REMARK    4  A    between atoms: C_14  and  N_15
REMARK                            x       y       z     vdW  Elec       q    Type
REMARK                         _______ _______ _______ _____ _____    ______ ____
ROOT
ATOM      1  C   UNL     1      -0.608  11.569  22.484  0.00  0.00    +0.000 A 
ATOM      2  C   UNL     1       0.265  11.519  21.420  0.00  0.00    +0.000 A 
ATOM      3  C   UNL     1       0.854  10.300  21.057  0.00  0.00    +0.000 A 
ATOM      4  C   UNL     1       0.596   9.107  21.706  0.00  0.00    +0.000 A 
ATOM      5  C   UNL     1      -0.299   9.154  22.802  0.00  0.00    +0.000 A 
ATOM      6  C   UNL     1      -0.884  10.387  23.192  0.00  0.00    +0.000 A 
ENDROOT
BRANCH   4   7
ATOM      7  N   UNL     1       1.174   7.838  21.307  0.00  0.00    +0.000 N 
ATOM      8  C   UNL     1       1.706   7.624  20.063  0.00  0.00    +0.000 C 
ATOM      9  O   UNL     1       1.750   8.475  19.181  0.00  0.00    +0.000 OA
ATOM     10  N   UNL     1       2.234   6.400  19.725  0.00  0.00    +0.000 N 
ATOM     11  C   UNL     1       2.593   6.300  18.315  0.00  0.00    +0.000 C 
ATOM     12  C   UNL     1       2.849   4.848  18.193  0.00  0.00    +0.000 A 
ATOM     13  C   UNL     1       2.132   3.903  17.483  0.00  0.00    +0.000 A 
ATOM     14  C   UNL     1       2.421   2.558  17.700  0.00  0.00    +0.000 A 
ATOM     15  C   UNL     1       3.482   2.223  18.535  0.00  0.00    +0.000 A 
ATOM     16  F   UNL     1       3.983   0.982  18.502  0.00  0.00    +0.000 F 
ATOM     17  C   UNL     1       4.032   3.170  19.392  0.00  0.00    +0.000 A 
ATOM     18  C   UNL     1       3.499   4.446  19.356  0.00  0.00    +0.000 A 
ATOM     19  C   UNL     1       2.658   5.189  20.436  0.00  0.00    +0.000 C 
ATOM     20  H   UNL     1       1.063   7.046  21.917  0.00  0.00    +0.000 HD
ENDBRANCH   4   7
BRANCH   1  22
ATOM     21  O   UNL     1      -0.577  13.838  23.152  0.00  0.00    +0.000 OA
ATOM     22  C   UNL     1      -1.266  12.836  22.928  0.00  0.00    +0.000 C 
ATOM     23  N   UNL     1      -2.634  12.827  23.052  0.00  0.00    +0.000 N 
ATOM     24  H   UNL     1      -3.114  11.935  23.043  0.00  0.00    +0.000 HD
BRANCH  23  25
ATOM     25  C   UNL     1      -3.382  13.989  23.495  0.00  0.00    +0.000 C 
BRANCH  25  26
ATOM     26  C   UNL     1      -4.906  13.862  23.309  0.00  0.00    +0.000 C 
ATOM     27  C   UNL     1      -5.659  15.136  23.719  0.00  0.00    +0.000 C 
ATOM     28  C   UNL     1      -7.168  14.932  23.702  0.00  0.00    +0.000 C 
ATOM     29  O   UNL     1      -7.533  13.806  24.497  0.00  0.00    +0.000 OA
ATOM     30  C   UNL     1      -6.988  12.594  23.981  0.00  0.00    +0.000 C 
ATOM     31  C   UNL     1      -5.465  12.630  24.037  0.00  0.00    +0.000 C 
ENDBRANCH  25  26
ENDBRANCH  23  25
ENDBRANCH   1  22
TORSDOF 4
ENDMDL
MODEL 3
REMARK VINA RESULT:      -8.7      7.873     11.631
REMARK  Name = 
REMARK  4 active torsions:
REMARK  status: ('A' for Active; 'I' for Inactive)
REMARK    1  A    between atoms: C_2  and  C_11
REMARK    2  A    between atoms: N_3  and  C_4
REMARK    3  A    between atoms: C_4  and  C_5
REMARK    4  A    between atoms: C_14  and  N_15
REMARK                            x       y       z     vdW  Elec       q    Type
REMARK                         _______ _______ _______ _____ _____    ______ ____
ROOT
ATOM      1  C   UNL     1       6.173   5.784  18.095  0.00  0.00    +0.000 A 
ATOM      2  C   UNL     1       7.425   5.871  18.664  0.00  0.00    +0.000 A 
ATOM      3  C   UNL     1       8.185   7.036  18.502  0.00  0.00    +0.000 A 
ATOM      4  C   UNL     1       7.744   8.143  17.801  0.00  0.00    +0.000 A 
ATOM      5  C   UNL     1       6.459   8.058  17.212  0.00  0.00    +0.000 A 
ATOM      6  C   UNL     1       5.688   6.874  17.352  0.00  0.00    +0.000 A 
ENDROOT
BRANCH   4   7
ATOM      7  N   UNL     1       8.514   9.364  17.666  0.00  0.00    +0.000 N 
ATOM      8  C   UNL     1       9.007  10.054  18.742  0.00  0.00    +0.000 C 
ATOM      9  O   UNL     1       8.850   9.706  19.908  0.00  0.00    +0.000 OA
ATOM     10  N   UNL     1       9.723  11.214  18.567  0.00  0.00    +0.000 N 
ATOM     11  C   UNL     1      10.016  11.903  19.819  0.00  0.00    +0.000 C 
ATOM     12  C   UNL     1      10.518  13.200  19.314  0.00  0.00    +0.000 A 
ATOM     13  C   UNL     1       9.941  14.451  19.431  0.00  0.00    +0.000 A 
ATOM     14  C   UNL     1      10.474  15.495  18.679  0.00  0.00    +0.000 A 
ATOM     15  C   UNL     1      11.623  15.264  17.927  0.00  0.00    +0.000 A 
ATOM     16  F   UNL     1      12.332  16.303  17.470  0.00  0.00    +0.000 F 
ATOM     17  C   UNL     1      12.043  13.966  17.660  0.00  0.00    +0.000 A 
ATOM     18  C   UNL     1      11.291  12.933  18.190  0.00  0.00    +0.000 A 
ATOM     19  C   UNL     1      10.393  11.894  17.453  0.00  0.00    +0.000 C 
ATOM     20  H   UNL     1       8.579   9.794  16.758  0.00  0.00    +0.000 HD
ENDBRANCH   4   7
BRANCH   1  22
ATOM     21  O   UNL     1       5.622   3.681  19.025  0.00  0.00    +0.000 OA
ATOM     22  C   UNL     1       5.311   4.569  18.224  0.00  0.00    +0.000 C 
ATOM     23  N   UNL     1       4.185   4.509  17.440  0.00  0.00    +0.000 N 
ATOM     24  H   UNL     1       4.092   5.167  16.675  0.00  0.00    +0.000 HD
BRANCH  23  25
ATOM     25  C   UNL     1       3.283   3.372  17.462  0.00  0.00    +0.000 C 
BRANCH  25  26
ATOM     26  C   UNL     1       2.211   3.444  18.566  0.00  0.00    +0.000 C 
ATOM     27  C   UNL     1       2.195   4.800  19.285  0.00  0.00    +0.000 C 
ATOM     28  C   UNL     1       1.259   4.793  20.487  0.00  0.00    +0.000 C 
ATOM     29  O   UNL     1       1.576   3.717  21.366  0.00  0.00    +0.000 OA
ATOM     30  C   UNL     1       1.389   2.449  20.740  0.00  0.00    +0.000 C 
ATOM     31  C   UNL     1       2.349   2.288  19.568  0.00  0.00    +0.000 C 
ENDBRANCH  25  26
ENDBRANCH  23  25
ENDBRANCH   1  22
TORSDOF 4
ENDMDL
MODEL 4
REMARK VINA RESULT:      -8.6      2.394      2.957
REMARK  Name = 
REMARK  4 active torsions:
REMARK  status: ('A' for Active; 'I' for Inactive)
REMARK    1  A    between atoms: C_2  and  C_11
REMARK    2  A    between atoms: N_3  and  C_4
REMARK    3  A    between atoms: C_4  and  C_5
REMARK    4  A    between atoms: C_14  and  N_15
REMARK                            x       y       z     vdW  Elec       q    Type
REMARK                         _______ _______ _______ _____ _____    ______ ____
ROOT
ATOM      1  C   UNL     1      -1.198  11.627  20.160  0.00  0.00    +0.000 A 
ATOM      2  C   UNL     1      -1.449  10.900  19.018  0.00  0.00    +0.000 A 
ATOM      3  C   UNL     1      -0.448  10.082  18.477  0.00  0.00    +0.000 A 
ATOM      4  C   UNL     1       0.807   9.941  19.039  0.00  0.00    +0.000 A 
ATOM      5  C   UNL     1       1.071  10.688  20.212  0.00  0.00    +0.000 A 
ATOM      6  C   UNL     1       0.072  11.536  20.757  0.00  0.00    +0.000 A 
ENDROOT
BRANCH   4   7
ATOM      7  N   UNL     1       1.830   9.065  18.503  0.00  0.00    +0.000 N 
ATOM      8  C   UNL     1       2.154   7.864  19.076  0.00  0.00    +0.000 C 
ATOM      9  O   UNL     1       1.612   7.417  20.083  0.00  0.00    +0.000 OA
ATOM     10  N   UNL     1       3.140   7.071  18.540  0.00  0.00    +0.000 N 
ATOM     11  C   UNL     1       3.469   5.920  19.374  0.00  0.00    +0.000 C 
ATOM     12  C   UNL     1       4.702   5.438  18.712  0.00  0.00    +0.000 A 
ATOM     13  C   UNL     1       5.995   5.433  19.199  0.00  0.00    +0.000 A 
ATOM     14  C   UNL     1       7.032   5.145  18.314  0.00  0.00    +0.000 A 
ATOM     15  C   UNL     1       6.718   4.773  17.010  0.00  0.00    +0.000 A 
ATOM     16  F   UNL     1       7.649   4.183  16.250  0.00  0.00    +0.000 F 
ATOM     17  C   UNL     1       5.445   4.998  16.497  0.00  0.00    +0.000 A 
ATOM     18  C   UNL     1       4.514   5.577  17.341  0.00  0.00    +0.000 A 
ATOM     19  C   UNL     1       3.875   6.996  17.272  0.00  0.00    +0.000 C 
ATOM     20  H   UNL     1       2.416   9.408  17.760  0.00  0.00    +0.000 HD
ENDBRANCH   4   7
BRANCH   1  22
ATOM     21  O   UNL     1      -2.128  12.806  21.987  0.00  0.00    +0.000 OA
ATOM     22  C   UNL     1      -2.218  12.523  20.787  0.00  0.00    +0.000 C 
ATOM     23  N   UNL     1      -3.215  13.009  19.977  0.00  0.00    +0.000 N 
ATOM     24  H   UNL     1      -3.343  12.589  19.064  0.00  0.00    +0.000 HD
BRANCH  23  25
ATOM     25  C   UNL     1      -4.272  13.869  20.477  0.00  0.00    +0.000 C 
BRANCH  25  26
ATOM     26  C   UNL     1      -5.656  13.196  20.526  0.00  0.00    +0.000 C 
ATOM     27  C   UNL     1      -6.152  12.970  21.962  0.00  0.00    +0.000 C 
ATOM     28  C   UNL     1      -7.431  12.145  21.996  0.00  0.00    +0.000 C 
ATOM     29  O   UNL     1      -7.262  10.923  21.282  0.00  0.00    +0.000 OA
ATOM     30  C   UNL     1      -7.002  11.150  19.899  0.00  0.00    +0.000 C 
ATOM     31  C   UNL     1      -5.681  11.889  19.720  0.00  0.00    +0.000 C 
ENDBRANCH  25  26
ENDBRANCH  23  25
ENDBRANCH   1  22
TORSDOF 4
ENDMDL
MODEL 5
REMARK VINA RESULT:      -8.6      4.297     11.483
REMARK  Name = 
REMARK  4 active torsions:
REMARK  status: ('A' for Active; 'I' for Inactive)
REMARK    1  A    between atoms: C_2  and  C_11
REMARK    2  A    between atoms: N_3  and  C_4
REMARK    3  A    between atoms: C_4  and  C_5
REMARK    4  A    between atoms: C_14  and  N_15
REMARK                            x       y       z     vdW  Elec       q    Type
REMARK                         _______ _______ _______ _____ _____    ______ ____
ROOT
ATOM      1  C   UNL     1       2.381   6.160  19.329  0.00  0.00    +0.000 A 
ATOM      2  C   UNL     1       1.850   6.270  20.595  0.00  0.00    +0.000 A 
ATOM      3  C   UNL     1       1.347   7.501  21.036  0.00  0.00    +0.000 A 
ATOM      4  C   UNL     1       1.333   8.642  20.256  0.00  0.00    +0.000 A 
ATOM      5  C   UNL     1       1.880   8.535  18.954  0.00  0.00    +0.000 A 
ATOM      6  C   UNL     1       2.412   7.298  18.504  0.00  0.00    +0.000 A 
ENDROOT
BRANCH   4   7
ATOM      7  N   UNL     1       0.777   9.906  20.696  0.00  0.00    +0.000 N 
ATOM      8  C   UNL     1      -0.072  10.011  21.766  0.00  0.00    +0.000 C 
ATOM      9  O   UNL     1      -0.434   9.057  22.448  0.00  0.00    +0.000 OA
ATOM     10  N   UNL     1      -0.584  11.230  22.142  0.00  0.00    +0.000 N 
ATOM     11  C   UNL     1      -1.600  11.130  23.184  0.00  0.00    +0.000 C 
ATOM     12  C   UNL     1      -2.147  12.504  23.175  0.00  0.00    +0.000 A 
ATOM     13  C   UNL     1      -3.406  12.928  22.793  0.00  0.00    +0.000 A 
ATOM     14  C   UNL     1      -3.624  14.296  22.648  0.00  0.00    +0.000 A 
ATOM     15  C   UNL     1      -2.606  15.180  22.994  0.00  0.00    +0.000 A 
ATOM     16  F   UNL     1      -2.891  16.475  23.178  0.00  0.00    +0.000 F 
ATOM     17  C   UNL     1      -1.303  14.726  23.160  0.00  0.00    +0.000 A 
ATOM     18  C   UNL     1      -1.076  13.372  22.994  0.00  0.00    +0.000 A 
ATOM     19  C   UNL     1      -0.290  12.640  21.865  0.00  0.00    +0.000 C 
ATOM     20  H   UNL     1       0.913  10.720  20.119  0.00  0.00    +0.000 HD
ENDBRANCH   4   7
BRANCH   1  22
ATOM     21  O   UNL     1       3.083   3.913  19.555  0.00  0.00    +0.000 OA
ATOM     22  C   UNL     1       2.940   4.879  18.797  0.00  0.00    +0.000 C 
ATOM     23  N   UNL     1       3.257   4.835  17.461  0.00  0.00    +0.000 N 
ATOM     24  H   UNL     1       3.300   5.706  16.946  0.00  0.00    +0.000 HD
BRANCH  23  25
ATOM     25  C   UNL     1       3.825   3.655  16.836  0.00  0.00    +0.000 C 
BRANCH  25  26
ATOM     26  C   UNL     1       5.304   3.810  16.432  0.00  0.00    +0.000 C 
ATOM     27  C   UNL     1       6.142   4.502  17.517  0.00  0.00    +0.000 C 
ATOM     28  C   UNL     1       7.553   4.810  17.032  0.00  0.00    +0.000 C 
ATOM     29  O   UNL     1       7.517   5.555  15.817  0.00  0.00    +0.000 OA
ATOM     30  C   UNL     1       6.912   4.814  14.759  0.00  0.00    +0.000 C 
ATOM     31  C   UNL     1       5.451   4.524  15.080  0.00  0.00    +0.000 C 
ENDBRANCH  25  26
ENDBRANCH  23  25
ENDBRANCH   1  22
TORSDOF 4
ENDMDL
MODEL 6
REMARK VINA RESULT:      -8.6      4.294     11.156
REMARK  Name = 
REMARK  4 active torsions:
REMARK  status: ('A' for Active; 'I' for Inactive)
REMARK    1  A    between atoms: C_2  and  C_11
REMARK    2  A    between atoms: N_3  and  C_4
REMARK    3  A    between atoms: C_4  and  C_5
REMARK    4  A    between atoms: C_14  and  N_15
REMARK                            x       y       z     vdW  Elec       q    Type
REMARK                         _______ _______ _______ _____ _____    ______ ____
ROOT
ATOM      1  C   UNL     1       1.838   8.125  19.554  0.00  0.00    +0.000 A 
ATOM      2  C   UNL     1       1.321   9.145  18.787  0.00  0.00    +0.000 A 
ATOM      3  C   UNL     1       0.456  10.084  19.366  0.00  0.00    +0.000 A 
ATOM      4  C   UNL     1       0.090  10.062  20.699  0.00  0.00    +0.000 A 
ATOM      5  C   UNL     1       0.618   9.014  21.491  0.00  0.00    +0.000 A 
ATOM      6  C   UNL     1       1.477   8.045  20.910  0.00  0.00    +0.000 A 
ENDROOT
BRANCH   4   7
ATOM      7  N   UNL     1      -0.772  11.055  21.308  0.00  0.00    +0.000 N 
ATOM      8  C   UNL     1      -0.321  12.284  21.710  0.00  0.00    +0.000 C 
ATOM      9  O   UNL     1       0.842  12.660  21.590  0.00  0.00    +0.000 OA
ATOM     10  N   UNL     1      -1.173  13.191  22.294  0.00  0.00    +0.000 N 
ATOM     11  C   UNL     1      -0.489  14.370  22.815  0.00  0.00    +0.000 C 
ATOM     12  C   UNL     1      -1.572  14.997  23.603  0.00  0.00    +0.000 A 
ATOM     13  C   UNL     1      -1.660  15.154  24.974  0.00  0.00    +0.000 A 
ATOM     14  C   UNL     1      -2.877  15.566  25.512  0.00  0.00    +0.000 A 
ATOM     15  C   UNL     1      -3.916  15.903  24.648  0.00  0.00    +0.000 A 
ATOM     16  F   UNL     1      -4.959  16.602  25.112  0.00  0.00    +0.000 F 
ATOM     17  C   UNL     1      -3.870  15.530  23.310  0.00  0.00    +0.000 A 
ATOM     18  C   UNL     1      -2.750  14.842  22.880  0.00  0.00    +0.000 A 
ATOM     19  C   UNL     1      -2.625  13.357  22.425  0.00  0.00    +0.000 C 
ATOM     20  H   UNL     1      -1.708  10.787  21.566  0.00  0.00    +0.000 HD
ENDBRANCH   4   7
BRANCH   1  22
ATOM     21  O   UNL     1       3.008   7.072  17.788  0.00  0.00    +0.000 OA
ATOM     22  C   UNL     1       2.761   7.087  19.000  0.00  0.00    +0.000 C 
ATOM     23  N   UNL     1       3.312   6.194  19.886  0.00  0.00    +0.000 N 
ATOM     24  H   UNL     1       2.923   6.138  20.820  0.00  0.00    +0.000 HD
BRANCH  23  25
ATOM     25  C   UNL     1       4.204   5.130  19.463  0.00  0.00    +0.000 C 
BRANCH  25  26
ATOM     26  C   UNL     1       3.523   3.755  19.333  0.00  0.00    +0.000 C 
ATOM     27  C   UNL     1       3.214   3.385  17.876  0.00  0.00    +0.000 C 
ATOM     28  C   UNL     1       2.381   2.113  17.779  0.00  0.00    +0.000 C 
ATOM     29  O   UNL     1       1.202   2.220  18.572  0.00  0.00    +0.000 OA
ATOM     30  C   UNL     1       1.508   2.361  19.958  0.00  0.00    +0.000 C 
ATOM     31  C   UNL     1       2.263   3.661  20.207  0.00  0.00    +0.000 C 
ENDBRANCH  25  26
ENDBRANCH  23  25
ENDBRANCH   1  22
TORSDOF 4
ENDMDL
MODEL 7
REMARK VINA RESULT:      -8.5      1.778      2.380
REMARK  Name = 
REMARK  4 active torsions:
REMARK  status: ('A' for Active; 'I' for Inactive)
REMARK    1  A    between atoms: C_2  and  C_11
REMARK    2  A    between atoms: N_3  and  C_4
REMARK    3  A    between atoms: C_4  and  C_5
REMARK    4  A    between atoms: C_14  and  N_15
REMARK                            x       y       z     vdW  Elec       q    Type
REMARK                         _______ _______ _______ _____ _____    ______ ____
ROOT
ATOM      1  C   UNL     1      -0.864  11.418  22.285  0.00  0.00    +0.000 A 
ATOM      2  C   UNL     1      -0.642  10.103  22.628  0.00  0.00    +0.000 A 
ATOM      3  C   UNL     1       0.158   9.294  21.810  0.00  0.00    +0.000 A 
ATOM      4  C   UNL     1       0.770   9.746  20.656  0.00  0.00    +0.000 A 
ATOM      5  C   UNL     1       0.542  11.097  20.298  0.00  0.00    +0.000 A 
ATOM      6  C   UNL     1      -0.283  11.920  21.107  0.00  0.00    +0.000 A 
ENDROOT
BRANCH   4   7
ATOM      7  N   UNL     1       1.629   8.921  19.830  0.00  0.00    +0.000 N 
ATOM      8  C   UNL     1       1.866   7.598  20.095  0.00  0.00    +0.000 C 
ATOM      9  O   UNL     1       1.375   6.991  21.042  0.00  0.00    +0.000 OA
ATOM     10  N   UNL     1       2.698   6.856  19.291  0.00  0.00    +0.000 N 
ATOM     11  C   UNL     1       2.970   5.524  19.819  0.00  0.00    +0.000 C 
ATOM     12  C   UNL     1       4.070   5.090  18.929  0.00  0.00    +0.000 A 
ATOM     13  C   UNL     1       5.395   4.858  19.248  0.00  0.00    +0.000 A 
ATOM     14  C   UNL     1       6.301   4.680  18.205  0.00  0.00    +0.000 A 
ATOM     15  C   UNL     1       5.823   4.637  16.898  0.00  0.00    +0.000 A 
ATOM     16  F   UNL     1       6.603   4.147  15.926  0.00  0.00    +0.000 F 
ATOM     17  C   UNL     1       4.541   5.086  16.600  0.00  0.00    +0.000 A 
ATOM     18  C   UNL     1       3.769   5.546  17.650  0.00  0.00    +0.000 A 
ATOM     19  C   UNL     1       3.294   6.997  17.958  0.00  0.00    +0.000 C 
ATOM     20  H   UNL     1       2.177   9.365  19.112  0.00  0.00    +0.000 HD
ENDBRANCH   4   7
BRANCH   1  22
ATOM     21  O   UNL     1      -1.231  13.391  23.536  0.00  0.00    +0.000 OA
ATOM     22  C   UNL     1      -1.711  12.335  23.109  0.00  0.00    +0.000 C 
ATOM     23  N   UNL     1      -3.011  11.957  23.340  0.00  0.00    +0.000 N 
ATOM     24  H   UNL     1      -3.281  11.003  23.131  0.00  0.00    +0.000 HD
BRANCH  23  25
ATOM     25  C   UNL     1      -3.921  12.754  24.142  0.00  0.00    +0.000 C 
BRANCH  25  26
ATOM     26  C   UNL     1      -5.241  13.102  23.430  0.00  0.00    +0.000 C 
ATOM     27  C   UNL     1      -6.469  12.524  24.149  0.00  0.00    +0.000 C 
ATOM     28  C   UNL     1      -7.744  12.721  23.339  0.00  0.00    +0.000 C 
ATOM     29  O   UNL     1      -7.591  12.199  22.022  0.00  0.00    +0.000 OA
ATOM     30  C   UNL     1      -6.577  12.888  21.294  0.00  0.00    +0.000 C 
ATOM     31  C   UNL     1      -5.217  12.685  21.952  0.00  0.00    +0.000 C 
ENDBRANCH  25  26
ENDBRANCH  23  25
ENDBRANCH   1  22
TORSDOF 4
ENDMDL
MODEL 8
REMARK VINA RESULT:      -8.4      0.681      1.120
REMARK  Name = 
REMARK  4 active torsions:
REMARK  status: ('A' for Active; 'I' for Inactive)
REMARK    1  A    between atoms: C_2  and  C_11
REMARK    2  A    between atoms: N_3  and  C_4
REMARK    3  A    between atoms: C_4  and  C_5
REMARK    4  A    between atoms: C_14  and  N_15
REMARK                            x       y       z     vdW  Elec       q    Type
REMARK                         _______ _______ _______ _____ _____    ______ ____
ROOT
ATOM      1  C   UNL     1      -0.440  11.527  22.289  0.00  0.00    +0.000 A 
ATOM      2  C   UNL     1      -0.689  10.425  23.076  0.00  0.00    +0.000 A 
ATOM      3  C   UNL     1      -0.181   9.173  22.706  0.00  0.00    +0.000 A 
ATOM      4  C   UNL     1       0.591   8.967  21.577  0.00  0.00    +0.000 A 
ATOM      5  C   UNL     1       0.848  10.096  20.763  0.00  0.00    +0.000 A 
ATOM      6  C   UNL     1       0.320  11.366  21.117  0.00  0.00    +0.000 A 
ENDROOT
BRANCH   4   7
ATOM      7  N   UNL     1       1.150   7.680  21.214  0.00  0.00    +0.000 N 
ATOM      8  C   UNL     1       1.796   7.461  20.026  0.00  0.00    +0.000 C 
ATOM      9  O   UNL     1       1.966   8.323  19.170  0.00  0.00    +0.000 OA
ATOM     10  N   UNL     1       2.301   6.220  19.718  0.00  0.00    +0.000 N 
ATOM     11  C   UNL     1       2.798   6.125  18.350  0.00  0.00    +0.000 C 
ATOM     12  C   UNL     1       3.001   4.665  18.226  0.00  0.00    +0.000 A 
ATOM     13  C   UNL     1       2.319   3.765  17.428  0.00  0.00    +0.000 A 
ATOM     14  C   UNL     1       2.525   2.405  17.645  0.00  0.00    +0.000 A 
ATOM     15  C   UNL     1       3.480   2.010  18.577  0.00  0.00    +0.000 A 
ATOM     16  F   UNL     1       3.926   0.747  18.569  0.00  0.00    +0.000 F 
ATOM     17  C   UNL     1       3.981   2.917  19.504  0.00  0.00    +0.000 A 
ATOM     18  C   UNL     1       3.510   4.216  19.439  0.00  0.00    +0.000 A 
ATOM     19  C   UNL     1       2.598   4.980  20.444  0.00  0.00    +0.000 C 
ATOM     20  H   UNL     1       0.943   6.884  21.794  0.00  0.00    +0.000 HD
ENDBRANCH   4   7
BRANCH   1  22
ATOM     21  O   UNL     1      -0.208  13.869  22.516  0.00  0.00    +0.000 OA
ATOM     22  C   UNL     1      -0.956  12.890  22.621  0.00  0.00    +0.000 C 
ATOM     23  N   UNL     1      -2.266  12.990  23.021  0.00  0.00    +0.000 N 
ATOM     24  H   UNL     1      -2.760  12.142  23.272  0.00  0.00    +0.000 HD
BRANCH  23  25
ATOM     25  C   UNL     1      -2.872  14.256  23.390  0.00  0.00    +0.000 C 
BRANCH  25  26
ATOM     26  C   UNL     1      -4.376  14.162  23.706  0.00  0.00    +0.000 C 
ATOM     27  C   UNL     1      -4.823  12.729  24.029  0.00  0.00    +0.000 C 
ATOM     28  C   UNL     1      -6.336  12.623  24.161  0.00  0.00    +0.000 C 
ATOM     29  O   UNL     1      -6.980  13.143  23.000  0.00  0.00    +0.000 OA
ATOM     30  C   UNL     1      -6.717  14.534  22.827  0.00  0.00    +0.000 C 
ATOM     31  C   UNL     1      -5.231  14.768  22.584  0.00  0.00    +0.000 C 
ENDBRANCH  25  26
ENDBRANCH  23  25
ENDBRANCH   1  22
TORSDOF 4
ENDMDL
MODEL 9
REMARK VINA RESULT:      -8.4      2.473      2.948
REMARK  Name = 
REMARK  4 active torsions:
REMARK  status: ('A' for Active; 'I' for Inactive)
REMARK    1  A    between atoms: C_2  and  C_11
REMARK    2  A    between atoms: N_3  and  C_4
REMARK    3  A    between atoms: C_4  and  C_5
REMARK    4  A    between atoms: C_14  and  N_15
REMARK                            x       y       z     vdW  Elec       q    Type
REMARK                         _______ _______ _______ _____ _____    ______ ____
ROOT
ATOM      1  C   UNL     1      -1.061  12.253  19.762  0.00  0.00    +0.000 A 
ATOM      2  C   UNL     1       0.232  12.269  20.234  0.00  0.00    +0.000 A 
ATOM      3  C   UNL     1       1.150  11.309  19.787  0.00  0.00    +0.000 A 
ATOM      4  C   UNL     1       0.838  10.328  18.865  0.00  0.00    +0.000 A 
ATOM      5  C   UNL     1      -0.492  10.305  18.379  0.00  0.00    +0.000 A 
ATOM      6  C   UNL     1      -1.436  11.260  18.840  0.00  0.00    +0.000 A 
ENDROOT
BRANCH   4   7
ATOM      7  N   UNL     1       1.796   9.358  18.372  0.00  0.00    +0.000 N 
ATOM      8  C   UNL     1       2.033   8.164  19.001  0.00  0.00    +0.000 C 
ATOM      9  O   UNL     1       1.461   7.804  20.025  0.00  0.00    +0.000 OA
ATOM     10  N   UNL     1       2.961   7.279  18.504  0.00  0.00    +0.000 N 
ATOM     11  C   UNL     1       3.207   6.147  19.391  0.00  0.00    +0.000 C 
ATOM     12  C   UNL     1       4.401   5.549  18.756  0.00  0.00    +0.000 A 
ATOM     13  C   UNL     1       5.692   5.474  19.248  0.00  0.00    +0.000 A 
ATOM     14  C   UNL     1       6.705   5.073  18.380  0.00  0.00    +0.000 A 
ATOM     15  C   UNL     1       6.366   4.665  17.093  0.00  0.00    +0.000 A 
ATOM     16  F   UNL     1       7.252   3.976  16.364  0.00  0.00    +0.000 F 
ATOM     17  C   UNL     1       5.112   4.956  16.567  0.00  0.00    +0.000 A 
ATOM     18  C   UNL     1       4.224   5.638  17.380  0.00  0.00    +0.000 A 
ATOM     19  C   UNL     1       3.689   7.094  17.244  0.00  0.00    +0.000 C 
ATOM     20  H   UNL     1       2.405   9.624  17.617  0.00  0.00    +0.000 HD
ENDBRANCH   4   7
BRANCH   1  22
ATOM     21  O   UNL     1      -1.776  14.429  20.353  0.00  0.00    +0.000 OA
ATOM     22  C   UNL     1      -2.092  13.244  20.200  0.00  0.00    +0.000 C 
ATOM     23  N   UNL     1      -3.369  12.780  20.400  0.00  0.00    +0.000 N 
ATOM     24  H   UNL     1      -3.518  11.778  20.447  0.00  0.00    +0.000 HD
BRANCH  23  25
ATOM     25  C   UNL     1      -4.449  13.642  20.845  0.00  0.00    +0.000 C 
BRANCH  25  26
ATOM     26  C   UNL     1      -4.754  13.536  22.351  0.00  0.00    +0.000 C 
ATOM     27  C   UNL     1      -3.729  12.674  23.102  0.00  0.00    +0.000 C 
ATOM     28  C   UNL     1      -4.144  12.431  24.547  0.00  0.00    +0.000 C 
ATOM     29  O   UNL     1      -5.460  11.886  24.609  0.00  0.00    +0.000 OA
ATOM     30  C   UNL     1      -6.432  12.790  24.089  0.00  0.00    +0.000 C 
ATOM     31  C   UNL     1      -6.186  13.042  22.607  0.00  0.00    +0.000 C 
ENDBRANCH  25  26
ENDBRANCH  23  25
ENDBRANCH   1  22
TORSDOF 4
ENDMDL
