MODEL 1
REMARK VINA RESULT:      -8.2      0.000      0.000
REMARK  Name = 
REMARK  5 active torsions:
REMARK  status: ('A' for Active; 'I' for Inactive)
REMARK    1  A    between atoms: C_1  and  C_9
REMARK    2  A    between atoms: C_2  and  C_3
REMARK    3  A    between atoms: C_9  and  C_10
REMARK    4  A    between atoms: C_10  and  N_11
REMARK    5  A    between atoms: C_14  and  C_15
REMARK                            x       y       z     vdW  Elec       q    Type
REMARK                         _______ _______ _______ _____ _____    ______ ____
ROOT
ATOM      1  N   UNL     1       6.617   5.843  17.636  0.00  0.00    +0.000 NA
ATOM      2  C   UNL     1       6.476   5.378  19.028  0.00  0.00    +0.000 C 
ATOM      3  C   UNL     1       5.165   4.737  19.365  0.00  0.00    +0.000 C 
ATOM      4  C   UNL     1       4.125   4.705  18.517  0.00  0.00    +0.000 C 
ATOM      5  C   UNL     1       4.222   5.326  17.156  0.00  0.00    +0.000 C 
ATOM      6  C   UNL     1       5.348   6.373  17.107  0.00  0.00    +0.000 C 
ENDROOT
BRANCH   4   7
ATOM      7  C   UNL     1       2.857   4.108  18.939  0.00  0.00    +0.000 A 
ATOM      8  C   UNL     1       2.252   4.516  20.133  0.00  0.00    +0.000 A 
ATOM      9  C   UNL     1       1.081   3.898  20.575  0.00  0.00    +0.000 A 
ATOM     10  C   UNL     1       0.513   2.869  19.823  0.00  0.00    +0.000 A 
ATOM     11  C   UNL     1       1.109   2.463  18.630  0.00  0.00    +0.000 A 
ATOM     12  C   UNL     1       2.280   3.080  18.188  0.00  0.00    +0.000 A 
ENDBRANCH   4   7
BRANCH   1  13
ATOM     13  C   UNL     1       7.683   6.864  17.524  0.00  0.00    +0.000 C 
BRANCH  13  14
ATOM     14  C   UNL     1       7.137   8.296  17.433  0.00  0.00    +0.000 C 
BRANCH  14  15
ATOM     15  C   UNL     1       8.124   9.284  17.890  0.00  0.00    +0.000 C 
ATOM     16  C   UNL     1       8.932  10.064  18.315  0.00  0.00    +0.000 C 
BRANCH  16  17
ATOM     17  C   UNL     1       9.895  10.961  18.871  0.00  0.00    +0.000 A 
ATOM     18  C   UNL     1      10.910  11.507  18.093  0.00  0.00    +0.000 A 
ATOM     19  C   UNL     1      11.827  12.378  18.680  0.00  0.00    +0.000 A 
ATOM     20  C   UNL     1      11.690  12.668  20.029  0.00  0.00    +0.000 A 
ATOM     21  N   UNL     1      10.717  12.156  20.814  0.00  0.00    +0.000 NA
ATOM     22  C   UNL     1       9.841  11.313  20.215  0.00  0.00    +0.000 A 
ENDBRANCH  16  17
ENDBRANCH  14  15
ENDBRANCH  13  14
ENDBRANCH   1  13
TORSDOF 5
ENDMDL
MODEL 2
REMARK VINA RESULT:      -8.1      0.649      1.050
REMARK  Name = 
REMARK  5 active torsions:
REMARK  status: ('A' for Active; 'I' for Inactive)
REMARK    1  A    between atoms: C_1  and  C_9
REMARK    2  A    between atoms: C_2  and  C_3
REMARK    3  A    between atoms: C_9  and  C_10
REMARK    4  A    between atoms: C_10  and  N_11
REMARK    5  A    between atoms: C_14  and  C_15
REMARK                            x       y       z     vdW  Elec       q    Type
REMARK                         _______ _______ _______ _____ _____    ______ ____
ROOT
ATOM      1  N   UNL     1       6.727   5.909  17.852  0.00  0.00    +0.000 NA
ATOM      2  C   UNL     1       6.581   5.365  19.215  0.00  0.00    +0.000 C 
ATOM      3  C   UNL     1       5.256   4.735  19.520  0.00  0.00    +0.000 C 
ATOM      4  C   UNL     1       4.213   4.777  18.677  0.00  0.00    +0.000 C 
ATOM      5  C   UNL     1       4.318   5.475  17.355  0.00  0.00    +0.000 C 
ATOM      6  C   UNL     1       5.468   6.498  17.362  0.00  0.00    +0.000 C 
ENDROOT
BRANCH   4   7
ATOM      7  C   UNL     1       2.934   4.185  19.070  0.00  0.00    +0.000 A 
ATOM      8  C   UNL     1       2.432   4.389  20.360  0.00  0.00    +0.000 A 
ATOM      9  C   UNL     1       1.249   3.767  20.761  0.00  0.00    +0.000 A 
ATOM     10  C   UNL     1       0.564   2.938  19.872  0.00  0.00    +0.000 A 
ATOM     11  C   UNL     1       1.057   2.736  18.583  0.00  0.00    +0.000 A 
ATOM     12  C   UNL     1       2.240   3.357  18.182  0.00  0.00    +0.000 A 
ENDBRANCH   4   7
BRANCH   1  13
ATOM     13  C   UNL     1       7.815   6.909  17.795  0.00  0.00    +0.000 C 
BRANCH  13  14
ATOM     14  C   UNL     1       7.315   8.325  17.471  0.00  0.00    +0.000 C 
BRANCH  14  15
ATOM     15  C   UNL     1       8.261   9.353  17.925  0.00  0.00    +0.000 C 
ATOM     16  C   UNL     1       9.025  10.176  18.351  0.00  0.00    +0.000 C 
BRANCH  16  17
ATOM     17  C   UNL     1       9.925  11.134  18.912  0.00  0.00    +0.000 A 
ATOM     18  C   UNL     1       9.938  11.404  20.276  0.00  0.00    +0.000 A 
ATOM     19  C   UNL     1      10.834  12.347  20.776  0.00  0.00    +0.000 A 
ATOM     20  C   UNL     1      11.684  12.986  19.886  0.00  0.00    +0.000 A 
ATOM     21  N   UNL     1      11.699  12.748  18.557  0.00  0.00    +0.000 NA
ATOM     22  C   UNL     1      10.816  11.826  18.100  0.00  0.00    +0.000 A 
ENDBRANCH  16  17
ENDBRANCH  14  15
ENDBRANCH  13  14
ENDBRANCH   1  13
TORSDOF 5
ENDMDL
MODEL 3
REMARK VINA RESULT:      -8.1      0.198      1.044
REMARK  Name = 
REMARK  5 active torsions:
REMARK  status: ('A' for Active; 'I' for Inactive)
REMARK    1  A    between atoms: C_1  and  C_9
REMARK    2  A    between atoms: C_2  and  C_3
REMARK    3  A    between atoms: C_9  and  C_10
REMARK    4  A    between atoms: C_10  and  N_11
REMARK    5  A    between atoms: C_14  and  C_15
REMARK                            x       y       z     vdW  Elec       q    Type
REMARK                         _______ _______ _______ _____ _____    ______ ____
ROOT
ATOM      1  N   UNL     1       6.698   5.814  17.572  0.00  0.00    +0.000 NA
ATOM      2  C   UNL     1       6.504   5.543  19.009  0.00  0.00    +0.000 C 
ATOM      3  C   UNL     1       5.218   4.865  19.370  0.00  0.00    +0.000 C 
ATOM      4  C   UNL     1       4.234   4.639  18.486  0.00  0.00    +0.000 C 
ATOM      5  C   UNL     1       4.371   5.066  17.056  0.00  0.00    +0.000 C 
ATOM      6  C   UNL     1       5.430   6.172  16.910  0.00  0.00    +0.000 C 
ENDROOT
BRANCH   4   7
ATOM      7  C   UNL     1       2.984   4.020  18.928  0.00  0.00    +0.000 A 
ATOM      8  C   UNL     1       2.474   2.906  18.250  0.00  0.00    +0.000 A 
ATOM      9  C   UNL     1       1.246   2.359  18.623  0.00  0.00    +0.000 A 
ATOM     10  C   UNL     1       0.524   2.923  19.675  0.00  0.00    +0.000 A 
ATOM     11  C   UNL     1       1.031   4.028  20.357  0.00  0.00    +0.000 A 
ATOM     12  C   UNL     1       2.259   4.577  19.984  0.00  0.00    +0.000 A 
ENDBRANCH   4   7
BRANCH   1  13
ATOM     13  C   UNL     1       7.701   6.881  17.365  0.00  0.00    +0.000 C 
BRANCH  13  14
ATOM     14  C   UNL     1       7.098   8.292  17.413  0.00  0.00    +0.000 C 
BRANCH  14  15
ATOM     15  C   UNL     1       8.055   9.275  17.939  0.00  0.00    +0.000 C 
ATOM     16  C   UNL     1       8.880  10.045  18.348  0.00  0.00    +0.000 C 
BRANCH  16  17
ATOM     17  C   UNL     1       9.905  10.927  18.813  0.00  0.00    +0.000 A 
ATOM     18  C   UNL     1      10.808  11.515  17.934  0.00  0.00    +0.000 A 
ATOM     19  C   UNL     1      11.790  12.369  18.434  0.00  0.00    +0.000 A 
ATOM     20  C   UNL     1      11.828  12.600  19.801  0.00  0.00    +0.000 A 
ATOM     21  N   UNL     1      10.967  12.047  20.682  0.00  0.00    +0.000 NA
ATOM     22  C   UNL     1      10.024  11.221  20.167  0.00  0.00    +0.000 A 
ENDBRANCH  16  17
ENDBRANCH  14  15
ENDBRANCH  13  14
ENDBRANCH   1  13
TORSDOF 5
ENDMDL
MODEL 4
REMARK VINA RESULT:      -8.1      1.020      1.613
REMARK  Name = 
REMARK  5 active torsions:
REMARK  status: ('A' for Active; 'I' for Inactive)
REMARK    1  A    between atoms: C_1  and  C_9
REMARK    2  A    between atoms: C_2  and  C_3
REMARK    3  A    between atoms: C_9  and  C_10
REMARK    4  A    between atoms: C_10  and  N_11
REMARK    5  A    between atoms: C_14  and  C_15
REMARK                            x       y       z     vdW  Elec       q    Type
REMARK                         _______ _______ _______ _____ _____    ______ ____
ROOT
ATOM      1  N   UNL     1       6.393   6.287  17.368  0.00  0.00    +0.000 NA
ATOM      2  C   UNL     1       6.485   5.650  18.695  0.00  0.00    +0.000 C 
ATOM      3  C   UNL     1       5.262   4.912  19.143  0.00  0.00    +0.000 C 
ATOM      4  C   UNL     1       4.102   4.933  18.467  0.00  0.00    +0.000 C 
ATOM      5  C   UNL     1       3.966   5.719  17.197  0.00  0.00    +0.000 C 
ATOM      6  C   UNL     1       5.041   6.816  17.110  0.00  0.00    +0.000 C 
ENDROOT
BRANCH   4   7
ATOM      7  C   UNL     1       2.934   4.230  18.998  0.00  0.00    +0.000 A 
ATOM      8  C   UNL     1       2.241   3.315  18.197  0.00  0.00    +0.000 A 
ATOM      9  C   UNL     1       1.085   2.698  18.676  0.00  0.00    +0.000 A 
ATOM     10  C   UNL     1       0.618   2.993  19.956  0.00  0.00    +0.000 A 
ATOM     11  C   UNL     1       1.309   3.899  20.760  0.00  0.00    +0.000 A 
ATOM     12  C   UNL     1       2.465   4.518  20.283  0.00  0.00    +0.000 A 
ENDBRANCH   4   7
BRANCH   1  13
ATOM     13  C   UNL     1       7.398   7.362  17.225  0.00  0.00    +0.000 C 
BRANCH  13  14
ATOM     14  C   UNL     1       8.245   7.567  18.489  0.00  0.00    +0.000 C 
BRANCH  14  15
ATOM     15  C   UNL     1       8.682   8.962  18.631  0.00  0.00    +0.000 C 
ATOM     16  C   UNL     1       9.083  10.084  18.781  0.00  0.00    +0.000 C 
BRANCH  16  17
ATOM     17  C   UNL     1       9.604  11.398  18.992  0.00  0.00    +0.000 A 
ATOM     18  C   UNL     1      10.350  11.709  20.124  0.00  0.00    +0.000 A 
ATOM     19  C   UNL     1      10.836  13.005  20.286  0.00  0.00    +0.000 A 
ATOM     20  C   UNL     1      10.555  13.942  19.304  0.00  0.00    +0.000 A 
ATOM     21  N   UNL     1       9.835  13.675  18.192  0.00  0.00    +0.000 NA
ATOM     22  C   UNL     1       9.375  12.407  18.063  0.00  0.00    +0.000 A 
ENDBRANCH  16  17
ENDBRANCH  14  15
ENDBRANCH  13  14
ENDBRANCH   1  13
TORSDOF 5
ENDMDL
MODEL 5
REMARK VINA RESULT:      -8.0      1.318      1.797
REMARK  Name = 
REMARK  5 active torsions:
REMARK  status: ('A' for Active; 'I' for Inactive)
REMARK    1  A    between atoms: C_1  and  C_9
REMARK    2  A    between atoms: C_2  and  C_3
REMARK    3  A    between atoms: C_9  and  C_10
REMARK    4  A    between atoms: C_10  and  N_11
REMARK    5  A    between atoms: C_14  and  C_15
REMARK                            x       y       z     vdW  Elec       q    Type
REMARK                         _______ _______ _______ _____ _____    ______ ____
ROOT
ATOM      1  N   UNL     1       6.437   6.284  17.330  0.00  0.00    +0.000 NA
ATOM      2  C   UNL     1       6.611   5.653  18.652  0.00  0.00    +0.000 C 
ATOM      3  C   UNL     1       5.425   4.899  19.168  0.00  0.00    +0.000 C 
ATOM      4  C   UNL     1       4.230   4.902  18.557  0.00  0.00    +0.000 C 
ATOM      5  C   UNL     1       4.013   5.682  17.295  0.00  0.00    +0.000 C 
ATOM      6  C   UNL     1       5.066   6.794  17.146  0.00  0.00    +0.000 C 
ENDROOT
BRANCH   4   7
ATOM      7  C   UNL     1       3.103   4.185  19.153  0.00  0.00    +0.000 A 
ATOM      8  C   UNL     1       2.896   2.832  18.857  0.00  0.00    +0.000 A 
ATOM      9  C   UNL     1       1.781   2.164  19.367  0.00  0.00    +0.000 A 
ATOM     10  C   UNL     1       0.870   2.847  20.173  0.00  0.00    +0.000 A 
ATOM     11  C   UNL     1       1.076   4.193  20.475  0.00  0.00    +0.000 A 
ATOM     12  C   UNL     1       2.189   4.862  19.966  0.00  0.00    +0.000 A 
ENDBRANCH   4   7
BRANCH   1  13
ATOM     13  C   UNL     1       7.417   7.374  17.130  0.00  0.00    +0.000 C 
BRANCH  13  14
ATOM     14  C   UNL     1       8.153   7.766  18.419  0.00  0.00    +0.000 C 
BRANCH  14  15
ATOM     15  C   UNL     1       8.655   9.146  18.361  0.00  0.00    +0.000 C 
ATOM     16  C   UNL     1       9.069  10.268  18.256  0.00  0.00    +0.000 C 
BRANCH  16  17
ATOM     17  C   UNL     1       9.565  11.596  18.073  0.00  0.00    +0.000 A 
ATOM     18  C   UNL     1       8.710  12.693  18.060  0.00  0.00    +0.000 A 
ATOM     19  C   UNL     1       9.240  13.969  17.877  0.00  0.00    +0.000 A 
ATOM     20  C   UNL     1      10.612  14.096  17.714  0.00  0.00    +0.000 A 
ATOM     21  N   UNL     1      11.470  13.053  17.723  0.00  0.00    +0.000 NA
ATOM     22  C   UNL     1      10.925  11.825  17.901  0.00  0.00    +0.000 A 
ENDBRANCH  16  17
ENDBRANCH  14  15
ENDBRANCH  13  14
ENDBRANCH   1  13
TORSDOF 5
ENDMDL
MODEL 6
REMARK VINA RESULT:      -8.0      1.326      1.562
REMARK  Name = 
REMARK  5 active torsions:
REMARK  status: ('A' for Active; 'I' for Inactive)
REMARK    1  A    between atoms: C_1  and  C_9
REMARK    2  A    between atoms: C_2  and  C_3
REMARK    3  A    between atoms: C_9  and  C_10
REMARK    4  A    between atoms: C_10  and  N_11
REMARK    5  A    between atoms: C_14  and  C_15
REMARK                            x       y       z     vdW  Elec       q    Type
REMARK                         _______ _______ _______ _____ _____    ______ ____
ROOT
ATOM      1  N   UNL     1       7.224   6.376  17.821  0.00  0.00    +0.000 NA
ATOM      2  C   UNL     1       7.044   5.500  18.994  0.00  0.00    +0.000 C 
ATOM      3  C   UNL     1       5.775   4.705  19.016  0.00  0.00    +0.000 C 
ATOM      4  C   UNL     1       4.791   4.866  18.117  0.00  0.00    +0.000 C 
ATOM      5  C   UNL     1       4.912   5.878  17.018  0.00  0.00    +0.000 C 
ATOM      6  C   UNL     1       5.945   6.960  17.375  0.00  0.00    +0.000 C 
ENDROOT
BRANCH   4   7
ATOM      7  C   UNL     1       3.557   4.089  18.237  0.00  0.00    +0.000 A 
ATOM      8  C   UNL     1       2.353   4.602  17.742  0.00  0.00    +0.000 A 
ATOM      9  C   UNL     1       1.162   3.896  17.920  0.00  0.00    +0.000 A 
ATOM     10  C   UNL     1       1.173   2.675  18.594  0.00  0.00    +0.000 A 
ATOM     11  C   UNL     1       2.371   2.157  19.084  0.00  0.00    +0.000 A 
ATOM     12  C   UNL     1       3.562   2.862  18.907  0.00  0.00    +0.000 A 
ENDBRANCH   4   7
BRANCH   1  13
ATOM     13  C   UNL     1       8.202   7.448  18.106  0.00  0.00    +0.000 C 
BRANCH  13  14
ATOM     14  C   UNL     1       7.688   8.847  17.738  0.00  0.00    +0.000 C 
BRANCH  14  15
ATOM     15  C   UNL     1       8.679   9.888  18.040  0.00  0.00    +0.000 C 
ATOM     16  C   UNL     1       9.452  10.779  18.266  0.00  0.00    +0.000 C 
BRANCH  16  17
ATOM     17  C   UNL     1      10.333  11.877  18.515  0.00  0.00    +0.000 A 
ATOM     18  C   UNL     1      11.470  11.729  19.301  0.00  0.00    +0.000 A 
ATOM     19  C   UNL     1      12.298  12.830  19.516  0.00  0.00    +0.000 A 
ATOM     20  C   UNL     1      11.952  14.039  18.932  0.00  0.00    +0.000 A 
ATOM     21  N   UNL     1      10.857  14.217  18.163  0.00  0.00    +0.000 NA
ATOM     22  C   UNL     1      10.070  13.130  17.973  0.00  0.00    +0.000 A 
ENDBRANCH  16  17
ENDBRANCH  14  15
ENDBRANCH  13  14
ENDBRANCH   1  13
TORSDOF 5
ENDMDL
MODEL 7
REMARK VINA RESULT:      -7.8      1.435      1.682
REMARK  Name = 
REMARK  5 active torsions:
REMARK  status: ('A' for Active; 'I' for Inactive)
REMARK    1  A    between atoms: C_1  and  C_9
REMARK    2  A    between atoms: C_2  and  C_3
REMARK    3  A    between atoms: C_9  and  C_10
REMARK    4  A    between atoms: C_10  and  N_11
REMARK    5  A    between atoms: C_14  and  C_15
REMARK                            x       y       z     vdW  Elec       q    Type
REMARK                         _______ _______ _______ _____ _____    ______ ____
ROOT
ATOM      1  N   UNL     1       6.054   6.190  17.295  0.00  0.00    +0.000 NA
ATOM      2  C   UNL     1       6.477   5.282  18.377  0.00  0.00    +0.000 C 
ATOM      3  C   UNL     1       5.371   4.561  19.083  0.00  0.00    +0.000 C 
ATOM      4  C   UNL     1       4.071   4.813  18.861  0.00  0.00    +0.000 C 
ATOM      5  C   UNL     1       3.648   5.857  17.873  0.00  0.00    +0.000 C 
ATOM      6  C   UNL     1       4.782   6.863  17.614  0.00  0.00    +0.000 C 
ENDROOT
BRANCH   4   7
ATOM      7  C   UNL     1       3.048   4.104  19.631  0.00  0.00    +0.000 A 
ATOM      8  C   UNL     1       1.692   4.364  19.403  0.00  0.00    +0.000 A 
ATOM      9  C   UNL     1       0.717   3.744  20.185  0.00  0.00    +0.000 A 
ATOM     10  C   UNL     1       1.095   2.862  21.197  0.00  0.00    +0.000 A 
ATOM     11  C   UNL     1       2.444   2.595  21.424  0.00  0.00    +0.000 A 
ATOM     12  C   UNL     1       3.420   3.215  20.643  0.00  0.00    +0.000 A 
ENDBRANCH   4   7
BRANCH   1  13
ATOM     13  C   UNL     1       7.103   7.193  17.004  0.00  0.00    +0.000 C 
BRANCH  13  14
ATOM     14  C   UNL     1       8.024   7.465  18.203  0.00  0.00    +0.000 C 
BRANCH  14  15
ATOM     15  C   UNL     1       8.499   8.855  18.218  0.00  0.00    +0.000 C 
ATOM     16  C   UNL     1       8.859   9.999  18.282  0.00  0.00    +0.000 C 
BRANCH  16  17
ATOM     17  C   UNL     1       9.261  11.365  18.409  0.00  0.00    +0.000 A 
ATOM     18  C   UNL     1      10.345  11.730  19.199  0.00  0.00    +0.000 A 
ATOM     19  C   UNL     1      10.699  13.075  19.293  0.00  0.00    +0.000 A 
ATOM     20  C   UNL     1       9.949  14.005  18.587  0.00  0.00    +0.000 A 
ATOM     21  N   UNL     1       8.891  13.685  17.810  0.00  0.00    +0.000 NA
ATOM     22  C   UNL     1       8.571  12.370  17.740  0.00  0.00    +0.000 A 
ENDBRANCH  16  17
ENDBRANCH  14  15
ENDBRANCH  13  14
ENDBRANCH   1  13
TORSDOF 5
ENDMDL
MODEL 8
REMARK VINA RESULT:      -7.6      1.270      1.993
REMARK  Name = 
REMARK  5 active torsions:
REMARK  status: ('A' for Active; 'I' for Inactive)
REMARK    1  A    between atoms: C_1  and  C_9
REMARK    2  A    between atoms: C_2  and  C_3
REMARK    3  A    between atoms: C_9  and  C_10
REMARK    4  A    between atoms: C_10  and  N_11
REMARK    5  A    between atoms: C_14  and  C_15
REMARK                            x       y       z     vdW  Elec       q    Type
REMARK                         _______ _______ _______ _____ _____    ______ ____
ROOT
ATOM      1  N   UNL     1       5.904   6.707  17.663  0.00  0.00    +0.000 NA
ATOM      2  C   UNL     1       5.168   5.998  16.600  0.00  0.00    +0.000 C 
ATOM      3  C   UNL     1       4.047   5.120  17.068  0.00  0.00    +0.000 C 
ATOM      4  C   UNL     1       3.803   4.869  18.364  0.00  0.00    +0.000 C 
ATOM      5  C   UNL     1       4.661   5.466  19.438  0.00  0.00    +0.000 C 
ATOM      6  C   UNL     1       6.032   5.885  18.880  0.00  0.00    +0.000 C 
ENDROOT
BRANCH   4   7
ATOM      7  C   UNL     1       2.723   3.956  18.739  0.00  0.00    +0.000 A 
ATOM      8  C   UNL     1       2.484   2.803  17.983  0.00  0.00    +0.000 A 
ATOM      9  C   UNL     1       1.409   1.969  18.296  0.00  0.00    +0.000 A 
ATOM     10  C   UNL     1       0.571   2.286  19.365  0.00  0.00    +0.000 A 
ATOM     11  C   UNL     1       0.809   3.431  20.124  0.00  0.00    +0.000 A 
ATOM     12  C   UNL     1       1.883   4.266  19.812  0.00  0.00    +0.000 A 
ENDBRANCH   4   7
BRANCH   1  13
ATOM     13  C   UNL     1       7.241   7.129  17.189  0.00  0.00    +0.000 C 
BRANCH  13  14
ATOM     14  C   UNL     1       8.179   7.550  18.330  0.00  0.00    +0.000 C 
BRANCH  14  15
ATOM     15  C   UNL     1       8.565   8.964  18.222  0.00  0.00    +0.000 C 
ATOM     16  C   UNL     1       8.937  10.101  18.129  0.00  0.00    +0.000 C 
BRANCH  16  17
ATOM     17  C   UNL     1       9.434  11.437  18.012  0.00  0.00    +0.000 A 
ATOM     18  C   UNL     1      10.796  11.697  17.917  0.00  0.00    +0.000 A 
ATOM     19  C   UNL     1      11.233  13.015  17.805  0.00  0.00    +0.000 A 
ATOM     20  C   UNL     1      10.283  14.026  17.793  0.00  0.00    +0.000 A 
ATOM     21  N   UNL     1       8.953  13.809  17.882  0.00  0.00    +0.000 NA
ATOM     22  C   UNL     1       8.559  12.517  17.991  0.00  0.00    +0.000 A 
ENDBRANCH  16  17
ENDBRANCH  14  15
ENDBRANCH  13  14
ENDBRANCH   1  13
TORSDOF 5
ENDMDL
MODEL 9
REMARK VINA RESULT:      -7.6      5.238      7.942
REMARK  Name = 
REMARK  5 active torsions:
REMARK  status: ('A' for Active; 'I' for Inactive)
REMARK    1  A    between atoms: C_1  and  C_9
REMARK    2  A    between atoms: C_2  and  C_3
REMARK    3  A    between atoms: C_9  and  C_10
REMARK    4  A    between atoms: C_10  and  N_11
REMARK    5  A    between atoms: C_14  and  C_15
REMARK                            x       y       z     vdW  Elec       q    Type
REMARK                         _______ _______ _______ _____ _____    ______ ____
ROOT
ATOM      1  N   UNL     1       3.954   5.177  18.210  0.00  0.00    +0.000 NA
ATOM      2  C   UNL     1       4.517   6.323  17.471  0.00  0.00    +0.000 C 
ATOM      3  C   UNL     1       5.148   5.993  16.153  0.00  0.00    +0.000 C 
ATOM      4  C   UNL     1       5.327   4.736  15.719  0.00  0.00    +0.000 C 
ATOM      5  C   UNL     1       4.898   3.566  16.552  0.00  0.00    +0.000 C 
ATOM      6  C   UNL     1       4.768   3.961  18.033  0.00  0.00    +0.000 C 
ENDROOT
BRANCH   4   7
ATOM      7  C   UNL     1       6.001   4.493  14.443  0.00  0.00    +0.000 A 
ATOM      8  C   UNL     1       7.143   5.226  14.102  0.00  0.00    +0.000 A 
ATOM      9  C   UNL     1       7.746   5.048  12.856  0.00  0.00    +0.000 A 
ATOM     10  C   UNL     1       7.207   4.137  11.947  0.00  0.00    +0.000 A 
ATOM     11  C   UNL     1       6.073   3.400  12.285  0.00  0.00    +0.000 A 
ATOM     12  C   UNL     1       5.469   3.577  13.531  0.00  0.00    +0.000 A 
ENDBRANCH   4   7
BRANCH   1  13
ATOM     13  C   UNL     1       3.814   5.493  19.649  0.00  0.00    +0.000 C 
BRANCH  13  14
ATOM     14  C   UNL     1       2.378   5.324  20.165  0.00  0.00    +0.000 C 
BRANCH  14  15
ATOM     15  C   UNL     1       1.815   6.598  20.632  0.00  0.00    +0.000 C 
ATOM     16  C   UNL     1       1.315   7.636  20.971  0.00  0.00    +0.000 C 
BRANCH  16  17
ATOM     17  C   UNL     1       0.680   8.865  21.333  0.00  0.00    +0.000 A 
ATOM     18  C   UNL     1       0.152   9.718  20.371  0.00  0.00    +0.000 A 
ATOM     19  C   UNL     1      -0.457  10.906  20.772  0.00  0.00    +0.000 A 
ATOM     20  C   UNL     1      -0.513  11.193  22.128  0.00  0.00    +0.000 A 
ATOM     21  N   UNL     1      -0.012  10.386  23.089  0.00  0.00    +0.000 NA
ATOM     22  C   UNL     1       0.575   9.240  22.668  0.00  0.00    +0.000 A 
ENDBRANCH  16  17
ENDBRANCH  14  15
ENDBRANCH  13  14
ENDBRANCH   1  13
TORSDOF 5
ENDMDL
