MODEL 1
REMARK VINA RESULT:      -7.0      0.000      0.000
REMARK  Name = 
REMARK  7 active torsions:
REMARK  status: ('A' for Active; 'I' for Inactive)
REMARK    1  A    between atoms: C_2  and  C_4
REMARK    2  A    between atoms: C_10  and  N_11
REMARK    3  A    between atoms: C_14  and  C_15
REMARK    4  A    between atoms: C_17  and  C_18
REMARK    5  A    between atoms: N_24  and  C_25
REMARK    6  A    between atoms: C_25  and  C_26
REMARK    7  A    between atoms: C_26  and  N_27
REMARK                            x       y       z     vdW  Elec       q    Type
REMARK                         _______ _______ _______ _____ _____    ______ ____
ROOT
ATOM      1  N   UNL     1       1.886   6.296  19.356  0.00  0.00    +0.000 N 
ATOM      2  C   UNL     1       1.632   7.003  18.098  0.00  0.00    +0.000 C 
ATOM      3  C   UNL     1       2.380   8.337  18.169  0.00  0.00    +0.000 C 
ATOM      4  C   UNL     1       1.974   9.166  19.403  0.00  0.00    +0.000 C 
ATOM      5  C   UNL     1       1.983   8.310  20.683  0.00  0.00    +0.000 C 
ATOM      6  C   UNL     1       1.274   6.964  20.507  0.00  0.00    +0.000 C 
ENDROOT
BRANCH   1  13
ATOM      7  C   UNL     1       3.122   4.238  18.800  0.00  0.00    +0.000 A 
ATOM      8  C   UNL     1       3.086   2.843  18.841  0.00  0.00    +0.000 A 
ATOM      9  N   UNL     1       4.051   2.032  18.226  0.00  0.00    +0.000 N 
ATOM     10  N   UNL     1       2.110   2.151  19.443  0.00  0.00    +0.000 NA
ATOM     11  C   UNL     1       1.162   2.882  20.030  0.00  0.00    +0.000 A 
ATOM     12  N   UNL     1       1.072   4.216  20.011  0.00  0.00    +0.000 NA
ATOM     13  C   UNL     1       2.040   4.918  19.371  0.00  0.00    +0.000 A 
ATOM     14  H   UNL     1       4.987   2.280  18.538  0.00  0.00    +0.000 HD
ATOM     15  H   UNL     1       3.819   1.070  18.461  0.00  0.00    +0.000 HD
BRANCH   7  17
ATOM     16  N   UNL     1       5.214   5.418  19.212  0.00  0.00    +0.000 N 
ATOM     17  C   UNL     1       4.333   4.926  18.286  0.00  0.00    +0.000 C 
ATOM     18  O   UNL     1       4.558   5.084  17.093  0.00  0.00    +0.000 OA
ATOM     19  H   UNL     1       6.024   5.922  18.877  0.00  0.00    +0.000 HD
ATOM     20  H   UNL     1       4.989   5.435  20.202  0.00  0.00    +0.000 HD
ENDBRANCH   7  17
ENDBRANCH   1  13
BRANCH   4  21
ATOM     21  C   UNL     1       0.630   9.804  19.187  0.00  0.00    +0.000 A 
ATOM     22  N   UNL     1      -0.060   9.733  18.069  0.00  0.00    +0.000 NA
ATOM     23  C   UNL     1      -1.223  10.412  18.275  0.00  0.00    +0.000 A 
ATOM     24  C   UNL     1      -1.246  10.938  19.545  0.00  0.00    +0.000 A 
ATOM     25  N   UNL     1      -0.062  10.544  20.121  0.00  0.00    +0.000 N 
BRANCH  23  26
ATOM     26  C   UNL     1      -2.225  10.463  17.210  0.00  0.00    +0.000 A 
ATOM     27  C   UNL     1      -3.405  11.264  17.323  0.00  0.00    +0.000 A 
ATOM     28  C   UNL     1      -4.195  11.180  16.198  0.00  0.00    +0.000 A 
ATOM     29  S   UNL     1      -3.527  10.137  15.020  0.00  0.00    +0.000 S 
ATOM     30  C   UNL     1      -2.169   9.798  16.009  0.00  0.00    +0.000 A 
ENDBRANCH  23  26
BRANCH  25  31
ATOM     31  C   UNL     1       0.326  10.807  21.496  0.00  0.00    +0.000 C 
BRANCH  31  32
ATOM     32  C   UNL     1      -0.772  10.441  22.500  0.00  0.00    +0.000 C 
BRANCH  32  33
ATOM     33  N   UNL     1      -1.107  11.600  23.338  0.00  0.00    +0.000 NA
ATOM     34  C   UNL     1      -0.763  12.870  22.637  0.00  0.00    +0.000 C 
ATOM     35  C   UNL     1      -2.064  13.451  23.227  0.00  0.00    +0.000 C 
ATOM     36  C   UNL     1      -2.543  11.985  23.203  0.00  0.00    +0.000 C 
ENDBRANCH  32  33
ENDBRANCH  31  32
ENDBRANCH  25  31
ENDBRANCH   4  21
TORSDOF 7
ENDMDL
MODEL 2
REMARK VINA RESULT:      -6.8      0.964      1.020
REMARK  Name = 
REMARK  7 active torsions:
REMARK  status: ('A' for Active; 'I' for Inactive)
REMARK    1  A    between atoms: C_2  and  C_4
REMARK    2  A    between atoms: C_10  and  N_11
REMARK    3  A    between atoms: C_14  and  C_15
REMARK    4  A    between atoms: C_17  and  C_18
REMARK    5  A    between atoms: N_24  and  C_25
REMARK    6  A    between atoms: C_25  and  C_26
REMARK    7  A    between atoms: C_26  and  N_27
REMARK                            x       y       z     vdW  Elec       q    Type
REMARK                         _______ _______ _______ _____ _____    ______ ____
ROOT
ATOM      1  N   UNL     1       2.228   6.699  18.568  0.00  0.00    +0.000 N 
ATOM      2  C   UNL     1       1.995   7.719  17.542  0.00  0.00    +0.000 C 
ATOM      3  C   UNL     1       2.571   9.035  18.073  0.00  0.00    +0.000 C 
ATOM      4  C   UNL     1       1.970   9.424  19.437  0.00  0.00    +0.000 C 
ATOM      5  C   UNL     1       1.975   8.234  20.415  0.00  0.00    +0.000 C 
ATOM      6  C   UNL     1       1.448   6.941  19.785  0.00  0.00    +0.000 C 
ENDROOT
BRANCH   1  13
ATOM      7  C   UNL     1       3.812   4.978  17.794  0.00  0.00    +0.000 A 
ATOM      8  C   UNL     1       3.940   3.645  17.399  0.00  0.00    +0.000 A 
ATOM      9  N   UNL     1       5.125   3.112  16.871  0.00  0.00    +0.000 N 
ATOM     10  N   UNL     1       2.936   2.762  17.457  0.00  0.00    +0.000 NA
ATOM     11  C   UNL     1       1.784   3.229  17.941  0.00  0.00    +0.000 A 
ATOM     12  N   UNL     1       1.537   4.493  18.301  0.00  0.00    +0.000 NA
ATOM     13  C   UNL     1       2.543   5.397  18.209  0.00  0.00    +0.000 A 
ATOM     14  H   UNL     1       5.909   3.276  17.498  0.00  0.00    +0.000 HD
ATOM     15  H   UNL     1       4.961   2.118  16.727  0.00  0.00    +0.000 HD
BRANCH   7  17
ATOM     16  N   UNL     1       5.829   5.670  18.974  0.00  0.00    +0.000 N 
ATOM     17  C   UNL     1       5.020   5.837  17.881  0.00  0.00    +0.000 C 
ATOM     18  O   UNL     1       5.302   6.683  17.044  0.00  0.00    +0.000 OA
ATOM     19  H   UNL     1       6.635   6.274  19.067  0.00  0.00    +0.000 HD
ATOM     20  H   UNL     1       5.550   5.086  19.756  0.00  0.00    +0.000 HD
ENDBRANCH   7  17
ENDBRANCH   1  13
BRANCH   4  21
ATOM     21  C   UNL     1       0.582   9.975  19.260  0.00  0.00    +0.000 A 
ATOM     22  N   UNL     1      -0.108   9.919  18.142  0.00  0.00    +0.000 NA
ATOM     23  C   UNL     1      -1.316  10.498  18.388  0.00  0.00    +0.000 A 
ATOM     24  C   UNL     1      -1.370  10.945  19.687  0.00  0.00    +0.000 A 
ATOM     25  N   UNL     1      -0.157  10.605  20.237  0.00  0.00    +0.000 N 
BRANCH  23  26
ATOM     26  C   UNL     1      -2.324  10.538  17.329  0.00  0.00    +0.000 A 
ATOM     27  C   UNL     1      -3.532  11.292  17.467  0.00  0.00    +0.000 A 
ATOM     28  C   UNL     1      -4.325  11.207  16.344  0.00  0.00    +0.000 A 
ATOM     29  S   UNL     1      -3.625  10.218  15.137  0.00  0.00    +0.000 S 
ATOM     30  C   UNL     1      -2.251   9.906  16.112  0.00  0.00    +0.000 A 
ENDBRANCH  23  26
BRANCH  25  31
ATOM     31  C   UNL     1       0.218  10.815  21.625  0.00  0.00    +0.000 C 
BRANCH  31  32
ATOM     32  C   UNL     1      -0.932  10.532  22.597  0.00  0.00    +0.000 C 
BRANCH  32  33
ATOM     33  N   UNL     1      -1.236  11.728  23.394  0.00  0.00    +0.000 NA
ATOM     34  C   UNL     1      -0.927  12.965  22.620  0.00  0.00    +0.000 C 
ATOM     35  C   UNL     1      -2.204  13.570  23.236  0.00  0.00    +0.000 C 
ATOM     36  C   UNL     1      -2.678  12.103  23.301  0.00  0.00    +0.000 C 
ENDBRANCH  32  33
ENDBRANCH  31  32
ENDBRANCH  25  31
ENDBRANCH   4  21
TORSDOF 7
ENDMDL
MODEL 3
REMARK VINA RESULT:      -6.8      3.150      8.775
REMARK  Name = 
REMARK  7 active torsions:
REMARK  status: ('A' for Active; 'I' for Inactive)
REMARK    1  A    between atoms: C_2  and  C_4
REMARK    2  A    between atoms: C_10  and  N_11
REMARK    3  A    between atoms: C_14  and  C_15
REMARK    4  A    between atoms: C_17  and  C_18
REMARK    5  A    between atoms: N_24  and  C_25
REMARK    6  A    between atoms: C_25  and  C_26
REMARK    7  A    between atoms: C_26  and  N_27
REMARK                            x       y       z     vdW  Elec       q    Type
REMARK                         _______ _______ _______ _____ _____    ______ ____
ROOT
ATOM      1  N   UNL     1      -1.033  13.006  22.660  0.00  0.00    +0.000 N 
ATOM      2  C   UNL     1      -1.384  11.586  22.569  0.00  0.00    +0.000 C 
ATOM      3  C   UNL     1      -0.083  10.811  22.340  0.00  0.00    +0.000 C 
ATOM      4  C   UNL     1       0.680  11.310  21.097  0.00  0.00    +0.000 C 
ATOM      5  C   UNL     1       0.790  12.846  21.084  0.00  0.00    +0.000 C 
ATOM      6  C   UNL     1      -0.540  13.543  21.390  0.00  0.00    +0.000 C 
ENDROOT
BRANCH   1  13
ATOM      7  C   UNL     1      -3.088  14.044  23.536  0.00  0.00    +0.000 A 
ATOM      8  C   UNL     1      -3.594  14.976  24.443  0.00  0.00    +0.000 A 
ATOM      9  N   UNL     1      -4.946  15.349  24.487  0.00  0.00    +0.000 N 
ATOM     10  N   UNL     1      -2.832  15.624  25.333  0.00  0.00    +0.000 NA
ATOM     11  C   UNL     1      -1.535  15.310  25.318  0.00  0.00    +0.000 A 
ATOM     12  N   UNL     1      -0.939  14.472  24.464  0.00  0.00    +0.000 NA
ATOM     13  C   UNL     1      -1.704  13.842  23.539  0.00  0.00    +0.000 A 
ATOM     14  H   UNL     1      -5.545  14.534  24.587  0.00  0.00    +0.000 HD
ATOM     15  H   UNL     1      -5.048  15.990  25.271  0.00  0.00    +0.000 HD
BRANCH   7  17
ATOM     16  N   UNL     1      -4.155  13.564  21.398  0.00  0.00    +0.000 N 
ATOM     17  C   UNL     1      -4.026  13.231  22.720  0.00  0.00    +0.000 C 
ATOM     18  O   UNL     1      -4.688  12.310  23.179  0.00  0.00    +0.000 OA
ATOM     19  H   UNL     1      -4.817  13.043  20.838  0.00  0.00    +0.000 HD
ATOM     20  H   UNL     1      -3.735  14.408  21.020  0.00  0.00    +0.000 HD
ENDBRANCH   7  17
ENDBRANCH   1  13
BRANCH   4  21
ATOM     21  C   UNL     1       0.027  10.802  19.842  0.00  0.00    +0.000 A 
ATOM     22  N   UNL     1      -1.133  11.217  19.382  0.00  0.00    +0.000 NA
ATOM     23  C   UNL     1      -1.368  10.542  18.223  0.00  0.00    +0.000 A 
ATOM     24  C   UNL     1      -0.337   9.668  17.968  0.00  0.00    +0.000 A 
ATOM     25  N   UNL     1       0.549   9.841  19.003  0.00  0.00    +0.000 N 
BRANCH  23  26
ATOM     26  C   UNL     1      -2.576  10.834  17.451  0.00  0.00    +0.000 A 
ATOM     27  C   UNL     1      -2.696  10.469  16.073  0.00  0.00    +0.000 A 
ATOM     28  C   UNL     1      -3.923  10.818  15.552  0.00  0.00    +0.000 A 
ATOM     29  S   UNL     1      -4.916  11.590  16.710  0.00  0.00    +0.000 S 
ATOM     30  C   UNL     1      -3.710  11.452  17.919  0.00  0.00    +0.000 A 
ENDBRANCH  23  26
BRANCH  25  31
ATOM     31  C   UNL     1       1.835   9.176  19.122  0.00  0.00    +0.000 C 
BRANCH  31  32
ATOM     32  C   UNL     1       2.252   8.461  17.833  0.00  0.00    +0.000 C 
BRANCH  32  33
ATOM     33  N   UNL     1       2.365   7.015  18.061  0.00  0.00    +0.000 NA
ATOM     34  C   UNL     1       3.768   6.558  17.839  0.00  0.00    +0.000 C 
ATOM     35  C   UNL     1       3.568   5.626  19.051  0.00  0.00    +0.000 C 
ATOM     36  C   UNL     1       2.555   6.696  19.507  0.00  0.00    +0.000 C 
ENDBRANCH  32  33
ENDBRANCH  31  32
ENDBRANCH  25  31
ENDBRANCH   4  21
TORSDOF 7
ENDMDL
MODEL 4
REMARK VINA RESULT:      -6.5      2.981      4.290
REMARK  Name = 
REMARK  7 active torsions:
REMARK  status: ('A' for Active; 'I' for Inactive)
REMARK    1  A    between atoms: C_2  and  C_4
REMARK    2  A    between atoms: C_10  and  N_11
REMARK    3  A    between atoms: C_14  and  C_15
REMARK    4  A    between atoms: C_17  and  C_18
REMARK    5  A    between atoms: N_24  and  C_25
REMARK    6  A    between atoms: C_25  and  C_26
REMARK    7  A    between atoms: C_26  and  N_27
REMARK                            x       y       z     vdW  Elec       q    Type
REMARK                         _______ _______ _______ _____ _____    ______ ____
ROOT
ATOM      1  N   UNL     1       1.938   8.125  18.971  0.00  0.00    +0.000 N 
ATOM      2  C   UNL     1       1.926   8.498  20.388  0.00  0.00    +0.000 C 
ATOM      3  C   UNL     1       0.462   8.686  20.794  0.00  0.00    +0.000 C 
ATOM      4  C   UNL     1      -0.260   9.719  19.907  0.00  0.00    +0.000 C 
ATOM      5  C   UNL     1       0.005   9.459  18.412  0.00  0.00    +0.000 C 
ATOM      6  C   UNL     1       1.484   9.213  18.101  0.00  0.00    +0.000 C 
ENDROOT
BRANCH   1  13
ATOM      7  C   UNL     1       3.006   5.904  18.973  0.00  0.00    +0.000 A 
ATOM      8  C   UNL     1       4.036   5.137  18.428  0.00  0.00    +0.000 A 
ATOM      9  N   UNL     1       4.357   3.848  18.881  0.00  0.00    +0.000 N 
ATOM     10  N   UNL     1       4.835   5.572  17.445  0.00  0.00    +0.000 NA
ATOM     11  C   UNL     1       4.576   6.799  16.992  0.00  0.00    +0.000 A 
ATOM     12  N   UNL     1       3.649   7.636  17.472  0.00  0.00    +0.000 NA
ATOM     13  C   UNL     1       2.864   7.210  18.491  0.00  0.00    +0.000 A 
ATOM     14  H   UNL     1       3.540   3.242  18.860  0.00  0.00    +0.000 HD
ATOM     15  H   UNL     1       5.097   3.501  18.276  0.00  0.00    +0.000 HD
BRANCH   7  17
ATOM     16  N   UNL     1       2.275   5.467  21.257  0.00  0.00    +0.000 N 
ATOM     17  C   UNL     1       2.047   5.278  19.919  0.00  0.00    +0.000 C 
ATOM     18  O   UNL     1       1.096   4.599  19.557  0.00  0.00    +0.000 OA
ATOM     19  H   UNL     1       1.652   5.016  21.914  0.00  0.00    +0.000 HD
ATOM     20  H   UNL     1       3.130   5.899  21.594  0.00  0.00    +0.000 HD
ENDBRANCH   7  17
ENDBRANCH   1  13
BRANCH   4  21
ATOM     21  C   UNL     1       0.142  11.115  20.294  0.00  0.00    +0.000 A 
ATOM     22  N   UNL     1       0.897  11.906  19.563  0.00  0.00    +0.000 NA
ATOM     23  C   UNL     1       1.013  13.083  20.237  0.00  0.00    +0.000 A 
ATOM     24  C   UNL     1       0.331  13.014  21.430  0.00  0.00    +0.000 A 
ATOM     25  N   UNL     1      -0.223  11.757  21.457  0.00  0.00    +0.000 N 
BRANCH  23  26
ATOM     26  C   UNL     1       1.764  14.186  19.638  0.00  0.00    +0.000 A 
ATOM     27  C   UNL     1       3.193  14.179  19.576  0.00  0.00    +0.000 A 
ATOM     28  C   UNL     1       3.688  15.302  18.951  0.00  0.00    +0.000 A 
ATOM     29  S   UNL     1       2.442  16.362  18.453  0.00  0.00    +0.000 S 
ATOM     30  C   UNL     1       1.232  15.316  19.066  0.00  0.00    +0.000 A 
ENDBRANCH  23  26
BRANCH  25  31
ATOM     31  C   UNL     1      -1.098  11.253  22.502  0.00  0.00    +0.000 C 
BRANCH  31  32
ATOM     32  C   UNL     1      -1.835  12.372  23.246  0.00  0.00    +0.000 C 
BRANCH  32  33
ATOM     33  N   UNL     1      -3.268  12.065  23.344  0.00  0.00    +0.000 NA
ATOM     34  C   UNL     1      -3.926  12.950  24.347  0.00  0.00    +0.000 C 
ATOM     35  C   UNL     1      -5.125  13.016  23.380  0.00  0.00    +0.000 C 
ATOM     36  C   UNL     1      -4.059  12.770  22.292  0.00  0.00    +0.000 C 
ENDBRANCH  32  33
ENDBRANCH  31  32
ENDBRANCH  25  31
ENDBRANCH   4  21
TORSDOF 7
ENDMDL
MODEL 5
REMARK VINA RESULT:      -6.4      3.083      4.385
REMARK  Name = 
REMARK  7 active torsions:
REMARK  status: ('A' for Active; 'I' for Inactive)
REMARK    1  A    between atoms: C_2  and  C_4
REMARK    2  A    between atoms: C_10  and  N_11
REMARK    3  A    between atoms: C_14  and  C_15
REMARK    4  A    between atoms: C_17  and  C_18
REMARK    5  A    between atoms: N_24  and  C_25
REMARK    6  A    between atoms: C_25  and  C_26
REMARK    7  A    between atoms: C_26  and  N_27
REMARK                            x       y       z     vdW  Elec       q    Type
REMARK                         _______ _______ _______ _____ _____    ______ ____
ROOT
ATOM      1  N   UNL     1       2.202   7.931  18.763  0.00  0.00    +0.000 N 
ATOM      2  C   UNL     1       2.122   8.324  20.172  0.00  0.00    +0.000 C 
ATOM      3  C   UNL     1       0.656   8.655  20.468  0.00  0.00    +0.000 C 
ATOM      4  C   UNL     1       0.103   9.739  19.523  0.00  0.00    +0.000 C 
ATOM      5  C   UNL     1       0.450   9.434  18.054  0.00  0.00    +0.000 C 
ATOM      6  C   UNL     1       1.918   9.045  17.855  0.00  0.00    +0.000 C 
ENDROOT
BRANCH   1  13
ATOM      7  C   UNL     1       3.097   5.641  18.909  0.00  0.00    +0.000 A 
ATOM      8  C   UNL     1       4.082   4.772  18.436  0.00  0.00    +0.000 A 
ATOM      9  N   UNL     1       4.290   3.488  18.963  0.00  0.00    +0.000 N 
ATOM     10  N   UNL     1       4.939   5.095  17.460  0.00  0.00    +0.000 NA
ATOM     11  C   UNL     1       4.786   6.313  16.938  0.00  0.00    +0.000 A 
ATOM     12  N   UNL     1       3.912   7.240  17.346  0.00  0.00    +0.000 NA
ATOM     13  C   UNL     1       3.068   6.927  18.359  0.00  0.00    +0.000 A 
ATOM     14  H   UNL     1       3.431   2.944  18.946  0.00  0.00    +0.000 HD
ATOM     15  H   UNL     1       5.019   3.056  18.400  0.00  0.00    +0.000 HD
BRANCH   7  17
ATOM     16  N   UNL     1       2.288   5.346  21.190  0.00  0.00    +0.000 N 
ATOM     17  C   UNL     1       2.067   5.138  19.854  0.00  0.00    +0.000 C 
ATOM     18  O   UNL     1       1.063   4.540  19.493  0.00  0.00    +0.000 OA
ATOM     19  H   UNL     1       1.615   4.976  21.847  0.00  0.00    +0.000 HD
ATOM     20  H   UNL     1       3.175   5.705  21.531  0.00  0.00    +0.000 HD
ENDBRANCH   7  17
ENDBRANCH   1  13
BRANCH   4  21
ATOM     21  C   UNL     1       0.606  11.096  19.929  0.00  0.00    +0.000 A 
ATOM     22  N   UNL     1       1.614  11.721  19.360  0.00  0.00    +0.000 NA
ATOM     23  C   UNL     1       1.745  12.922  19.989  0.00  0.00    +0.000 A 
ATOM     24  C   UNL     1       0.809  13.037  20.989  0.00  0.00    +0.000 A 
ATOM     25  N   UNL     1       0.085  11.870  20.943  0.00  0.00    +0.000 N 
BRANCH  23  26
ATOM     26  C   UNL     1       2.765  13.865  19.532  0.00  0.00    +0.000 A 
ATOM     27  C   UNL     1       3.673  14.492  20.443  0.00  0.00    +0.000 A 
ATOM     28  C   UNL     1       4.561  15.323  19.796  0.00  0.00    +0.000 A 
ATOM     29  S   UNL     1       4.297  15.356  18.107  0.00  0.00    +0.000 S 
ATOM     30  C   UNL     1       2.994  14.250  18.234  0.00  0.00    +0.000 A 
ENDBRANCH  23  26
BRANCH  25  31
ATOM     31  C   UNL     1      -1.067  11.569  21.775  0.00  0.00    +0.000 C 
BRANCH  31  32
ATOM     32  C   UNL     1      -1.202  12.523  22.966  0.00  0.00    +0.000 C 
BRANCH  32  33
ATOM     33  N   UNL     1      -2.479  13.245  22.902  0.00  0.00    +0.000 NA
ATOM     34  C   UNL     1      -3.312  12.739  21.774  0.00  0.00    +0.000 C 
ATOM     35  C   UNL     1      -4.527  12.892  22.710  0.00  0.00    +0.000 C 
ATOM     36  C   UNL     1      -3.492  12.663  23.831  0.00  0.00    +0.000 C 
ENDBRANCH  32  33
ENDBRANCH  31  32
ENDBRANCH  25  31
ENDBRANCH   4  21
TORSDOF 7
ENDMDL
MODEL 6
REMARK VINA RESULT:      -6.4      1.287      1.510
REMARK  Name = 
REMARK  7 active torsions:
REMARK  status: ('A' for Active; 'I' for Inactive)
REMARK    1  A    between atoms: C_2  and  C_4
REMARK    2  A    between atoms: C_10  and  N_11
REMARK    3  A    between atoms: C_14  and  C_15
REMARK    4  A    between atoms: C_17  and  C_18
REMARK    5  A    between atoms: N_24  and  C_25
REMARK    6  A    between atoms: C_25  and  C_26
REMARK    7  A    between atoms: C_26  and  N_27
REMARK                            x       y       z     vdW  Elec       q    Type
REMARK                         _______ _______ _______ _____ _____    ______ ____
ROOT
ATOM      1  N   UNL     1       2.237   6.714  18.665  0.00  0.00    +0.000 N 
ATOM      2  C   UNL     1       2.052   7.789  17.688  0.00  0.00    +0.000 C 
ATOM      3  C   UNL     1       2.604   9.072  18.315  0.00  0.00    +0.000 C 
ATOM      4  C   UNL     1       1.943   9.388  19.671  0.00  0.00    +0.000 C 
ATOM      5  C   UNL     1       1.904   8.146  20.581  0.00  0.00    +0.000 C 
ATOM      6  C   UNL     1       1.405   6.891  19.857  0.00  0.00    +0.000 C 
ENDROOT
BRANCH   1  13
ATOM      7  C   UNL     1       3.854   5.032  17.873  0.00  0.00    +0.000 A 
ATOM      8  C   UNL     1       4.000   3.723  17.411  0.00  0.00    +0.000 A 
ATOM      9  N   UNL     1       5.208   3.215  16.911  0.00  0.00    +0.000 N 
ATOM     10  N   UNL     1       2.992   2.842  17.371  0.00  0.00    +0.000 NA
ATOM     11  C   UNL     1       1.819   3.286  17.824  0.00  0.00    +0.000 A 
ATOM     12  N   UNL     1       1.557   4.529  18.242  0.00  0.00    +0.000 NA
ATOM     13  C   UNL     1       2.567   5.433  18.249  0.00  0.00    +0.000 A 
ATOM     14  H   UNL     1       5.961   3.341  17.583  0.00  0.00    +0.000 HD
ATOM     15  H   UNL     1       5.050   2.231  16.704  0.00  0.00    +0.000 HD
BRANCH   7  17
ATOM     16  N   UNL     1       5.317   6.826  17.110  0.00  0.00    +0.000 N 
ATOM     17  C   UNL     1       5.058   5.879  18.066  0.00  0.00    +0.000 C 
ATOM     18  O   UNL     1       5.821   5.753  19.015  0.00  0.00    +0.000 OA
ATOM     19  H   UNL     1       6.154   7.385  17.209  0.00  0.00    +0.000 HD
ATOM     20  H   UNL     1       4.792   6.860  16.242  0.00  0.00    +0.000 HD
ENDBRANCH   7  17
ENDBRANCH   1  13
BRANCH   4  21
ATOM     21  C   UNL     1       0.564   9.951  19.463  0.00  0.00    +0.000 A 
ATOM     22  N   UNL     1      -0.090   9.925  18.322  0.00  0.00    +0.000 NA
ATOM     23  C   UNL     1      -1.302  10.507  18.543  0.00  0.00    +0.000 A 
ATOM     24  C   UNL     1      -1.394  10.925  19.850  0.00  0.00    +0.000 A 
ATOM     25  N   UNL     1      -0.201  10.565  20.430  0.00  0.00    +0.000 N 
BRANCH  23  26
ATOM     26  C   UNL     1      -2.276  10.577  17.455  0.00  0.00    +0.000 A 
ATOM     27  C   UNL     1      -2.144   9.783  16.273  0.00  0.00    +0.000 A 
ATOM     28  C   UNL     1      -3.183   9.991  15.392  0.00  0.00    +0.000 A 
ATOM     29  S   UNL     1      -4.302  11.143  15.980  0.00  0.00    +0.000 S 
ATOM     30  C   UNL     1      -3.403  11.362  17.422  0.00  0.00    +0.000 A 
ENDBRANCH  23  26
BRANCH  25  31
ATOM     31  C   UNL     1       0.131  10.742  21.833  0.00  0.00    +0.000 C 
BRANCH  31  32
ATOM     32  C   UNL     1      -0.946  11.512  22.604  0.00  0.00    +0.000 C 
BRANCH  32  33
ATOM     33  N   UNL     1      -0.419  12.798  23.075  0.00  0.00    +0.000 NA
ATOM     34  C   UNL     1      -0.205  13.729  21.930  0.00  0.00    +0.000 C 
ATOM     35  C   UNL     1      -0.726  14.850  22.851  0.00  0.00    +0.000 C 
ATOM     36  C   UNL     1      -1.508  13.710  23.534  0.00  0.00    +0.000 C 
ENDBRANCH  32  33
ENDBRANCH  31  32
ENDBRANCH  25  31
ENDBRANCH   4  21
TORSDOF 7
ENDMDL
MODEL 7
REMARK VINA RESULT:      -6.4      4.164      6.396
REMARK  Name = 
REMARK  7 active torsions:
REMARK  status: ('A' for Active; 'I' for Inactive)
REMARK    1  A    between atoms: C_2  and  C_4
REMARK    2  A    between atoms: C_10  and  N_11
REMARK    3  A    between atoms: C_14  and  C_15
REMARK    4  A    between atoms: C_17  and  C_18
REMARK    5  A    between atoms: N_24  and  C_25
REMARK    6  A    between atoms: C_25  and  C_26
REMARK    7  A    between atoms: C_26  and  N_27
REMARK                            x       y       z     vdW  Elec       q    Type
REMARK                         _______ _______ _______ _____ _____    ______ ____
ROOT
ATOM      1  N   UNL     1      -0.098  11.421  20.183  0.00  0.00    +0.000 N 
ATOM      2  C   UNL     1       0.559  12.516  20.902  0.00  0.00    +0.000 C 
ATOM      3  C   UNL     1      -0.391  12.960  22.017  0.00  0.00    +0.000 C 
ATOM      4  C   UNL     1      -1.777  13.361  21.475  0.00  0.00    +0.000 C 
ATOM      5  C   UNL     1      -2.323  12.307  20.494  0.00  0.00    +0.000 C 
ATOM      6  C   UNL     1      -1.289  11.865  19.453  0.00  0.00    +0.000 C 
ENDROOT
BRANCH   1  13
ATOM      7  C   UNL     1       0.884   9.172  20.401  0.00  0.00    +0.000 A 
ATOM      8  C   UNL     1       1.709   8.227  19.791  0.00  0.00    +0.000 A 
ATOM      9  N   UNL     1       2.115   7.041  20.420  0.00  0.00    +0.000 N 
ATOM     10  N   UNL     1       2.216   8.380  18.561  0.00  0.00    +0.000 NA
ATOM     11  C   UNL     1       1.867   9.501  17.928  0.00  0.00    +0.000 A 
ATOM     12  N   UNL     1       1.125  10.492  18.435  0.00  0.00    +0.000 NA
ATOM     13  C   UNL     1       0.641  10.355  19.694  0.00  0.00    +0.000 A 
ATOM     14  H   UNL     1       1.312   6.512  20.752  0.00  0.00    +0.000 HD
ATOM     15  H   UNL     1       2.654   6.515  19.736  0.00  0.00    +0.000 HD
BRANCH   7  17
ATOM     16  N   UNL     1       0.724   9.395  22.823  0.00  0.00    +0.000 N 
ATOM     17  C   UNL     1       0.209   8.839  21.682  0.00  0.00    +0.000 C 
ATOM     18  O   UNL     1      -0.753   8.087  21.756  0.00  0.00    +0.000 OA
ATOM     19  H   UNL     1       0.298   9.147  23.707  0.00  0.00    +0.000 HD
ATOM     20  H   UNL     1       1.603   9.902  22.816  0.00  0.00    +0.000 HD
ENDBRANCH   7  17
ENDBRANCH   1  13
BRANCH   4  21
ATOM     21  C   UNL     1      -1.717  14.719  20.833  0.00  0.00    +0.000 A 
ATOM     22  N   UNL     1      -0.798  15.099  19.972  0.00  0.00    +0.000 NA
ATOM     23  C   UNL     1      -1.098  16.376  19.606  0.00  0.00    +0.000 A 
ATOM     24  C   UNL     1      -2.219  16.809  20.274  0.00  0.00    +0.000 A 
ATOM     25  N   UNL     1      -2.609  15.746  21.052  0.00  0.00    +0.000 N 
BRANCH  23  26
ATOM     26  C   UNL     1      -0.269  17.053  18.609  0.00  0.00    +0.000 A 
ATOM     27  C   UNL     1       1.150  16.876  18.563  0.00  0.00    +0.000 A 
ATOM     28  C   UNL     1       1.726  17.587  17.533  0.00  0.00    +0.000 A 
ATOM     29  S   UNL     1       0.568  18.470  16.636  0.00  0.00    +0.000 S 
ATOM     30  C   UNL     1      -0.712  17.896  17.620  0.00  0.00    +0.000 A 
ENDBRANCH  23  26
BRANCH  25  31
ATOM     31  C   UNL     1      -3.799  15.713  21.885  0.00  0.00    +0.000 C 
BRANCH  31  32
ATOM     32  C   UNL     1      -5.004  15.092  21.170  0.00  0.00    +0.000 C 
BRANCH  32  33
ATOM     33  N   UNL     1      -5.405  13.843  21.831  0.00  0.00    +0.000 NA
ATOM     34  C   UNL     1      -4.981  13.848  23.261  0.00  0.00    +0.000 C 
ATOM     35  C   UNL     1      -6.326  13.163  23.576  0.00  0.00    +0.000 C 
ATOM     36  C   UNL     1      -6.817  13.899  22.312  0.00  0.00    +0.000 C 
ENDBRANCH  32  33
ENDBRANCH  31  32
ENDBRANCH  25  31
ENDBRANCH   4  21
TORSDOF 7
ENDMDL
MODEL 8
REMARK VINA RESULT:      -6.4      3.220      4.884
REMARK  Name = 
REMARK  7 active torsions:
REMARK  status: ('A' for Active; 'I' for Inactive)
REMARK    1  A    between atoms: C_2  and  C_4
REMARK    2  A    between atoms: C_10  and  N_11
REMARK    3  A    between atoms: C_14  and  C_15
REMARK    4  A    between atoms: C_17  and  C_18
REMARK    5  A    between atoms: N_24  and  C_25
REMARK    6  A    between atoms: C_25  and  C_26
REMARK    7  A    between atoms: C_26  and  N_27
REMARK                            x       y       z     vdW  Elec       q    Type
REMARK                         _______ _______ _______ _____ _____    ______ ____
ROOT
ATOM      1  N   UNL     1       2.160   8.017  18.741  0.00  0.00    +0.000 N 
ATOM      2  C   UNL     1       2.096   8.507  20.120  0.00  0.00    +0.000 C 
ATOM      3  C   UNL     1       0.622   8.781  20.435  0.00  0.00    +0.000 C 
ATOM      4  C   UNL     1      -0.014   9.761  19.432  0.00  0.00    +0.000 C 
ATOM      5  C   UNL     1       0.310   9.369  17.978  0.00  0.00    +0.000 C 
ATOM      6  C   UNL     1       1.792   9.044  17.763  0.00  0.00    +0.000 C 
ENDROOT
BRANCH   1  13
ATOM      7  C   UNL     1       3.117   5.756  18.956  0.00  0.00    +0.000 A 
ATOM      8  C   UNL     1       4.143   4.910  18.533  0.00  0.00    +0.000 A 
ATOM      9  N   UNL     1       4.370   3.642  19.087  0.00  0.00    +0.000 N 
ATOM     10  N   UNL     1       5.024   5.244  17.581  0.00  0.00    +0.000 NA
ATOM     11  C   UNL     1       4.855   6.448  17.035  0.00  0.00    +0.000 A 
ATOM     12  N   UNL     1       3.940   7.355  17.397  0.00  0.00    +0.000 NA
ATOM     13  C   UNL     1       3.070   7.033  18.384  0.00  0.00    +0.000 A 
ATOM     14  H   UNL     1       3.528   3.072  19.049  0.00  0.00    +0.000 HD
ATOM     15  H   UNL     1       5.131   3.222  18.558  0.00  0.00    +0.000 HD
BRANCH   7  17
ATOM     16  N   UNL     1       2.225   5.492  21.209  0.00  0.00    +0.000 N 
ATOM     17  C   UNL     1       2.069   5.237  19.872  0.00  0.00    +0.000 C 
ATOM     18  O   UNL     1       1.106   4.588  19.489  0.00  0.00    +0.000 OA
ATOM     19  H   UNL     1       1.540   5.113  21.849  0.00  0.00    +0.000 HD
ATOM     20  H   UNL     1       3.081   5.898  21.576  0.00  0.00    +0.000 HD
ENDBRANCH   7  17
ENDBRANCH   1  13
BRANCH   4  21
ATOM     21  C   UNL     1       0.425  11.169  19.724  0.00  0.00    +0.000 A 
ATOM     22  N   UNL     1       1.603  11.665  19.415  0.00  0.00    +0.000 NA
ATOM     23  C   UNL     1       1.608  12.966  19.818  0.00  0.00    +0.000 A 
ATOM     24  C   UNL     1       0.409  13.280  20.414  0.00  0.00    +0.000 A 
ATOM     25  N   UNL     1      -0.340  12.131  20.348  0.00  0.00    +0.000 N 
BRANCH  23  26
ATOM     26  C   UNL     1       2.784  13.795  19.559  0.00  0.00    +0.000 A 
ATOM     27  C   UNL     1       3.210  14.105  18.229  0.00  0.00    +0.000 A 
ATOM     28  C   UNL     1       4.322  14.918  18.219  0.00  0.00    +0.000 A 
ATOM     29  S   UNL     1       4.856  15.294  19.799  0.00  0.00    +0.000 S 
ATOM     30  C   UNL     1       3.593  14.377  20.505  0.00  0.00    +0.000 A 
ENDBRANCH  23  26
BRANCH  25  31
ATOM     31  C   UNL     1      -1.718  12.005  20.792  0.00  0.00    +0.000 C 
BRANCH  31  32
ATOM     32  C   UNL     1      -2.722  12.522  19.756  0.00  0.00    +0.000 C 
BRANCH  32  33
ATOM     33  N   UNL     1      -3.148  11.433  18.868  0.00  0.00    +0.000 NA
ATOM     34  C   UNL     1      -4.498  11.716  18.301  0.00  0.00    +0.000 C 
ATOM     35  C   UNL     1      -3.977  11.120  16.978  0.00  0.00    +0.000 C 
ATOM     36  C   UNL     1      -2.602  11.597  17.488  0.00  0.00    +0.000 C 
ENDBRANCH  32  33
ENDBRANCH  31  32
ENDBRANCH  25  31
ENDBRANCH   4  21
TORSDOF 7
ENDMDL
MODEL 9
REMARK VINA RESULT:      -6.3      4.044      6.366
REMARK  Name = 
REMARK  7 active torsions:
REMARK  status: ('A' for Active; 'I' for Inactive)
REMARK    1  A    between atoms: C_2  and  C_4
REMARK    2  A    between atoms: C_10  and  N_11
REMARK    3  A    between atoms: C_14  and  C_15
REMARK    4  A    between atoms: C_17  and  C_18
REMARK    5  A    between atoms: N_24  and  C_25
REMARK    6  A    between atoms: C_25  and  C_26
REMARK    7  A    between atoms: C_26  and  N_27
REMARK                            x       y       z     vdW  Elec       q    Type
REMARK                         _______ _______ _______ _____ _____    ______ ____
ROOT
ATOM      1  N   UNL     1       0.725  10.930  18.804  0.00  0.00    +0.000 N 
ATOM      2  C   UNL     1      -0.724  11.075  18.967  0.00  0.00    +0.000 C 
ATOM      3  C   UNL     1      -1.168  12.234  18.070  0.00  0.00    +0.000 C 
ATOM      4  C   UNL     1      -0.407  13.536  18.385  0.00  0.00    +0.000 C 
ATOM      5  C   UNL     1       1.111  13.292  18.482  0.00  0.00    +0.000 C 
ATOM      6  C   UNL     1       1.466  12.074  19.341  0.00  0.00    +0.000 C 
ENDROOT
BRANCH   1  13
ATOM      7  C   UNL     1       1.292   8.798  19.900  0.00  0.00    +0.000 A 
ATOM      8  C   UNL     1       1.995   7.600  19.764  0.00  0.00    +0.000 A 
ATOM      9  N   UNL     1       2.141   6.672  20.806  0.00  0.00    +0.000 N 
ATOM     10  N   UNL     1       2.622   7.241  18.636  0.00  0.00    +0.000 NA
ATOM     11  C   UNL     1       2.521   8.101  17.622  0.00  0.00    +0.000 A 
ATOM     12  N   UNL     1       1.917   9.293  17.658  0.00  0.00    +0.000 NA
ATOM     13  C   UNL     1       1.312   9.674  18.810  0.00  0.00    +0.000 A 
ATOM     14  H   UNL     1       1.236   6.403  21.183  0.00  0.00    +0.000 HD
ATOM     15  H   UNL     1       2.639   5.874  20.419  0.00  0.00    +0.000 HD
BRANCH   7  17
ATOM     16  N   UNL     1       0.936   9.933  22.028  0.00  0.00    +0.000 N 
ATOM     17  C   UNL     1       0.466   9.029  21.113  0.00  0.00    +0.000 C 
ATOM     18  O   UNL     1      -0.585   8.440  21.330  0.00  0.00    +0.000 OA
ATOM     19  H   UNL     1       0.404  10.073  22.876  0.00  0.00    +0.000 HD
ATOM     20  H   UNL     1       1.869  10.329  21.952  0.00  0.00    +0.000 HD
ENDBRANCH   7  17
ENDBRANCH   1  13
BRANCH   4  21
ATOM     21  C   UNL     1      -0.937  14.162  19.645  0.00  0.00    +0.000 A 
ATOM     22  N   UNL     1      -1.635  13.526  20.560  0.00  0.00    +0.000 NA
ATOM     23  C   UNL     1      -1.907  14.421  21.549  0.00  0.00    +0.000 A 
ATOM     24  C   UNL     1      -1.384  15.652  21.231  0.00  0.00    +0.000 A 
ATOM     25  N   UNL     1      -0.765  15.478  20.016  0.00  0.00    +0.000 N 
BRANCH  23  26
ATOM     26  C   UNL     1      -2.638  13.981  22.737  0.00  0.00    +0.000 A 
ATOM     27  C   UNL     1      -2.634  14.741  23.949  0.00  0.00    +0.000 A 
ATOM     28  C   UNL     1      -3.404  14.154  24.929  0.00  0.00    +0.000 A 
ATOM     29  S   UNL     1      -4.117  12.693  24.397  0.00  0.00    +0.000 S 
ATOM     30  C   UNL     1      -3.403  12.845  22.847  0.00  0.00    +0.000 A 
ENDBRANCH  23  26
BRANCH  25  31
ATOM     31  C   UNL     1      -0.005  16.497  19.313  0.00  0.00    +0.000 C 
BRANCH  31  32
ATOM     32  C   UNL     1       1.195  17.002  20.121  0.00  0.00    +0.000 C 
BRANCH  32  33
ATOM     33  N   UNL     1       2.309  17.343  19.227  0.00  0.00    +0.000 NA
ATOM     34  C   UNL     1       3.222  16.175  19.059  0.00  0.00    +0.000 C 
ATOM     35  C   UNL     1       3.346  16.590  17.579  0.00  0.00    +0.000 C 
ATOM     36  C   UNL     1       1.936  17.180  17.790  0.00  0.00    +0.000 C 
ENDBRANCH  32  33
ENDBRANCH  31  32
ENDBRANCH  25  31
ENDBRANCH   4  21
TORSDOF 7
ENDMDL
