MODEL 1
REMARK VINA RESULT:      -5.8      0.000      0.000
REMARK  Name = 
REMARK  5 active torsions:
REMARK  status: ('A' for Active; 'I' for Inactive)
REMARK    1  A    between atoms: N_1  and  C_2
REMARK    2  A    between atoms: C_2  and  C_3
REMARK    3  A    between atoms: C_2  and  C_7
REMARK    4  A    between atoms: C_3  and  C_4
REMARK    5  A    between atoms: C_4  and  O_6
REMARK                            x       y       z     vdW  Elec       q    Type
REMARK                         _______ _______ _______ _____ _____    ______ ____
ROOT
ATOM      1  C   UNL     1       4.741   5.155  16.551  0.00  0.00    +0.000 C 
ENDROOT
BRANCH   1   2
ATOM      2  C   UNL     1       3.956   4.490  17.681  0.00  0.00    +0.000 A 
ATOM      3  C   UNL     1       2.588   4.773  17.838  0.00  0.00    +0.000 A 
ATOM      4  C   UNL     1       1.866   4.260  18.924  0.00  0.00    +0.000 A 
ATOM      5  C   UNL     1       2.504   3.452  19.860  0.00  0.00    +0.000 A 
ATOM      6 BR   UNL     1       1.549   2.808  21.359  0.00  0.00    +0.000 Br
ATOM      7  C   UNL     1       3.847   3.129  19.709  0.00  0.00    +0.000 A 
ATOM      8  C   UNL     1       4.564   3.638  18.621  0.00  0.00    +0.000 A 
ENDBRANCH   1   2
BRANCH   1   9
ATOM      9  N   UNL     1       5.396   6.387  17.018  0.00  0.00    +0.000 NA
ATOM     10  H   UNL     1       5.237   7.116  16.315  0.00  0.00    +0.000 HD
ATOM     11  H   UNL     1       6.403   6.259  17.060  0.00  0.00    +0.000 HD
ENDBRANCH   1   9
BRANCH   1  12
ATOM     12  C   UNL     1       5.731   4.185  15.883  0.00  0.00    +0.000 C 
BRANCH  12  13
ATOM     13  C   UNL     1       7.168   4.658  16.009  0.00  0.00    +0.000 C 
ATOM     14  O   UNL     1       7.919   4.391  16.930  0.00  0.00    +0.000 OA
BRANCH  13  15
ATOM     15  O   UNL     1       7.565   5.411  14.960  0.00  0.00    +0.000 OA
ATOM     16  H   UNL     1       7.244   6.331  14.973  0.00  0.00    +0.000 HD
ENDBRANCH  13  15
ENDBRANCH  12  13
ENDBRANCH   1  12
TORSDOF 5
ENDMDL
MODEL 2
REMARK VINA RESULT:      -5.8      1.373      1.525
REMARK  Name = 
REMARK  5 active torsions:
REMARK  status: ('A' for Active; 'I' for Inactive)
REMARK    1  A    between atoms: N_1  and  C_2
REMARK    2  A    between atoms: C_2  and  C_3
REMARK    3  A    between atoms: C_2  and  C_7
REMARK    4  A    between atoms: C_3  and  C_4
REMARK    5  A    between atoms: C_4  and  O_6
REMARK                            x       y       z     vdW  Elec       q    Type
REMARK                         _______ _______ _______ _____ _____    ______ ____
ROOT
ATOM      1  C   UNL     1       5.920   5.122  16.997  0.00  0.00    +0.000 C 
ENDROOT
BRANCH   1   2
ATOM      2  C   UNL     1       4.737   4.609  17.818  0.00  0.00    +0.000 A 
ATOM      3  C   UNL     1       3.446   5.104  17.562  0.00  0.00    +0.000 A 
ATOM      4  C   UNL     1       2.360   4.731  18.364  0.00  0.00    +0.000 A 
ATOM      5  C   UNL     1       2.552   3.853  19.427  0.00  0.00    +0.000 A 
ATOM      6 BR   UNL     1       1.101   3.395  20.548  0.00  0.00    +0.000 Br
ATOM      7  C   UNL     1       3.812   3.323  19.680  0.00  0.00    +0.000 A 
ATOM      8  C   UNL     1       4.893   3.693  18.875  0.00  0.00    +0.000 A 
ENDBRANCH   1   2
BRANCH   1   9
ATOM      9  N   UNL     1       7.107   4.276  17.198  0.00  0.00    +0.000 NA
ATOM     10  H   UNL     1       6.853   3.311  16.960  0.00  0.00    +0.000 HD
ATOM     11  H   UNL     1       7.368   4.258  18.180  0.00  0.00    +0.000 HD
ENDBRANCH   1   9
BRANCH   1  12
ATOM     12  C   UNL     1       5.565   5.286  15.509  0.00  0.00    +0.000 C 
BRANCH  12  13
ATOM     13  C   UNL     1       6.661   4.762  14.599  0.00  0.00    +0.000 C 
ATOM     14  O   UNL     1       7.679   5.362  14.305  0.00  0.00    +0.000 OA
BRANCH  13  15
ATOM     15  O   UNL     1       6.411   3.514  14.143  0.00  0.00    +0.000 OA
ATOM     16  H   UNL     1       5.532   3.163  14.376  0.00  0.00    +0.000 HD
ENDBRANCH  13  15
ENDBRANCH  12  13
ENDBRANCH   1  12
TORSDOF 5
ENDMDL
MODEL 3
REMARK VINA RESULT:      -5.7      1.418      2.044
REMARK  Name = 
REMARK  5 active torsions:
REMARK  status: ('A' for Active; 'I' for Inactive)
REMARK    1  A    between atoms: N_1  and  C_2
REMARK    2  A    between atoms: C_2  and  C_3
REMARK    3  A    between atoms: C_2  and  C_7
REMARK    4  A    between atoms: C_3  and  C_4
REMARK    5  A    between atoms: C_4  and  O_6
REMARK                            x       y       z     vdW  Elec       q    Type
REMARK                         _______ _______ _______ _____ _____    ______ ____
ROOT
ATOM      1  C   UNL     1       5.989   5.222  16.985  0.00  0.00    +0.000 C 
ENDROOT
BRANCH   1   2
ATOM      2  C   UNL     1       4.787   4.852  17.852  0.00  0.00    +0.000 A 
ATOM      3  C   UNL     1       4.934   3.900  18.876  0.00  0.00    +0.000 A 
ATOM      4  C   UNL     1       3.830   3.465  19.620  0.00  0.00    +0.000 A 
ATOM      5  C   UNL     1       2.566   3.983  19.353  0.00  0.00    +0.000 A 
ATOM      6 BR   UNL     1       1.065   3.354  20.313  0.00  0.00    +0.000 Br
ATOM      7  C   UNL     1       2.400   4.951  18.369  0.00  0.00    +0.000 A 
ATOM      8  C   UNL     1       3.504   5.387  17.632  0.00  0.00    +0.000 A 
ENDBRANCH   1   2
BRANCH   1   9
ATOM      9  N   UNL     1       7.101   4.282  17.197  0.00  0.00    +0.000 NA
ATOM     10  H   UNL     1       6.878   3.411  16.702  0.00  0.00    +0.000 HD
ATOM     11  H   UNL     1       7.171   4.031  18.179  0.00  0.00    +0.000 HD
ENDBRANCH   1   9
BRANCH   1  12
ATOM     12  C   UNL     1       5.613   5.357  15.499  0.00  0.00    +0.000 C 
BRANCH  12  13
ATOM     13  C   UNL     1       6.681   4.785  14.585  0.00  0.00    +0.000 C 
ATOM     14  O   UNL     1       7.704   5.357  14.252  0.00  0.00    +0.000 OA
BRANCH  13  15
ATOM     15  O   UNL     1       6.401   3.528  14.174  0.00  0.00    +0.000 OA
ATOM     16  H   UNL     1       6.087   2.929  14.877  0.00  0.00    +0.000 HD
ENDBRANCH  13  15
ENDBRANCH  12  13
ENDBRANCH   1  12
TORSDOF 5
ENDMDL
MODEL 4
REMARK VINA RESULT:      -5.7      0.797      1.200
REMARK  Name = 
REMARK  5 active torsions:
REMARK  status: ('A' for Active; 'I' for Inactive)
REMARK    1  A    between atoms: N_1  and  C_2
REMARK    2  A    between atoms: C_2  and  C_3
REMARK    3  A    between atoms: C_2  and  C_7
REMARK    4  A    between atoms: C_3  and  C_4
REMARK    5  A    between atoms: C_4  and  O_6
REMARK                            x       y       z     vdW  Elec       q    Type
REMARK                         _______ _______ _______ _____ _____    ______ ____
ROOT
ATOM      1  C   UNL     1       4.803   5.282  16.580  0.00  0.00    +0.000 C 
ENDROOT
BRANCH   1   2
ATOM      2  C   UNL     1       3.983   4.691  17.726  0.00  0.00    +0.000 A 
ATOM      3  C   UNL     1       3.596   5.512  18.800  0.00  0.00    +0.000 A 
ATOM      4  C   UNL     1       2.933   4.978  19.913  0.00  0.00    +0.000 A 
ATOM      5  C   UNL     1       2.643   3.618  19.961  0.00  0.00    +0.000 A 
ATOM      6 BR   UNL     1       1.804   2.883  21.486  0.00  0.00    +0.000 Br
ATOM      7  C   UNL     1       2.985   2.791  18.897  0.00  0.00    +0.000 A 
ATOM      8  C   UNL     1       3.641   3.327  17.785  0.00  0.00    +0.000 A 
ENDBRANCH   1   2
BRANCH   1   9
ATOM      9  N   UNL     1       5.550   6.469  17.024  0.00  0.00    +0.000 NA
ATOM     10  H   UNL     1       5.796   7.018  16.193  0.00  0.00    +0.000 HD
ATOM     11  H   UNL     1       6.433   6.196  17.447  0.00  0.00    +0.000 HD
ENDBRANCH   1   9
BRANCH   1  12
ATOM     12  C   UNL     1       5.713   4.234  15.918  0.00  0.00    +0.000 C 
BRANCH  12  13
ATOM     13  C   UNL     1       7.142   4.726  15.774  0.00  0.00    +0.000 C 
ATOM     14  O   UNL     1       7.574   5.370  14.834  0.00  0.00    +0.000 OA
BRANCH  13  15
ATOM     15  O   UNL     1       7.918   4.395  16.829  0.00  0.00    +0.000 OA
ATOM     16  H   UNL     1       7.640   4.782  17.679  0.00  0.00    +0.000 HD
ENDBRANCH  13  15
ENDBRANCH  12  13
ENDBRANCH   1  12
TORSDOF 5
ENDMDL
MODEL 5
REMARK VINA RESULT:      -5.7      0.801      1.204
REMARK  Name = 
REMARK  5 active torsions:
REMARK  status: ('A' for Active; 'I' for Inactive)
REMARK    1  A    between atoms: N_1  and  C_2
REMARK    2  A    between atoms: C_2  and  C_3
REMARK    3  A    between atoms: C_2  and  C_7
REMARK    4  A    between atoms: C_3  and  C_4
REMARK    5  A    between atoms: C_4  and  O_6
REMARK                            x       y       z     vdW  Elec       q    Type
REMARK                         _______ _______ _______ _____ _____    ______ ____
ROOT
ATOM      1  C   UNL     1       4.827   5.513  16.637  0.00  0.00    +0.000 C 
ENDROOT
BRANCH   1   2
ATOM      2  C   UNL     1       4.177   4.897  17.874  0.00  0.00    +0.000 A 
ATOM      3  C   UNL     1       4.061   3.499  17.976  0.00  0.00    +0.000 A 
ATOM      4  C   UNL     1       3.380   2.909  19.049  0.00  0.00    +0.000 A 
ATOM      5  C   UNL     1       2.812   3.710  20.035  0.00  0.00    +0.000 A 
ATOM      6 BR   UNL     1       1.840   2.921  21.450  0.00  0.00    +0.000 Br
ATOM      7  C   UNL     1       2.942   5.093  19.975  0.00  0.00    +0.000 A 
ATOM      8  C   UNL     1       3.627   5.679  18.907  0.00  0.00    +0.000 A 
ENDBRANCH   1   2
BRANCH   1   9
ATOM      9  N   UNL     1       5.640   6.686  16.998  0.00  0.00    +0.000 NA
ATOM     10  H   UNL     1       5.107   7.528  16.755  0.00  0.00    +0.000 HD
ATOM     11  H   UNL     1       6.484   6.721  16.432  0.00  0.00    +0.000 HD
ENDBRANCH   1   9
BRANCH   1  12
ATOM     12  C   UNL     1       5.624   4.479  15.824  0.00  0.00    +0.000 C 
BRANCH  12  13
ATOM     13  C   UNL     1       7.118   4.740  15.874  0.00  0.00    +0.000 C 
ATOM     14  O   UNL     1       7.865   4.395  16.773  0.00  0.00    +0.000 OA
BRANCH  13  15
ATOM     15  O   UNL     1       7.572   5.395  14.782  0.00  0.00    +0.000 OA
ATOM     16  H   UNL     1       6.882   5.646  14.140  0.00  0.00    +0.000 HD
ENDBRANCH  13  15
ENDBRANCH  12  13
ENDBRANCH   1  12
TORSDOF 5
ENDMDL
MODEL 6
REMARK VINA RESULT:      -5.6      4.282      5.564
REMARK  Name = 
REMARK  5 active torsions:
REMARK  status: ('A' for Active; 'I' for Inactive)
REMARK    1  A    between atoms: N_1  and  C_2
REMARK    2  A    between atoms: C_2  and  C_3
REMARK    3  A    between atoms: C_2  and  C_7
REMARK    4  A    between atoms: C_3  and  C_4
REMARK    5  A    between atoms: C_4  and  O_6
REMARK                            x       y       z     vdW  Elec       q    Type
REMARK                         _______ _______ _______ _____ _____    ______ ____
ROOT
ATOM      1  C   UNL     1       1.289   3.094  18.859  0.00  0.00    +0.000 C 
ENDROOT
BRANCH   1   2
ATOM      2  C   UNL     1       2.396   3.951  18.247  0.00  0.00    +0.000 A 
ATOM      3  C   UNL     1       3.580   3.340  17.798  0.00  0.00    +0.000 A 
ATOM      4  C   UNL     1       4.654   4.107  17.328  0.00  0.00    +0.000 A 
ATOM      5  C   UNL     1       4.552   5.495  17.294  0.00  0.00    +0.000 A 
ATOM      6 BR   UNL     1       6.019   6.536  16.717  0.00  0.00    +0.000 Br
ATOM      7  C   UNL     1       3.379   6.121  17.700  0.00  0.00    +0.000 A 
ATOM      8  C   UNL     1       2.307   5.353  18.164  0.00  0.00    +0.000 A 
ENDBRANCH   1   2
BRANCH   1   9
ATOM      9  N   UNL     1       1.708   1.688  18.964  0.00  0.00    +0.000 NA
ATOM     10  H   UNL     1       1.235   1.160  18.222  0.00  0.00    +0.000 HD
ATOM     11  H   UNL     1       1.383   1.285  19.839  0.00  0.00    +0.000 HD
ENDBRANCH   1   9
BRANCH   1  12
ATOM     12  C   UNL     1       0.794   3.658  20.202  0.00  0.00    +0.000 C 
BRANCH  12  13
ATOM     13  C   UNL     1       1.832   3.515  21.299  0.00  0.00    +0.000 C 
ATOM     14  O   UNL     1       2.095   2.482  21.891  0.00  0.00    +0.000 OA
BRANCH  13  15
ATOM     15  O   UNL     1       2.482   4.671  21.560  0.00  0.00    +0.000 OA
ATOM     16  H   UNL     1       2.463   5.322  20.835  0.00  0.00    +0.000 HD
ENDBRANCH  13  15
ENDBRANCH  12  13
ENDBRANCH   1  12
TORSDOF 5
ENDMDL
MODEL 7
REMARK VINA RESULT:      -5.6      1.337      1.756
REMARK  Name = 
REMARK  5 active torsions:
REMARK  status: ('A' for Active; 'I' for Inactive)
REMARK    1  A    between atoms: N_1  and  C_2
REMARK    2  A    between atoms: C_2  and  C_3
REMARK    3  A    between atoms: C_2  and  C_7
REMARK    4  A    between atoms: C_3  and  C_4
REMARK    5  A    between atoms: C_4  and  O_6
REMARK                            x       y       z     vdW  Elec       q    Type
REMARK                         _______ _______ _______ _____ _____    ______ ____
ROOT
ATOM      1  C   UNL     1       5.297   5.059  15.768  0.00  0.00    +0.000 C 
ENDROOT
BRANCH   1   2
ATOM      2  C   UNL     1       4.337   4.804  16.929  0.00  0.00    +0.000 A 
ATOM      3  C   UNL     1       3.978   3.485  17.258  0.00  0.00    +0.000 A 
ATOM      4  C   UNL     1       3.022   3.225  18.248  0.00  0.00    +0.000 A 
ATOM      5  C   UNL     1       2.420   4.280  18.926  0.00  0.00    +0.000 A 
ATOM      6 BR   UNL     1       1.086   3.935  20.220  0.00  0.00    +0.000 Br
ATOM      7  C   UNL     1       2.782   5.592  18.643  0.00  0.00    +0.000 A 
ATOM      8  C   UNL     1       3.740   5.850  17.658  0.00  0.00    +0.000 A 
ENDBRANCH   1   2
BRANCH   1   9
ATOM      9  N   UNL     1       5.377   6.495  15.456  0.00  0.00    +0.000 NA
ATOM     10  H   UNL     1       6.157   6.893  15.990  0.00  0.00    +0.000 HD
ATOM     11  H   UNL     1       4.544   6.977  15.784  0.00  0.00    +0.000 HD
ENDBRANCH   1   9
BRANCH   1  12
ATOM     12  C   UNL     1       6.683   4.438  16.015  0.00  0.00    +0.000 C 
BRANCH  12  13
ATOM     13  C   UNL     1       7.363   5.024  17.238  0.00  0.00    +0.000 C 
ATOM     14  O   UNL     1       7.654   4.404  18.247  0.00  0.00    +0.000 OA
BRANCH  13  15
ATOM     15  O   UNL     1       7.650   6.337  17.100  0.00  0.00    +0.000 OA
ATOM     16  H   UNL     1       8.453   6.527  16.581  0.00  0.00    +0.000 HD
ENDBRANCH  13  15
ENDBRANCH  12  13
ENDBRANCH   1  12
TORSDOF 5
ENDMDL
MODEL 8
REMARK VINA RESULT:      -5.6      1.548      2.004
REMARK  Name = 
REMARK  5 active torsions:
REMARK  status: ('A' for Active; 'I' for Inactive)
REMARK    1  A    between atoms: N_1  and  C_2
REMARK    2  A    between atoms: C_2  and  C_3
REMARK    3  A    between atoms: C_2  and  C_7
REMARK    4  A    between atoms: C_3  and  C_4
REMARK    5  A    between atoms: C_4  and  O_6
REMARK                            x       y       z     vdW  Elec       q    Type
REMARK                         _______ _______ _______ _____ _____    ______ ____
ROOT
ATOM      1  C   UNL     1       5.629   5.754  16.246  0.00  0.00    +0.000 C 
ENDROOT
BRANCH   1   2
ATOM      2  C   UNL     1       4.447   5.263  17.080  0.00  0.00    +0.000 A 
ATOM      3  C   UNL     1       3.791   6.153  17.949  0.00  0.00    +0.000 A 
ATOM      4  C   UNL     1       2.771   5.708  18.801  0.00  0.00    +0.000 A 
ATOM      5  C   UNL     1       2.391   4.369  18.787  0.00  0.00    +0.000 A 
ATOM      6 BR   UNL     1       1.059   3.753  19.978  0.00  0.00    +0.000 Br
ATOM      7  C   UNL     1       3.001   3.476  17.914  0.00  0.00    +0.000 A 
ATOM      8  C   UNL     1       4.014   3.924  17.061  0.00  0.00    +0.000 A 
ENDBRANCH   1   2
BRANCH   1   9
ATOM      9  N   UNL     1       5.206   6.794  15.294  0.00  0.00    +0.000 NA
ATOM     10  H   UNL     1       6.016   7.392  15.098  0.00  0.00    +0.000 HD
ATOM     11  H   UNL     1       4.510   7.402  15.718  0.00  0.00    +0.000 HD
ENDBRANCH   1   9
BRANCH   1  12
ATOM     12  C   UNL     1       6.808   6.210  17.123  0.00  0.00    +0.000 C 
BRANCH  12  13
ATOM     13  C   UNL     1       7.485   5.046  17.822  0.00  0.00    +0.000 C 
ATOM     14  O   UNL     1       8.154   4.187  17.274  0.00  0.00    +0.000 OA
BRANCH  13  15
ATOM     15  O   UNL     1       7.294   5.056  19.160  0.00  0.00    +0.000 OA
ATOM     16  H   UNL     1       6.867   4.256  19.517  0.00  0.00    +0.000 HD
ENDBRANCH  13  15
ENDBRANCH  12  13
ENDBRANCH   1  12
TORSDOF 5
ENDMDL
MODEL 9
REMARK VINA RESULT:      -5.5      1.404      1.546
REMARK  Name = 
REMARK  5 active torsions:
REMARK  status: ('A' for Active; 'I' for Inactive)
REMARK    1  A    between atoms: N_1  and  C_2
REMARK    2  A    between atoms: C_2  and  C_3
REMARK    3  A    between atoms: C_2  and  C_7
REMARK    4  A    between atoms: C_3  and  C_4
REMARK    5  A    between atoms: C_4  and  O_6
REMARK                            x       y       z     vdW  Elec       q    Type
REMARK                         _______ _______ _______ _____ _____    ______ ____
ROOT
ATOM      1  C   UNL     1       6.213   5.225  17.555  0.00  0.00    +0.000 C 
ENDROOT
BRANCH   1   2
ATOM      2  C   UNL     1       4.921   4.602  18.082  0.00  0.00    +0.000 A 
ATOM      3  C   UNL     1       3.698   4.904  17.458  0.00  0.00    +0.000 A 
ATOM      4  C   UNL     1       2.487   4.431  17.980  0.00  0.00    +0.000 A 
ATOM      5  C   UNL     1       2.486   3.644  19.127  0.00  0.00    +0.000 A 
ATOM      6 BR   UNL     1       0.851   3.055  19.869  0.00  0.00    +0.000 Br
ATOM      7  C   UNL     1       3.685   3.304  19.744  0.00  0.00    +0.000 A 
ATOM      8  C   UNL     1       4.893   3.772  19.218  0.00  0.00    +0.000 A 
ENDBRANCH   1   2
BRANCH   1   9
ATOM      9  N   UNL     1       7.341   4.289  17.686  0.00  0.00    +0.000 NA
ATOM     10  H   UNL     1       7.306   3.638  16.894  0.00  0.00    +0.000 HD
ATOM     11  H   UNL     1       7.232   3.716  18.519  0.00  0.00    +0.000 HD
ENDBRANCH   1   9
BRANCH   1  12
ATOM     12  C   UNL     1       6.058   5.753  16.118  0.00  0.00    +0.000 C 
BRANCH  12  13
ATOM     13  C   UNL     1       6.737   4.855  15.101  0.00  0.00    +0.000 C 
ATOM     14  O   UNL     1       6.336   3.760  14.749  0.00  0.00    +0.000 OA
BRANCH  13  15
ATOM     15  O   UNL     1       7.858   5.404  14.583  0.00  0.00    +0.000 OA
ATOM     16  H   UNL     1       7.704   6.040  13.860  0.00  0.00    +0.000 HD
ENDBRANCH  13  15
ENDBRANCH  12  13
ENDBRANCH   1  12
TORSDOF 5
ENDMDL
