MODEL 1
REMARK VINA RESULT:      -7.5      0.000      0.000
REMARK  Name = 
REMARK  6 active torsions:
REMARK  status: ('A' for Active; 'I' for Inactive)
REMARK    1  A    between atoms: C_1  and  C_2
REMARK    2  A    between atoms: C_2  and  C_3
REMARK    3  A    between atoms: C_9  and  C_10
REMARK    4  A    between atoms: C_14  and  N_15
REMARK    5  A    between atoms: C_16  and  C_18
REMARK    6  A    between atoms: C_24  and  O_25
REMARK                            x       y       z     vdW  Elec       q    Type
REMARK                         _______ _______ _______ _____ _____    ______ ____
ROOT
ATOM      1  C   UNL     1       1.009   2.046  19.298  0.00  0.00    +0.000 C 
ATOM      2  C   UNL     1       2.157   3.068  19.373  0.00  0.00    +0.000 C 
ATOM      3  C   UNL     1       2.976   2.766  20.642  0.00  0.00    +0.000 C 
ATOM      4  C   UNL     1       3.072   2.926  18.157  0.00  0.00    +0.000 C 
ATOM      5  O   UNL     1       3.091   1.928  17.442  0.00  0.00    +0.000 OA
ATOM      6  C   UNL     1       4.022   4.043  17.878  0.00  0.00    +0.000 A 
ATOM      7  C   UNL     1       5.097   3.807  17.009  0.00  0.00    +0.000 A 
ATOM      8  C   UNL     1       6.055   4.798  16.789  0.00  0.00    +0.000 A 
ATOM      9  C   UNL     1       5.946   6.031  17.435  0.00  0.00    +0.000 A 
ATOM     10  C   UNL     1       4.863   6.271  18.290  0.00  0.00    +0.000 A 
ATOM     11  C   UNL     1       3.874   5.291  18.507  0.00  0.00    +0.000 A 
ATOM     12  C   UNL     1       2.729   5.559  19.466  0.00  0.00    +0.000 C 
ATOM     13  C   UNL     1       1.598   4.507  19.334  0.00  0.00    +0.000 C 
ENDROOT
BRANCH  12  14
ATOM     14  N   UNL     1       2.195   6.902  19.272  0.00  0.00    +0.000 N 
ATOM     15  C   UNL     1       1.668   7.624  20.321  0.00  0.00    +0.000 C 
ATOM     16  O   UNL     1       1.583   7.186  21.463  0.00  0.00    +0.000 OA
ATOM     17  H   UNL     1       2.308   7.330  18.363  0.00  0.00    +0.000 HD
BRANCH  15  18
ATOM     18  C   UNL     1       1.275   9.024  20.024  0.00  0.00    +0.000 A 
ATOM     19  C   UNL     1       1.380   9.564  18.743  0.00  0.00    +0.000 A 
ATOM     20  C   UNL     1       1.044  10.897  18.579  0.00  0.00    +0.000 A 
ATOM     21  N   UNL     1       0.615  11.690  19.581  0.00  0.00    +0.000 NA
ATOM     22  C   UNL     1       0.492  11.128  20.804  0.00  0.00    +0.000 A 
ATOM     23  C   UNL     1       0.804   9.810  21.074  0.00  0.00    +0.000 A 
ENDBRANCH  15  18
ENDBRANCH  12  14
BRANCH   9  24
ATOM     24  C   UNL     1       6.941   7.043  17.234  0.00  0.00    +0.000 C 
ATOM     25  N   UNL     1       7.745   7.865  17.068  0.00  0.00    +0.000 NA
ENDBRANCH   9  24
BRANCH  13  26
ATOM     26  O   UNL     1       0.592   4.693  20.337  0.00  0.00    +0.000 OA
ATOM     27  H   UNL     1       1.007   5.070  21.135  0.00  0.00    +0.000 HD
ENDBRANCH  13  26
TORSDOF 4
ENDMDL
MODEL 2
REMARK VINA RESULT:      -7.5      0.942      1.305
REMARK  Name = 
REMARK  6 active torsions:
REMARK  status: ('A' for Active; 'I' for Inactive)
REMARK    1  A    between atoms: C_1  and  C_2
REMARK    2  A    between atoms: C_2  and  C_3
REMARK    3  A    between atoms: C_9  and  C_10
REMARK    4  A    between atoms: C_14  and  N_15
REMARK    5  A    between atoms: C_16  and  C_18
REMARK    6  A    between atoms: C_24  and  O_25
REMARK                            x       y       z     vdW  Elec       q    Type
REMARK                         _______ _______ _______ _____ _____    ______ ____
ROOT
ATOM      1  C   UNL     1       0.807   2.286  18.918  0.00  0.00    +0.000 C 
ATOM      2  C   UNL     1       2.072   3.151  19.059  0.00  0.00    +0.000 C 
ATOM      3  C   UNL     1       3.017   2.448  20.051  0.00  0.00    +0.000 C 
ATOM      4  C   UNL     1       2.781   3.275  17.711  0.00  0.00    +0.000 C 
ATOM      5  O   UNL     1       2.576   2.512  16.771  0.00  0.00    +0.000 OA
ATOM      6  C   UNL     1       3.813   4.343  17.573  0.00  0.00    +0.000 A 
ATOM      7  C   UNL     1       4.718   4.268  16.505  0.00  0.00    +0.000 A 
ATOM      8  C   UNL     1       5.750   5.201  16.388  0.00  0.00    +0.000 A 
ATOM      9  C   UNL     1       5.887   6.214  17.339  0.00  0.00    +0.000 A 
ATOM     10  C   UNL     1       4.973   6.298  18.398  0.00  0.00    +0.000 A 
ATOM     11  C   UNL     1       3.911   5.379  18.518  0.00  0.00    +0.000 A 
ATOM     12  C   UNL     1       2.954   5.467  19.693  0.00  0.00    +0.000 C 
ATOM     13  C   UNL     1       1.694   4.586  19.488  0.00  0.00    +0.000 C 
ENDROOT
BRANCH  12  14
ATOM     14  N   UNL     1       2.568   6.851  19.944  0.00  0.00    +0.000 N 
ATOM     15  C   UNL     1       2.021   7.635  18.952  0.00  0.00    +0.000 C 
ATOM     16  O   UNL     1       1.852   7.245  17.802  0.00  0.00    +0.000 OA
ATOM     17  H   UNL     1       2.625   7.193  20.893  0.00  0.00    +0.000 HD
BRANCH  15  18
ATOM     18  C   UNL     1       1.552   8.982  19.363  0.00  0.00    +0.000 A 
ATOM     19  C   UNL     1       1.069   9.236  20.646  0.00  0.00    +0.000 A 
ATOM     20  C   UNL     1       0.599  10.510  20.915  0.00  0.00    +0.000 A 
ATOM     21  N   UNL     1       0.595  11.512  20.013  0.00  0.00    +0.000 NA
ATOM     22  C   UNL     1       1.099  11.244  18.789  0.00  0.00    +0.000 A 
ATOM     23  C   UNL     1       1.589  10.007  18.419  0.00  0.00    +0.000 A 
ENDBRANCH  15  18
ENDBRANCH  12  14
BRANCH   9  24
ATOM     24  C   UNL     1       6.961   7.158  17.240  0.00  0.00    +0.000 C 
ATOM     25  N   UNL     1       7.829   7.925  17.157  0.00  0.00    +0.000 NA
ENDBRANCH   9  24
BRANCH  13  26
ATOM     26  O   UNL     1       0.871   4.572  20.660  0.00  0.00    +0.000 OA
ATOM     27  H   UNL     1       0.643   3.650  20.875  0.00  0.00    +0.000 HD
ENDBRANCH  13  26
TORSDOF 4
ENDMDL
MODEL 3
REMARK VINA RESULT:      -6.8      1.207      1.760
REMARK  Name = 
REMARK  6 active torsions:
REMARK  status: ('A' for Active; 'I' for Inactive)
REMARK    1  A    between atoms: C_1  and  C_2
REMARK    2  A    between atoms: C_2  and  C_3
REMARK    3  A    between atoms: C_9  and  C_10
REMARK    4  A    between atoms: C_14  and  N_15
REMARK    5  A    between atoms: C_16  and  C_18
REMARK    6  A    between atoms: C_24  and  O_25
REMARK                            x       y       z     vdW  Elec       q    Type
REMARK                         _______ _______ _______ _____ _____    ______ ____
ROOT
ATOM      1  C   UNL     1       2.602   2.184  17.474  0.00  0.00    +0.000 C 
ATOM      2  C   UNL     1       3.506   3.320  17.986  0.00  0.00    +0.000 C 
ATOM      3  C   UNL     1       4.162   2.849  19.297  0.00  0.00    +0.000 C 
ATOM      4  C   UNL     1       4.607   3.619  16.968  0.00  0.00    +0.000 C 
ATOM      5  O   UNL     1       4.928   2.838  16.077  0.00  0.00    +0.000 OA
ATOM      6  C   UNL     1       5.355   4.901  17.121  0.00  0.00    +0.000 A 
ATOM      7  C   UNL     1       6.576   5.049  16.449  0.00  0.00    +0.000 A 
ATOM      8  C   UNL     1       7.347   6.198  16.633  0.00  0.00    +0.000 A 
ATOM      9  C   UNL     1       6.904   7.207  17.490  0.00  0.00    +0.000 A 
ATOM     10  C   UNL     1       5.676   7.065  18.150  0.00  0.00    +0.000 A 
ATOM     11  C   UNL     1       4.874   5.922  17.958  0.00  0.00    +0.000 A 
ATOM     12  C   UNL     1       3.565   5.772  18.711  0.00  0.00    +0.000 C 
ATOM     13  C   UNL     1       2.692   4.623  18.143  0.00  0.00    +0.000 C 
ENDROOT
BRANCH  12  14
ATOM     14  N   UNL     1       2.818   7.025  18.704  0.00  0.00    +0.000 N 
ATOM     15  C   UNL     1       2.038   7.401  19.777  0.00  0.00    +0.000 C 
ATOM     16  O   UNL     1       1.893   6.711  20.778  0.00  0.00    +0.000 OA
ATOM     17  H   UNL     1       2.962   7.658  17.930  0.00  0.00    +0.000 HD
BRANCH  15  18
ATOM     18  C   UNL     1       1.431   8.753  19.705  0.00  0.00    +0.000 A 
ATOM     19  C   UNL     1       0.900   9.386  20.829  0.00  0.00    +0.000 A 
ATOM     20  C   UNL     1       0.302  10.621  20.649  0.00  0.00    +0.000 A 
ATOM     21  N   UNL     1       0.217  11.244  19.456  0.00  0.00    +0.000 NA
ATOM     22  C   UNL     1       0.769  10.622  18.392  0.00  0.00    +0.000 A 
ATOM     23  C   UNL     1       1.385   9.388  18.464  0.00  0.00    +0.000 A 
ENDBRANCH  15  18
ENDBRANCH  12  14
BRANCH   9  24
ATOM     24  C   UNL     1       7.704   8.377  17.705  0.00  0.00    +0.000 C 
ATOM     25  N   UNL     1       8.355   9.323  17.877  0.00  0.00    +0.000 NA
ENDBRANCH   9  24
BRANCH  13  26
ATOM     26  O   UNL     1       1.527   4.406  18.948  0.00  0.00    +0.000 OA
ATOM     27  H   UNL     1       1.803   4.076  19.822  0.00  0.00    +0.000 HD
ENDBRANCH  13  26
TORSDOF 4
ENDMDL
MODEL 4
REMARK VINA RESULT:      -6.5      2.086      5.960
REMARK  Name = 
REMARK  6 active torsions:
REMARK  status: ('A' for Active; 'I' for Inactive)
REMARK    1  A    between atoms: C_1  and  C_2
REMARK    2  A    between atoms: C_2  and  C_3
REMARK    3  A    between atoms: C_9  and  C_10
REMARK    4  A    between atoms: C_14  and  N_15
REMARK    5  A    between atoms: C_16  and  C_18
REMARK    6  A    between atoms: C_24  and  O_25
REMARK                            x       y       z     vdW  Elec       q    Type
REMARK                         _______ _______ _______ _____ _____    ______ ____
ROOT
ATOM      1  C   UNL     1       2.269   1.508  20.537  0.00  0.00    +0.000 C 
ATOM      2  C   UNL     1       1.924   2.783  19.746  0.00  0.00    +0.000 C 
ATOM      3  C   UNL     1       0.446   2.691  19.324  0.00  0.00    +0.000 C 
ATOM      4  C   UNL     1       2.105   4.018  20.628  0.00  0.00    +0.000 C 
ATOM      5  O   UNL     1       2.157   3.967  21.854  0.00  0.00    +0.000 OA
ATOM      6  C   UNL     1       2.158   5.346  19.950  0.00  0.00    +0.000 A 
ATOM      7  C   UNL     1       1.969   6.501  20.720  0.00  0.00    +0.000 A 
ATOM      8  C   UNL     1       1.927   7.756  20.111  0.00  0.00    +0.000 A 
ATOM      9  C   UNL     1       2.072   7.866  18.727  0.00  0.00    +0.000 A 
ATOM     10  C   UNL     1       2.278   6.712  17.958  0.00  0.00    +0.000 A 
ATOM     11  C   UNL     1       2.346   5.439  18.560  0.00  0.00    +0.000 A 
ATOM     12  C   UNL     1       2.532   4.199  17.705  0.00  0.00    +0.000 C 
ATOM     13  C   UNL     1       2.891   2.952  18.554  0.00  0.00    +0.000 C 
ENDROOT
BRANCH  12  14
ATOM     14  N   UNL     1       3.547   4.423  16.682  0.00  0.00    +0.000 N 
ATOM     15  C   UNL     1       4.873   4.600  17.013  0.00  0.00    +0.000 C 
ATOM     16  O   UNL     1       5.282   4.612  18.168  0.00  0.00    +0.000 OA
ATOM     17  H   UNL     1       3.267   4.352  15.713  0.00  0.00    +0.000 HD
BRANCH  15  18
ATOM     18  C   UNL     1       5.826   4.691  15.879  0.00  0.00    +0.000 A 
ATOM     19  C   UNL     1       7.025   5.398  15.975  0.00  0.00    +0.000 A 
ATOM     20  C   UNL     1       7.819   5.474  14.844  0.00  0.00    +0.000 A 
ATOM     21  N   UNL     1       7.503   4.896  13.668  0.00  0.00    +0.000 NA
ATOM     22  C   UNL     1       6.353   4.190  13.615  0.00  0.00    +0.000 A 
ATOM     23  C   UNL     1       5.489   4.056  14.685  0.00  0.00    +0.000 A 
ENDBRANCH  15  18
ENDBRANCH  12  14
BRANCH   9  24
ATOM     24  C   UNL     1       2.003   9.149  18.091  0.00  0.00    +0.000 C 
ATOM     25  N   UNL     1       1.942  10.187  17.575  0.00  0.00    +0.000 NA
ENDBRANCH   9  24
BRANCH  13  26
ATOM     26  O   UNL     1       2.927   1.767  17.751  0.00  0.00    +0.000 OA
ATOM     27  H   UNL     1       3.766   1.746  17.254  0.00  0.00    +0.000 HD
ENDBRANCH  13  26
TORSDOF 4
ENDMDL
MODEL 5
REMARK VINA RESULT:      -6.5      2.287      4.383
REMARK  Name = 
REMARK  6 active torsions:
REMARK  status: ('A' for Active; 'I' for Inactive)
REMARK    1  A    between atoms: C_1  and  C_2
REMARK    2  A    between atoms: C_2  and  C_3
REMARK    3  A    between atoms: C_9  and  C_10
REMARK    4  A    between atoms: C_14  and  N_15
REMARK    5  A    between atoms: C_16  and  C_18
REMARK    6  A    between atoms: C_24  and  O_25
REMARK                            x       y       z     vdW  Elec       q    Type
REMARK                         _______ _______ _______ _____ _____    ______ ____
ROOT
ATOM      1  C   UNL     1       6.643   6.174  16.465  0.00  0.00    +0.000 C 
ATOM      2  C   UNL     1       5.392   5.589  17.144  0.00  0.00    +0.000 C 
ATOM      3  C   UNL     1       4.512   4.957  16.050  0.00  0.00    +0.000 C 
ATOM      4  C   UNL     1       5.791   4.500  18.140  0.00  0.00    +0.000 C 
ATOM      5  O   UNL     1       6.883   3.941  18.123  0.00  0.00    +0.000 OA
ATOM      6  C   UNL     1       4.765   4.069  19.134  0.00  0.00    +0.000 A 
ATOM      7  C   UNL     1       4.958   2.859  19.815  0.00  0.00    +0.000 A 
ATOM      8  C   UNL     1       3.982   2.379  20.690  0.00  0.00    +0.000 A 
ATOM      9  C   UNL     1       2.805   3.104  20.890  0.00  0.00    +0.000 A 
ATOM     10  C   UNL     1       2.620   4.321  20.221  0.00  0.00    +0.000 A 
ATOM     11  C   UNL     1       3.605   4.832  19.352  0.00  0.00    +0.000 A 
ATOM     12  C   UNL     1       3.368   6.134  18.610  0.00  0.00    +0.000 C 
ATOM     13  C   UNL     1       4.665   6.681  17.959  0.00  0.00    +0.000 C 
ENDROOT
BRANCH  12  14
ATOM     14  N   UNL     1       2.785   7.136  19.495  0.00  0.00    +0.000 N 
ATOM     15  C   UNL     1       1.954   8.124  19.012  0.00  0.00    +0.000 C 
ATOM     16  O   UNL     1       1.676   8.249  17.826  0.00  0.00    +0.000 OA
ATOM     17  H   UNL     1       2.930   7.031  20.490  0.00  0.00    +0.000 HD
BRANCH  15  18
ATOM     18  C   UNL     1       1.322   9.004  20.026  0.00  0.00    +0.000 A 
ATOM     19  C   UNL     1       0.892  10.295  19.719  0.00  0.00    +0.000 A 
ATOM     20  C   UNL     1       0.369  11.060  20.748  0.00  0.00    +0.000 A 
ATOM     21  N   UNL     1       0.245  10.622  22.017  0.00  0.00    +0.000 NA
ATOM     22  C   UNL     1       0.640   9.357  22.276  0.00  0.00    +0.000 A 
ATOM     23  C   UNL     1       1.177   8.514  21.323  0.00  0.00    +0.000 A 
ENDBRANCH  15  18
ENDBRANCH  12  14
BRANCH   9  24
ATOM     24  C   UNL     1       1.787   2.603  21.766  0.00  0.00    +0.000 C 
ATOM     25  N   UNL     1       0.965   2.194  22.476  0.00  0.00    +0.000 NA
ENDBRANCH   9  24
BRANCH  13  26
ATOM     26  O   UNL     1       4.397   7.832  17.150  0.00  0.00    +0.000 OA
ATOM     27  H   UNL     1       5.242   8.201  16.835  0.00  0.00    +0.000 HD
ENDBRANCH  13  26
TORSDOF 4
ENDMDL
MODEL 6
REMARK VINA RESULT:      -6.5      6.720     10.304
REMARK  Name = 
REMARK  6 active torsions:
REMARK  status: ('A' for Active; 'I' for Inactive)
REMARK    1  A    between atoms: C_1  and  C_2
REMARK    2  A    between atoms: C_2  and  C_3
REMARK    3  A    between atoms: C_9  and  C_10
REMARK    4  A    between atoms: C_14  and  N_15
REMARK    5  A    between atoms: C_16  and  C_18
REMARK    6  A    between atoms: C_24  and  O_25
REMARK                            x       y       z     vdW  Elec       q    Type
REMARK                         _______ _______ _______ _____ _____    ______ ____
ROOT
ATOM      1  C   UNL     1      11.041  13.926  16.866  0.00  0.00    +0.000 C 
ATOM      2  C   UNL     1      10.788  13.299  18.249  0.00  0.00    +0.000 C 
ATOM      3  C   UNL     1      12.085  13.427  19.070  0.00  0.00    +0.000 C 
ATOM      4  C   UNL     1       9.673  14.051  18.975  0.00  0.00    +0.000 C 
ATOM      5  O   UNL     1       9.307  15.180  18.659  0.00  0.00    +0.000 OA
ATOM      6  C   UNL     1       9.055  13.388  20.160  0.00  0.00    +0.000 A 
ATOM      7  C   UNL     1       8.300  14.168  21.047  0.00  0.00    +0.000 A 
ATOM      8  C   UNL     1       7.776  13.603  22.211  0.00  0.00    +0.000 A 
ATOM      9  C   UNL     1       8.004  12.256  22.498  0.00  0.00    +0.000 A 
ATOM     10  C   UNL     1       8.746  11.473  21.603  0.00  0.00    +0.000 A 
ATOM     11  C   UNL     1       9.263  12.021  20.412  0.00  0.00    +0.000 A 
ATOM     12  C   UNL     1      10.094  11.165  19.475  0.00  0.00    +0.000 C 
ATOM     13  C   UNL     1      10.303  11.841  18.095  0.00  0.00    +0.000 C 
ENDROOT
BRANCH  12  14
ATOM     14  N   UNL     1       9.492   9.847  19.306  0.00  0.00    +0.000 N 
ATOM     15  C   UNL     1       8.519   9.619  18.357  0.00  0.00    +0.000 C 
ATOM     16  O   UNL     1       8.076  10.495  17.624  0.00  0.00    +0.000 OA
ATOM     17  H   UNL     1       9.875   9.079  19.840  0.00  0.00    +0.000 HD
BRANCH  15  18
ATOM     18  C   UNL     1       8.077   8.212  18.195  0.00  0.00    +0.000 A 
ATOM     19  C   UNL     1       7.271   7.808  17.130  0.00  0.00    +0.000 A 
ATOM     20  C   UNL     1       6.863   6.486  17.099  0.00  0.00    +0.000 A 
ATOM     21  N   UNL     1       7.209   5.573  18.029  0.00  0.00    +0.000 NA
ATOM     22  C   UNL     1       8.017   5.986  19.029  0.00  0.00    +0.000 A 
ATOM     23  C   UNL     1       8.477   7.283  19.154  0.00  0.00    +0.000 A 
ENDBRANCH  15  18
ENDBRANCH  12  14
BRANCH   9  24
ATOM     24  C   UNL     1       7.493  11.677  23.706  0.00  0.00    +0.000 C 
ATOM     25  N   UNL     1       7.077  11.211  24.685  0.00  0.00    +0.000 NA
ENDBRANCH   9  24
BRANCH  13  26
ATOM     26  O   UNL     1      11.201  11.085  17.274  0.00  0.00    +0.000 OA
ATOM     27  H   UNL     1      11.989  11.627  17.085  0.00  0.00    +0.000 HD
ENDBRANCH  13  26
TORSDOF 4
ENDMDL
MODEL 7
REMARK VINA RESULT:      -6.3      1.271      1.434
REMARK  Name = 
REMARK  6 active torsions:
REMARK  status: ('A' for Active; 'I' for Inactive)
REMARK    1  A    between atoms: C_1  and  C_2
REMARK    2  A    between atoms: C_2  and  C_3
REMARK    3  A    between atoms: C_9  and  C_10
REMARK    4  A    between atoms: C_14  and  N_15
REMARK    5  A    between atoms: C_16  and  C_18
REMARK    6  A    between atoms: C_24  and  O_25
REMARK                            x       y       z     vdW  Elec       q    Type
REMARK                         _______ _______ _______ _____ _____    ______ ____
ROOT
ATOM      1  C   UNL     1       2.302   1.948  18.427  0.00  0.00    +0.000 C 
ATOM      2  C   UNL     1       3.381   3.000  18.744  0.00  0.00    +0.000 C 
ATOM      3  C   UNL     1       4.322   2.406  19.808  0.00  0.00    +0.000 C 
ATOM      4  C   UNL     1       4.196   3.315  17.490  0.00  0.00    +0.000 C 
ATOM      5  O   UNL     1       4.223   2.584  16.505  0.00  0.00    +0.000 OA
ATOM      6  C   UNL     1       5.042   4.544  17.511  0.00  0.00    +0.000 A 
ATOM      7  C   UNL     1       6.053   4.679  16.550  0.00  0.00    +0.000 A 
ATOM      8  C   UNL     1       6.920   5.773  16.587  0.00  0.00    +0.000 A 
ATOM      9  C   UNL     1       6.782   6.740  17.586  0.00  0.00    +0.000 A 
ATOM     10  C   UNL     1       5.761   6.612  18.537  0.00  0.00    +0.000 A 
ATOM     11  C   UNL     1       4.863   5.526  18.500  0.00  0.00    +0.000 A 
ATOM     12  C   UNL     1       3.787   5.389  19.562  0.00  0.00    +0.000 C 
ATOM     13  C   UNL     1       2.723   4.327  19.182  0.00  0.00    +0.000 C 
ENDROOT
BRANCH  12  14
ATOM     14  N   UNL     1       3.148   6.674  19.821  0.00  0.00    +0.000 N 
ATOM     15  C   UNL     1       2.361   7.289  18.872  0.00  0.00    +0.000 C 
ATOM     16  O   UNL     1       2.171   6.827  17.753  0.00  0.00    +0.000 OA
ATOM     17  H   UNL     1       3.220   7.059  20.753  0.00  0.00    +0.000 HD
BRANCH  15  18
ATOM     18  C   UNL     1       1.664   8.528  19.299  0.00  0.00    +0.000 A 
ATOM     19  C   UNL     1       1.548   9.637  18.461  0.00  0.00    +0.000 A 
ATOM     20  C   UNL     1       0.932  10.766  18.972  0.00  0.00    +0.000 A 
ATOM     21  N   UNL     1       0.432  10.845  20.222  0.00  0.00    +0.000 NA
ATOM     22  C   UNL     1       0.529   9.744  20.998  0.00  0.00    +0.000 A 
ATOM     23  C   UNL     1       1.128   8.570  20.585  0.00  0.00    +0.000 A 
ENDBRANCH  15  18
ENDBRANCH  12  14
BRANCH   9  24
ATOM     24  C   UNL     1       7.685   7.851  17.646  0.00  0.00    +0.000 C 
ATOM     25  N   UNL     1       8.419   8.750  17.698  0.00  0.00    +0.000 NA
ENDBRANCH   9  24
BRANCH  13  26
ATOM     26  O   UNL     1       1.795   4.112  20.252  0.00  0.00    +0.000 OA
ATOM     27  H   UNL     1       1.999   4.731  20.976  0.00  0.00    +0.000 HD
ENDBRANCH  13  26
TORSDOF 4
ENDMDL
MODEL 8
REMARK VINA RESULT:      -6.3      2.294      4.498
REMARK  Name = 
REMARK  6 active torsions:
REMARK  status: ('A' for Active; 'I' for Inactive)
REMARK    1  A    between atoms: C_1  and  C_2
REMARK    2  A    between atoms: C_2  and  C_3
REMARK    3  A    between atoms: C_9  and  C_10
REMARK    4  A    between atoms: C_14  and  N_15
REMARK    5  A    between atoms: C_16  and  C_18
REMARK    6  A    between atoms: C_24  and  O_25
REMARK                            x       y       z     vdW  Elec       q    Type
REMARK                         _______ _______ _______ _____ _____    ______ ____
ROOT
ATOM      1  C   UNL     1       7.541   6.843  17.172  0.00  0.00    +0.000 C 
ATOM      2  C   UNL     1       6.126   6.240  17.107  0.00  0.00    +0.000 C 
ATOM      3  C   UNL     1       5.745   6.088  15.623  0.00  0.00    +0.000 C 
ATOM      4  C   UNL     1       6.109   4.859  17.761  0.00  0.00    +0.000 C 
ATOM      5  O   UNL     1       7.124   4.200  17.965  0.00  0.00    +0.000 OA
ATOM      6  C   UNL     1       4.778   4.277  18.103  0.00  0.00    +0.000 A 
ATOM      7  C   UNL     1       4.695   2.903  18.368  0.00  0.00    +0.000 A 
ATOM      8  C   UNL     1       3.457   2.305  18.610  0.00  0.00    +0.000 A 
ATOM      9  C   UNL     1       2.293   3.076  18.587  0.00  0.00    +0.000 A 
ATOM     10  C   UNL     1       2.378   4.452  18.339  0.00  0.00    +0.000 A 
ATOM     11  C   UNL     1       3.622   5.077  18.116  0.00  0.00    +0.000 A 
ATOM     12  C   UNL     1       3.688   6.561  17.812  0.00  0.00    +0.000 C 
ATOM     13  C   UNL     1       5.134   7.114  17.906  0.00  0.00    +0.000 C 
ENDROOT
BRANCH  12  14
ATOM     14  N   UNL     1       2.802   7.311  18.696  0.00  0.00    +0.000 N 
ATOM     15  C   UNL     1       2.163   8.455  18.270  0.00  0.00    +0.000 C 
ATOM     16  O   UNL     1       2.314   8.934  17.152  0.00  0.00    +0.000 OA
ATOM     17  H   UNL     1       2.594   6.916  19.602  0.00  0.00    +0.000 HD
BRANCH  15  18
ATOM     18  C   UNL     1       1.190   9.055  19.216  0.00  0.00    +0.000 A 
ATOM     19  C   UNL     1       0.269  10.022  18.815  0.00  0.00    +0.000 A 
ATOM     20  C   UNL     1      -0.557  10.564  19.784  0.00  0.00    +0.000 A 
ATOM     21  N   UNL     1      -0.525  10.202  21.083  0.00  0.00    +0.000 NA
ATOM     22  C   UNL     1       0.355   9.240  21.434  0.00  0.00    +0.000 A 
ATOM     23  C   UNL     1       1.225   8.638  20.546  0.00  0.00    +0.000 A 
ENDBRANCH  15  18
ENDBRANCH  12  14
BRANCH   9  24
ATOM     24  C   UNL     1       1.016   2.464  18.807  0.00  0.00    +0.000 C 
ATOM     25  N   UNL     1      -0.020   1.971  18.988  0.00  0.00    +0.000 NA
ENDBRANCH   9  24
BRANCH  13  26
ATOM     26  O   UNL     1       5.199   8.481  17.483  0.00  0.00    +0.000 OA
ATOM     27  H   UNL     1       5.848   8.953  18.037  0.00  0.00    +0.000 HD
ENDBRANCH  13  26
TORSDOF 4
ENDMDL
MODEL 9
REMARK VINA RESULT:      -6.2      4.772      8.431
REMARK  Name = 
REMARK  6 active torsions:
REMARK  status: ('A' for Active; 'I' for Inactive)
REMARK    1  A    between atoms: C_1  and  C_2
REMARK    2  A    between atoms: C_2  and  C_3
REMARK    3  A    between atoms: C_9  and  C_10
REMARK    4  A    between atoms: C_14  and  N_15
REMARK    5  A    between atoms: C_16  and  C_18
REMARK    6  A    between atoms: C_24  and  O_25
REMARK                            x       y       z     vdW  Elec       q    Type
REMARK                         _______ _______ _______ _____ _____    ______ ____
ROOT
ATOM      1  C   UNL     1       2.188   8.806  18.143  0.00  0.00    +0.000 C 
ATOM      2  C   UNL     1       1.170   9.777  18.766  0.00  0.00    +0.000 C 
ATOM      3  C   UNL     1      -0.136   9.675  17.957  0.00  0.00    +0.000 C 
ATOM      4  C   UNL     1       0.880   9.383  20.214  0.00  0.00    +0.000 C 
ATOM      5  O   UNL     1       1.134   8.273  20.672  0.00  0.00    +0.000 OA
ATOM      6  C   UNL     1       0.199  10.391  21.078  0.00  0.00    +0.000 A 
ATOM      7  C   UNL     1      -0.392   9.960  22.274  0.00  0.00    +0.000 A 
ATOM      8  C   UNL     1      -1.111  10.856  23.068  0.00  0.00    +0.000 A 
ATOM      9  C   UNL     1      -1.244  12.188  22.672  0.00  0.00    +0.000 A 
ATOM     10  C   UNL     1      -0.639  12.622  21.485  0.00  0.00    +0.000 A 
ATOM     11  C   UNL     1       0.109  11.737  20.683  0.00  0.00    +0.000 A 
ATOM     12  C   UNL     1       0.725  12.219  19.383  0.00  0.00    +0.000 C 
ATOM     13  C   UNL     1       1.752  11.207  18.811  0.00  0.00    +0.000 C 
ENDROOT
BRANCH  12  14
ATOM     14  N   UNL     1       1.348  13.527  19.558  0.00  0.00    +0.000 N 
ATOM     15  C   UNL     1       0.752  14.675  19.083  0.00  0.00    +0.000 C 
ATOM     16  O   UNL     1      -0.306  14.678  18.464  0.00  0.00    +0.000 OA
ATOM     17  H   UNL     1       2.184  13.580  20.122  0.00  0.00    +0.000 HD
BRANCH  15  18
ATOM     18  C   UNL     1       1.418  15.954  19.435  0.00  0.00    +0.000 A 
ATOM     19  C   UNL     1       0.752  17.177  19.364  0.00  0.00    +0.000 A 
ATOM     20  C   UNL     1       1.476  18.320  19.656  0.00  0.00    +0.000 A 
ATOM     21  N   UNL     1       2.776  18.312  20.012  0.00  0.00    +0.000 NA
ATOM     22  C   UNL     1       3.384  17.110  20.103  0.00  0.00    +0.000 A 
ATOM     23  C   UNL     1       2.754  15.912  19.830  0.00  0.00    +0.000 A 
ENDBRANCH  15  18
ENDBRANCH  12  14
BRANCH   9  24
ATOM     24  C   UNL     1      -2.004  13.106  23.469  0.00  0.00    +0.000 C 
ATOM     25  N   UNL     1      -2.620  13.847  24.117  0.00  0.00    +0.000 NA
ENDBRANCH   9  24
BRANCH  13  26
ATOM     26  O   UNL     1       2.219  11.612  17.519  0.00  0.00    +0.000 OA
ATOM     27  H   UNL     1       2.654  12.480  17.597  0.00  0.00    +0.000 HD
ENDBRANCH  13  26
TORSDOF 4
ENDMDL
