MODEL 1
REMARK VINA RESULT:      -9.0      0.000      0.000
REMARK  Name = 
REMARK  11 active torsions:
REMARK  status: ('A' for Active; 'I' for Inactive)
REMARK    1  A    between atoms: C_1  and  O_2
REMARK    2  A    between atoms: O_2  and  C_3
REMARK    3  A    between atoms: C_3  and  C_4
REMARK    4  A    between atoms: C_8  and  C_9
REMARK    5  A    between atoms: C_12  and  C_13
REMARK    6  A    between atoms: C_16  and  C_17
REMARK    7  A    between atoms: N_19  and  C_20
REMARK    8  A    between atoms: N_29  and  C_30
REMARK    9  A    between atoms: C_30  and  C_31
REMARK   10  A    between atoms: C_31  and  C_32
REMARK   11  A    between atoms: C_31  and  C_33
REMARK                            x       y       z     vdW  Elec       q    Type
REMARK                         _______ _______ _______ _____ _____    ______ ____
ROOT
ATOM      1  C   UNL     1      -1.602  10.738  19.351  0.00  0.00    +0.000 A 
ATOM      2  C   UNL     1      -0.648   9.788  19.424  0.00  0.00    +0.000 A 
ATOM      3  N   UNL     1       0.112   9.683  20.567  0.00  0.00    +0.000 N 
ATOM      4  C   UNL     1       1.136   8.827  20.946  0.00  0.00    +0.000 A 
ATOM      5  C   UNL     1       1.414   9.216  22.249  0.00  0.00    +0.000 A 
ATOM      6  N   UNL     1       0.643  10.285  22.661  0.00  0.00    +0.000 NA
ATOM      7  C   UNL     1      -0.117  10.536  21.617  0.00  0.00    +0.000 A 
ATOM      8  C   UNL     1      -1.171  11.534  21.494  0.00  0.00    +0.000 A 
ATOM      9  N   UNL     1      -1.443  12.419  22.515  0.00  0.00    +0.000 N 
ATOM     10  N   UNL     1      -1.871  11.606  20.391  0.00  0.00    +0.000 NA
ATOM     11  H   UNL     1      -0.740  12.491  23.242  0.00  0.00    +0.000 HD
ENDROOT
BRANCH   1  16
ATOM     12  C   UNL     1      -4.443  11.640  17.026  0.00  0.00    +0.000 A 
ATOM     13  C   UNL     1      -3.994  11.086  15.821  0.00  0.00    +0.000 A 
ATOM     14  C   UNL     1      -2.775  10.413  15.761  0.00  0.00    +0.000 A 
ATOM     15  C   UNL     1      -1.985  10.297  16.902  0.00  0.00    +0.000 A 
ATOM     16  C   UNL     1      -2.395  10.875  18.114  0.00  0.00    +0.000 A 
ATOM     17  C   UNL     1      -3.627  11.544  18.159  0.00  0.00    +0.000 A 
BRANCH  12  18
ATOM     18  C   UNL     1      -5.790  12.303  17.123  0.00  0.00    +0.000 C 
BRANCH  18  20
ATOM     19  C   UNL     1      -7.261  12.073  18.940  0.00  0.00    +0.000 C 
ATOM     20  O   UNL     1      -6.695  11.435  17.803  0.00  0.00    +0.000 OA
ENDBRANCH  18  20
ENDBRANCH  12  18
ENDBRANCH   1  16
BRANCH   4  21
ATOM     21  C   UNL     1       1.717   7.769  20.117  0.00  0.00    +0.000 A 
ATOM     22  C   UNL     1       2.271   8.041  18.857  0.00  0.00    +0.000 A 
ATOM     23  C   UNL     1       2.800   7.036  18.064  0.00  0.00    +0.000 A 
ATOM     24  C   UNL     1       2.845   5.718  18.515  0.00  0.00    +0.000 A 
ATOM     25  C   UNL     1       2.305   5.428  19.782  0.00  0.00    +0.000 A 
ATOM     26  C   UNL     1       1.753   6.445  20.574  0.00  0.00    +0.000 A 
BRANCH  24  27
ATOM     27  C   UNL     1       3.469   4.699  17.621  0.00  0.00    +0.000 C 
ATOM     28  O   UNL     1       2.835   3.687  17.331  0.00  0.00    +0.000 OA
ATOM     29  N   UNL     1       4.740   4.948  17.137  0.00  0.00    +0.000 N 
ATOM     30  H   UNL     1       5.211   5.814  17.349  0.00  0.00    +0.000 HD
BRANCH  29  31
ATOM     31  C   UNL     1       5.410   4.039  16.257  0.00  0.00    +0.000 C 
ATOM     32  C   UNL     1       5.564   4.376  14.800  0.00  0.00    +0.000 C 
ATOM     33  C   UNL     1       6.766   4.367  15.697  0.00  0.00    +0.000 C 
ENDBRANCH  29  31
ENDBRANCH  24  27
ENDBRANCH   4  21
BRANCH   9  34
ATOM     34  C   UNL     1      -2.763  12.964  22.747  0.00  0.00    +0.000 C 
BRANCH  34  35
ATOM     35  C   UNL     1      -3.036  13.173  24.243  0.00  0.00    +0.000 C 
ATOM     36  C   UNL     1      -3.147  14.657  24.599  0.00  0.00    +0.000 C 
ATOM     37  C   UNL     1      -4.326  12.451  24.644  0.00  0.00    +0.000 C 
ENDBRANCH  34  35
ENDBRANCH   9  34
TORSDOF 8
ENDMDL
MODEL 2
REMARK VINA RESULT:      -8.6      0.516      1.157
REMARK  Name = 
REMARK  11 active torsions:
REMARK  status: ('A' for Active; 'I' for Inactive)
REMARK    1  A    between atoms: C_1  and  O_2
REMARK    2  A    between atoms: O_2  and  C_3
REMARK    3  A    between atoms: C_3  and  C_4
REMARK    4  A    between atoms: C_8  and  C_9
REMARK    5  A    between atoms: C_12  and  C_13
REMARK    6  A    between atoms: C_16  and  C_17
REMARK    7  A    between atoms: N_19  and  C_20
REMARK    8  A    between atoms: N_29  and  C_30
REMARK    9  A    between atoms: C_30  and  C_31
REMARK   10  A    between atoms: C_31  and  C_32
REMARK   11  A    between atoms: C_31  and  C_33
REMARK                            x       y       z     vdW  Elec       q    Type
REMARK                         _______ _______ _______ _____ _____    ______ ____
ROOT
ATOM      1  C   UNL     1      -1.607  10.721  19.394  0.00  0.00    +0.000 A 
ATOM      2  C   UNL     1      -0.620   9.804  19.428  0.00  0.00    +0.000 A 
ATOM      3  N   UNL     1       0.142   9.676  20.568  0.00  0.00    +0.000 N 
ATOM      4  C   UNL     1       1.196   8.842  20.911  0.00  0.00    +0.000 A 
ATOM      5  C   UNL     1       1.456   9.183  22.231  0.00  0.00    +0.000 A 
ATOM      6  N   UNL     1       0.647  10.203  22.688  0.00  0.00    +0.000 NA
ATOM      7  C   UNL     1      -0.120  10.472  21.654  0.00  0.00    +0.000 A 
ATOM      8  C   UNL     1      -1.210  11.436  21.572  0.00  0.00    +0.000 A 
ATOM      9  N   UNL     1      -1.517  12.263  22.630  0.00  0.00    +0.000 N 
ATOM     10  N   UNL     1      -1.910  11.531  20.470  0.00  0.00    +0.000 NA
ATOM     11  H   UNL     1      -0.819  12.328  23.362  0.00  0.00    +0.000 HD
ENDROOT
BRANCH   1  16
ATOM     12  C   UNL     1      -4.453  11.671  17.093  0.00  0.00    +0.000 A 
ATOM     13  C   UNL     1      -4.006  11.143  15.876  0.00  0.00    +0.000 A 
ATOM     14  C   UNL     1      -2.786  10.473  15.800  0.00  0.00    +0.000 A 
ATOM     15  C   UNL     1      -1.994  10.333  16.936  0.00  0.00    +0.000 A 
ATOM     16  C   UNL     1      -2.402  10.884  18.161  0.00  0.00    +0.000 A 
ATOM     17  C   UNL     1      -3.635  11.551  18.223  0.00  0.00    +0.000 A 
BRANCH  12  18
ATOM     18  C   UNL     1      -5.801  12.331  17.207  0.00  0.00    +0.000 C 
BRANCH  18  20
ATOM     19  C   UNL     1      -7.361  12.181  18.957  0.00  0.00    +0.000 C 
ATOM     20  O   UNL     1      -6.686  11.473  17.926  0.00  0.00    +0.000 OA
ENDBRANCH  18  20
ENDBRANCH  12  18
ENDBRANCH   1  16
BRANCH   4  21
ATOM     21  C   UNL     1       1.817   7.844  20.038  0.00  0.00    +0.000 A 
ATOM     22  C   UNL     1       1.939   6.501  20.425  0.00  0.00    +0.000 A 
ATOM     23  C   UNL     1       2.548   5.562  19.606  0.00  0.00    +0.000 A 
ATOM     24  C   UNL     1       3.019   5.914  18.343  0.00  0.00    +0.000 A 
ATOM     25  C   UNL     1       2.894   7.255  17.933  0.00  0.00    +0.000 A 
ATOM     26  C   UNL     1       2.295   8.205  18.771  0.00  0.00    +0.000 A 
BRANCH  24  27
ATOM     27  C   UNL     1       3.624   4.838  17.504  0.00  0.00    +0.000 C 
ATOM     28  O   UNL     1       2.993   3.802  17.310  0.00  0.00    +0.000 OA
ATOM     29  N   UNL     1       4.875   5.063  16.959  0.00  0.00    +0.000 N 
ATOM     30  H   UNL     1       5.343   5.947  17.091  0.00  0.00    +0.000 HD
BRANCH  29  31
ATOM     31  C   UNL     1       5.525   4.099  16.124  0.00  0.00    +0.000 C 
ATOM     32  C   UNL     1       5.573   4.302  14.634  0.00  0.00    +0.000 C 
ATOM     33  C   UNL     1       6.828   4.420  15.447  0.00  0.00    +0.000 C 
ENDBRANCH  29  31
ENDBRANCH  24  27
ENDBRANCH   4  21
BRANCH   9  34
ATOM     34  C   UNL     1      -2.856  12.748  22.881  0.00  0.00    +0.000 C 
BRANCH  34  35
ATOM     35  C   UNL     1      -2.985  14.246  22.565  0.00  0.00    +0.000 C 
ATOM     36  C   UNL     1      -3.870  14.493  21.341  0.00  0.00    +0.000 C 
ATOM     37  C   UNL     1      -3.564  14.986  23.775  0.00  0.00    +0.000 C 
ENDBRANCH  34  35
ENDBRANCH   9  34
TORSDOF 8
ENDMDL
MODEL 3
REMARK VINA RESULT:      -8.4      0.818      1.027
REMARK  Name = 
REMARK  11 active torsions:
REMARK  status: ('A' for Active; 'I' for Inactive)
REMARK    1  A    between atoms: C_1  and  O_2
REMARK    2  A    between atoms: O_2  and  C_3
REMARK    3  A    between atoms: C_3  and  C_4
REMARK    4  A    between atoms: C_8  and  C_9
REMARK    5  A    between atoms: C_12  and  C_13
REMARK    6  A    between atoms: C_16  and  C_17
REMARK    7  A    between atoms: N_19  and  C_20
REMARK    8  A    between atoms: N_29  and  C_30
REMARK    9  A    between atoms: C_30  and  C_31
REMARK   10  A    between atoms: C_31  and  C_32
REMARK   11  A    between atoms: C_31  and  C_33
REMARK                            x       y       z     vdW  Elec       q    Type
REMARK                         _______ _______ _______ _____ _____    ______ ____
ROOT
ATOM      1  C   UNL     1      -1.598  10.770  19.499  0.00  0.00    +0.000 A 
ATOM      2  C   UNL     1      -0.651   9.812  19.539  0.00  0.00    +0.000 A 
ATOM      3  N   UNL     1       0.122   9.674  20.670  0.00  0.00    +0.000 N 
ATOM      4  C   UNL     1       1.143   8.801  21.017  0.00  0.00    +0.000 A 
ATOM      5  C   UNL     1       1.440   9.159  22.324  0.00  0.00    +0.000 A 
ATOM      6  N   UNL     1       0.683  10.225  22.771  0.00  0.00    +0.000 NA
ATOM      7  C   UNL     1      -0.087  10.505  21.742  0.00  0.00    +0.000 A 
ATOM      8  C   UNL     1      -1.134  11.514  21.654  0.00  0.00    +0.000 A 
ATOM      9  N   UNL     1      -1.387  12.378  22.698  0.00  0.00    +0.000 N 
ATOM     10  N   UNL     1      -1.847  11.616  20.562  0.00  0.00    +0.000 NA
ATOM     11  H   UNL     1      -0.675  12.427  23.418  0.00  0.00    +0.000 HD
ENDROOT
BRANCH   1  16
ATOM     12  C   UNL     1      -4.550  11.510  17.257  0.00  0.00    +0.000 A 
ATOM     13  C   UNL     1      -4.021  11.197  15.999  0.00  0.00    +0.000 A 
ATOM     14  C   UNL     1      -2.710  10.739  15.875  0.00  0.00    +0.000 A 
ATOM     15  C   UNL     1      -1.910  10.601  17.006  0.00  0.00    +0.000 A 
ATOM     16  C   UNL     1      -2.404  10.942  18.275  0.00  0.00    +0.000 A 
ATOM     17  C   UNL     1      -3.728  11.395  18.383  0.00  0.00    +0.000 A 
BRANCH  12  18
ATOM     18  C   UNL     1      -5.986  11.932  17.413  0.00  0.00    +0.000 C 
BRANCH  18  20
ATOM     19  C   UNL     1      -6.647  13.910  18.493  0.00  0.00    +0.000 C 
ATOM     20  O   UNL     1      -6.072  13.353  17.319  0.00  0.00    +0.000 OA
ENDBRANCH  18  20
ENDBRANCH  12  18
ENDBRANCH   1  16
BRANCH   4  21
ATOM     21  C   UNL     1       1.705   7.758  20.157  0.00  0.00    +0.000 A 
ATOM     22  C   UNL     1       2.208   8.048  18.880  0.00  0.00    +0.000 A 
ATOM     23  C   UNL     1       2.720   7.056  18.058  0.00  0.00    +0.000 A 
ATOM     24  C   UNL     1       2.797   5.735  18.495  0.00  0.00    +0.000 A 
ATOM     25  C   UNL     1       2.308   5.427  19.779  0.00  0.00    +0.000 A 
ATOM     26  C   UNL     1       1.774   6.430  20.600  0.00  0.00    +0.000 A 
BRANCH  24  27
ATOM     27  C   UNL     1       3.399   4.732  17.569  0.00  0.00    +0.000 C 
ATOM     28  O   UNL     1       2.747   3.738  17.256  0.00  0.00    +0.000 OA
ATOM     29  N   UNL     1       4.671   4.973  17.085  0.00  0.00    +0.000 N 
ATOM     30  H   UNL     1       5.157   5.826  17.317  0.00  0.00    +0.000 HD
BRANCH  29  31
ATOM     31  C   UNL     1       5.321   4.079  16.175  0.00  0.00    +0.000 C 
ATOM     32  C   UNL     1       5.482   4.459  14.729  0.00  0.00    +0.000 C 
ATOM     33  C   UNL     1       6.683   4.396  15.624  0.00  0.00    +0.000 C 
ENDBRANCH  29  31
ENDBRANCH  24  27
ENDBRANCH   4  21
BRANCH   9  34
ATOM     34  C   UNL     1      -2.699  12.928  22.958  0.00  0.00    +0.000 C 
BRANCH  34  35
ATOM     35  C   UNL     1      -2.730  14.448  22.740  0.00  0.00    +0.000 C 
ATOM     36  C   UNL     1      -1.328  15.057  22.795  0.00  0.00    +0.000 C 
ATOM     37  C   UNL     1      -3.377  14.768  21.389  0.00  0.00    +0.000 C 
ENDBRANCH  34  35
ENDBRANCH   9  34
TORSDOF 8
ENDMDL
MODEL 4
REMARK VINA RESULT:      -8.1      1.188      2.069
REMARK  Name = 
REMARK  11 active torsions:
REMARK  status: ('A' for Active; 'I' for Inactive)
REMARK    1  A    between atoms: C_1  and  O_2
REMARK    2  A    between atoms: O_2  and  C_3
REMARK    3  A    between atoms: C_3  and  C_4
REMARK    4  A    between atoms: C_8  and  C_9
REMARK    5  A    between atoms: C_12  and  C_13
REMARK    6  A    between atoms: C_16  and  C_17
REMARK    7  A    between atoms: N_19  and  C_20
REMARK    8  A    between atoms: N_29  and  C_30
REMARK    9  A    between atoms: C_30  and  C_31
REMARK   10  A    between atoms: C_31  and  C_32
REMARK   11  A    between atoms: C_31  and  C_33
REMARK                            x       y       z     vdW  Elec       q    Type
REMARK                         _______ _______ _______ _____ _____    ______ ____
ROOT
ATOM      1  C   UNL     1      -1.744  10.820  19.622  0.00  0.00    +0.000 A 
ATOM      2  C   UNL     1      -0.783   9.875  19.622  0.00  0.00    +0.000 A 
ATOM      3  N   UNL     1       0.065   9.776  20.702  0.00  0.00    +0.000 N 
ATOM      4  C   UNL     1       1.119   8.926  21.000  0.00  0.00    +0.000 A 
ATOM      5  C   UNL     1       1.497   9.320  22.276  0.00  0.00    +0.000 A 
ATOM      6  N   UNL     1       0.757  10.387  22.746  0.00  0.00    +0.000 NA
ATOM      7  C   UNL     1      -0.084  10.631  21.764  0.00  0.00    +0.000 A 
ATOM      8  C   UNL     1      -1.149  11.624  21.723  0.00  0.00    +0.000 A 
ATOM      9  N   UNL     1      -1.345  12.511  22.759  0.00  0.00    +0.000 N 
ATOM     10  N   UNL     1      -1.935  11.690  20.678  0.00  0.00    +0.000 NA
ATOM     11  H   UNL     1      -0.587  12.587  23.429  0.00  0.00    +0.000 HD
ENDROOT
BRANCH   1  16
ATOM     12  C   UNL     1      -3.041  10.499  16.085  0.00  0.00    +0.000 A 
ATOM     13  C   UNL     1      -4.227  11.239  16.163  0.00  0.00    +0.000 A 
ATOM     14  C   UNL     1      -4.605  11.849  17.358  0.00  0.00    +0.000 A 
ATOM     15  C   UNL     1      -3.808  11.716  18.491  0.00  0.00    +0.000 A 
ATOM     16  C   UNL     1      -2.633  10.950  18.450  0.00  0.00    +0.000 A 
ATOM     17  C   UNL     1      -2.263  10.347  17.239  0.00  0.00    +0.000 A 
BRANCH  12  18
ATOM     18  C   UNL     1      -2.582   9.898  14.784  0.00  0.00    +0.000 C 
BRANCH  18  20
ATOM     19  C   UNL     1      -3.247   9.567  12.556  0.00  0.00    +0.000 C 
ATOM     20  O   UNL     1      -3.437  10.342  13.732  0.00  0.00    +0.000 OA
ENDBRANCH  18  20
ENDBRANCH  12  18
ENDBRANCH   1  16
BRANCH   4  21
ATOM     21  C   UNL     1       1.638   7.869  20.131  0.00  0.00    +0.000 A 
ATOM     22  C   UNL     1       2.130   8.146  18.846  0.00  0.00    +0.000 A 
ATOM     23  C   UNL     1       2.600   7.142  18.016  0.00  0.00    +0.000 A 
ATOM     24  C   UNL     1       2.646   5.818  18.449  0.00  0.00    +0.000 A 
ATOM     25  C   UNL     1       2.168   5.522  19.740  0.00  0.00    +0.000 A 
ATOM     26  C   UNL     1       1.675   6.538  20.570  0.00  0.00    +0.000 A 
BRANCH  24  27
ATOM     27  C   UNL     1       3.205   4.799  17.513  0.00  0.00    +0.000 C 
ATOM     28  O   UNL     1       2.551   3.789  17.266  0.00  0.00    +0.000 OA
ATOM     29  N   UNL     1       4.440   5.047  16.944  0.00  0.00    +0.000 N 
ATOM     30  H   UNL     1       4.927   5.912  17.124  0.00  0.00    +0.000 HD
BRANCH  29  31
ATOM     31  C   UNL     1       5.046   4.138  16.018  0.00  0.00    +0.000 C 
ATOM     32  C   UNL     1       5.513   4.629  14.675  0.00  0.00    +0.000 C 
ATOM     33  C   UNL     1       6.516   4.217  15.712  0.00  0.00    +0.000 C 
ENDBRANCH  29  31
ENDBRANCH  24  27
ENDBRANCH   4  21
BRANCH   9  34
ATOM     34  C   UNL     1      -2.645  13.050  23.093  0.00  0.00    +0.000 C 
BRANCH  34  35
ATOM     35  C   UNL     1      -2.569  14.013  24.287  0.00  0.00    +0.000 C 
ATOM     36  C   UNL     1      -1.324  14.900  24.223  0.00  0.00    +0.000 C 
ATOM     37  C   UNL     1      -3.824  14.892  24.328  0.00  0.00    +0.000 C 
ENDBRANCH  34  35
ENDBRANCH   9  34
TORSDOF 8
ENDMDL
MODEL 5
REMARK VINA RESULT:      -8.0      0.846      1.311
REMARK  Name = 
REMARK  11 active torsions:
REMARK  status: ('A' for Active; 'I' for Inactive)
REMARK    1  A    between atoms: C_1  and  O_2
REMARK    2  A    between atoms: O_2  and  C_3
REMARK    3  A    between atoms: C_3  and  C_4
REMARK    4  A    between atoms: C_8  and  C_9
REMARK    5  A    between atoms: C_12  and  C_13
REMARK    6  A    between atoms: C_16  and  C_17
REMARK    7  A    between atoms: N_19  and  C_20
REMARK    8  A    between atoms: N_29  and  C_30
REMARK    9  A    between atoms: C_30  and  C_31
REMARK   10  A    between atoms: C_31  and  C_32
REMARK   11  A    between atoms: C_31  and  C_33
REMARK                            x       y       z     vdW  Elec       q    Type
REMARK                         _______ _______ _______ _____ _____    ______ ____
ROOT
ATOM      1  C   UNL     1      -1.948  11.182  19.206  0.00  0.00    +0.000 A 
ATOM      2  C   UNL     1      -0.969  10.265  19.335  0.00  0.00    +0.000 A 
ATOM      3  N   UNL     1      -0.219  10.238  20.489  0.00  0.00    +0.000 N 
ATOM      4  C   UNL     1       0.825   9.431  20.919  0.00  0.00    +0.000 A 
ATOM      5  C   UNL     1       1.077   9.892  22.203  0.00  0.00    +0.000 A 
ATOM      6  N   UNL     1       0.272  10.957  22.556  0.00  0.00    +0.000 NA
ATOM      7  C   UNL     1      -0.483  11.134  21.493  0.00  0.00    +0.000 A 
ATOM      8  C   UNL     1      -1.563  12.094  21.312  0.00  0.00    +0.000 A 
ATOM      9  N   UNL     1      -1.872  13.019  22.285  0.00  0.00    +0.000 N 
ATOM     10  N   UNL     1      -2.253  12.091  20.199  0.00  0.00    +0.000 NA
ATOM     11  H   UNL     1      -1.180  13.147  23.014  0.00  0.00    +0.000 HD
ENDROOT
BRANCH   1  16
ATOM     12  C   UNL     1      -4.853  11.712  16.846  0.00  0.00    +0.000 A 
ATOM     13  C   UNL     1      -4.304  11.272  15.635  0.00  0.00    +0.000 A 
ATOM     14  C   UNL     1      -2.994  10.796  15.583  0.00  0.00    +0.000 A 
ATOM     15  C   UNL     1      -2.216  10.767  16.737  0.00  0.00    +0.000 A 
ATOM     16  C   UNL     1      -2.731  11.235  17.956  0.00  0.00    +0.000 A 
ATOM     17  C   UNL     1      -4.053  11.706  17.993  0.00  0.00    +0.000 A 
BRANCH  12  18
ATOM     18  C   UNL     1      -6.288  12.157  16.933  0.00  0.00    +0.000 C 
BRANCH  18  20
ATOM     19  C   UNL     1      -7.445  14.104  17.554  0.00  0.00    +0.000 C 
ATOM     20  O   UNL     1      -6.349  13.578  16.819  0.00  0.00    +0.000 OA
ENDBRANCH  18  20
ENDBRANCH  12  18
ENDBRANCH   1  16
BRANCH   4  21
ATOM     21  C   UNL     1       1.445   8.352  20.149  0.00  0.00    +0.000 A 
ATOM     22  C   UNL     1       1.575   7.055  20.670  0.00  0.00    +0.000 A 
ATOM     23  C   UNL     1       2.182   6.040  19.948  0.00  0.00    +0.000 A 
ATOM     24  C   UNL     1       2.645   6.261  18.653  0.00  0.00    +0.000 A 
ATOM     25  C   UNL     1       2.513   7.553  18.108  0.00  0.00    +0.000 A 
ATOM     26  C   UNL     1       1.915   8.582  18.849  0.00  0.00    +0.000 A 
BRANCH  24  27
ATOM     27  C   UNL     1       3.249   5.107  17.924  0.00  0.00    +0.000 C 
ATOM     28  O   UNL     1       2.780   3.983  18.086  0.00  0.00    +0.000 OA
ATOM     29  N   UNL     1       4.311   5.357  17.076  0.00  0.00    +0.000 N 
ATOM     30  H   UNL     1       4.637   6.299  16.922  0.00  0.00    +0.000 HD
BRANCH  29  31
ATOM     31  C   UNL     1       4.941   4.318  16.319  0.00  0.00    +0.000 C 
ATOM     32  C   UNL     1       5.551   4.624  14.979  0.00  0.00    +0.000 C 
ATOM     33  C   UNL     1       6.433   4.288  16.144  0.00  0.00    +0.000 C 
ENDBRANCH  29  31
ENDBRANCH  24  27
ENDBRANCH   4  21
BRANCH   9  34
ATOM     34  C   UNL     1      -3.210  13.537  22.477  0.00  0.00    +0.000 C 
BRANCH  34  35
ATOM     35  C   UNL     1      -3.485  13.862  23.952  0.00  0.00    +0.000 C 
ATOM     36  C   UNL     1      -3.935  12.625  24.732  0.00  0.00    +0.000 C 
ATOM     37  C   UNL     1      -2.227  14.448  24.600  0.00  0.00    +0.000 C 
ENDBRANCH  34  35
ENDBRANCH   9  34
TORSDOF 8
ENDMDL
MODEL 6
REMARK VINA RESULT:      -7.9      1.400      2.337
REMARK  Name = 
REMARK  11 active torsions:
REMARK  status: ('A' for Active; 'I' for Inactive)
REMARK    1  A    between atoms: C_1  and  O_2
REMARK    2  A    between atoms: O_2  and  C_3
REMARK    3  A    between atoms: C_3  and  C_4
REMARK    4  A    between atoms: C_8  and  C_9
REMARK    5  A    between atoms: C_12  and  C_13
REMARK    6  A    between atoms: C_16  and  C_17
REMARK    7  A    between atoms: N_19  and  C_20
REMARK    8  A    between atoms: N_29  and  C_30
REMARK    9  A    between atoms: C_30  and  C_31
REMARK   10  A    between atoms: C_31  and  C_32
REMARK   11  A    between atoms: C_31  and  C_33
REMARK                            x       y       z     vdW  Elec       q    Type
REMARK                         _______ _______ _______ _____ _____    ______ ____
ROOT
ATOM      1  C   UNL     1      -2.138  11.300  19.283  0.00  0.00    +0.000 A 
ATOM      2  C   UNL     1      -1.124  10.414  19.344  0.00  0.00    +0.000 A 
ATOM      3  N   UNL     1      -0.254  10.459  20.411  0.00  0.00    +0.000 N 
ATOM      4  C   UNL     1       0.853   9.698  20.760  0.00  0.00    +0.000 A 
ATOM      5  C   UNL     1       1.227  10.224  21.989  0.00  0.00    +0.000 A 
ATOM      6  N   UNL     1       0.434  11.284  22.380  0.00  0.00    +0.000 NA
ATOM      7  C   UNL     1      -0.436  11.394  21.398  0.00  0.00    +0.000 A 
ATOM      8  C   UNL     1      -1.557  12.318  21.293  0.00  0.00    +0.000 A 
ATOM      9  N   UNL     1      -1.787  13.279  22.253  0.00  0.00    +0.000 N 
ATOM     10  N   UNL     1      -2.361  12.247  20.263  0.00  0.00    +0.000 NA
ATOM     11  H   UNL     1      -1.025  13.457  22.897  0.00  0.00    +0.000 HD
ENDROOT
BRANCH   1  16
ATOM     12  C   UNL     1      -3.431  10.689  15.783  0.00  0.00    +0.000 A 
ATOM     13  C   UNL     1      -4.698  11.282  15.855  0.00  0.00    +0.000 A 
ATOM     14  C   UNL     1      -5.132  11.886  17.034  0.00  0.00    +0.000 A 
ATOM     15  C   UNL     1      -4.310  11.895  18.157  0.00  0.00    +0.000 A 
ATOM     16  C   UNL     1      -3.051  11.277  18.123  0.00  0.00    +0.000 A 
ATOM     17  C   UNL     1      -2.625  10.677  16.927  0.00  0.00    +0.000 A 
BRANCH  12  18
ATOM     18  C   UNL     1      -2.919  10.100  14.497  0.00  0.00    +0.000 C 
BRANCH  18  20
ATOM     19  C   UNL     1      -3.581   9.726  12.274  0.00  0.00    +0.000 C 
ATOM     20  O   UNL     1      -4.018   9.854  13.621  0.00  0.00    +0.000 OA
ENDBRANCH  18  20
ENDBRANCH  12  18
ENDBRANCH   1  16
BRANCH   4  21
ATOM     21  C   UNL     1       1.418   8.600  19.975  0.00  0.00    +0.000 A 
ATOM     22  C   UNL     1       1.631   7.330  20.532  0.00  0.00    +0.000 A 
ATOM     23  C   UNL     1       2.186   6.297  19.794  0.00  0.00    +0.000 A 
ATOM     24  C   UNL     1       2.512   6.473  18.450  0.00  0.00    +0.000 A 
ATOM     25  C   UNL     1       2.295   7.737  17.871  0.00  0.00    +0.000 A 
ATOM     26  C   UNL     1       1.750   8.785  18.626  0.00  0.00    +0.000 A 
BRANCH  24  27
ATOM     27  C   UNL     1       3.067   5.301  17.711  0.00  0.00    +0.000 C 
ATOM     28  O   UNL     1       2.379   4.291  17.583  0.00  0.00    +0.000 OA
ATOM     29  N   UNL     1       4.340   5.410  17.181  0.00  0.00    +0.000 N 
ATOM     30  H   UNL     1       4.858   6.272  17.256  0.00  0.00    +0.000 HD
BRANCH  29  31
ATOM     31  C   UNL     1       4.947   4.347  16.439  0.00  0.00    +0.000 C 
ATOM     32  C   UNL     1       5.511   4.610  15.069  0.00  0.00    +0.000 C 
ATOM     33  C   UNL     1       6.433   4.315  16.215  0.00  0.00    +0.000 C 
ENDBRANCH  29  31
ENDBRANCH  24  27
ENDBRANCH   4  21
BRANCH   9  34
ATOM     34  C   UNL     1      -3.111  13.772  22.565  0.00  0.00    +0.000 C 
BRANCH  34  35
ATOM     35  C   UNL     1      -4.050  12.638  23.000  0.00  0.00    +0.000 C 
ATOM     36  C   UNL     1      -4.116  12.508  24.523  0.00  0.00    +0.000 C 
ATOM     37  C   UNL     1      -5.456  12.884  22.445  0.00  0.00    +0.000 C 
ENDBRANCH  34  35
ENDBRANCH   9  34
TORSDOF 8
ENDMDL
MODEL 7
REMARK VINA RESULT:      -7.7      3.707      4.402
REMARK  Name = 
REMARK  11 active torsions:
REMARK  status: ('A' for Active; 'I' for Inactive)
REMARK    1  A    between atoms: C_1  and  O_2
REMARK    2  A    between atoms: O_2  and  C_3
REMARK    3  A    between atoms: C_3  and  C_4
REMARK    4  A    between atoms: C_8  and  C_9
REMARK    5  A    between atoms: C_12  and  C_13
REMARK    6  A    between atoms: C_16  and  C_17
REMARK    7  A    between atoms: N_19  and  C_20
REMARK    8  A    between atoms: N_29  and  C_30
REMARK    9  A    between atoms: C_30  and  C_31
REMARK   10  A    between atoms: C_31  and  C_32
REMARK   11  A    between atoms: C_31  and  C_33
REMARK                            x       y       z     vdW  Elec       q    Type
REMARK                         _______ _______ _______ _____ _____    ______ ____
ROOT
ATOM      1  C   UNL     1       0.901  13.039  20.546  0.00  0.00    +0.000 A 
ATOM      2  C   UNL     1       1.091  11.717  20.367  0.00  0.00    +0.000 A 
ATOM      3  N   UNL     1       0.460  10.826  21.206  0.00  0.00    +0.000 N 
ATOM      4  C   UNL     1       0.444   9.440  21.273  0.00  0.00    +0.000 A 
ATOM      5  C   UNL     1      -0.447   9.180  22.305  0.00  0.00    +0.000 A 
ATOM      6  N   UNL     1      -0.936  10.331  22.890  0.00  0.00    +0.000 NA
ATOM      7  C   UNL     1      -0.358  11.293  22.203  0.00  0.00    +0.000 A 
ATOM      8  C   UNL     1      -0.543  12.731  22.344  0.00  0.00    +0.000 A 
ATOM      9  N   UNL     1      -1.350  13.258  23.329  0.00  0.00    +0.000 N 
ATOM     10  N   UNL     1       0.075  13.547  21.529  0.00  0.00    +0.000 NA
ATOM     11  H   UNL     1      -1.617  12.623  24.073  0.00  0.00    +0.000 HD
ENDROOT
BRANCH   1  16
ATOM     12  C   UNL     1       1.674  16.208  18.634  0.00  0.00    +0.000 A 
ATOM     13  C   UNL     1       2.833  15.832  17.944  0.00  0.00    +0.000 A 
ATOM     14  C   UNL     1       3.362  14.551  18.091  0.00  0.00    +0.000 A 
ATOM     15  C   UNL     1       2.745  13.635  18.938  0.00  0.00    +0.000 A 
ATOM     16  C   UNL     1       1.603  13.997  19.669  0.00  0.00    +0.000 A 
ATOM     17  C   UNL     1       1.079  15.289  19.506  0.00  0.00    +0.000 A 
BRANCH  12  18
ATOM     18  C   UNL     1       1.049  17.561  18.428  0.00  0.00    +0.000 C 
BRANCH  18  20
ATOM     19  C   UNL     1       0.725  18.501  16.300  0.00  0.00    +0.000 C 
ATOM     20  O   UNL     1       1.672  18.203  17.316  0.00  0.00    +0.000 OA
ENDBRANCH  18  20
ENDBRANCH  12  18
ENDBRANCH   1  16
BRANCH   4  21
ATOM     21  C   UNL     1       1.198   8.533  20.407  0.00  0.00    +0.000 A 
ATOM     22  C   UNL     1       1.586   8.904  19.111  0.00  0.00    +0.000 A 
ATOM     23  C   UNL     1       2.281   8.036  18.284  0.00  0.00    +0.000 A 
ATOM     24  C   UNL     1       2.663   6.773  18.732  0.00  0.00    +0.000 A 
ATOM     25  C   UNL     1       2.294   6.388  20.035  0.00  0.00    +0.000 A 
ATOM     26  C   UNL     1       1.574   7.261  20.862  0.00  0.00    +0.000 A 
BRANCH  24  27
ATOM     27  C   UNL     1       3.446   5.912  17.799  0.00  0.00    +0.000 C 
ATOM     28  O   UNL     1       2.978   4.833  17.443  0.00  0.00    +0.000 OA
ATOM     29  N   UNL     1       4.670   6.378  17.354  0.00  0.00    +0.000 N 
ATOM     30  H   UNL     1       5.001   7.292  17.621  0.00  0.00    +0.000 HD
BRANCH  29  31
ATOM     31  C   UNL     1       5.481   5.632  16.441  0.00  0.00    +0.000 C 
ATOM     32  C   UNL     1       6.967   5.859  16.392  0.00  0.00    +0.000 C 
ATOM     33  C   UNL     1       6.424   4.571  16.937  0.00  0.00    +0.000 C 
ENDBRANCH  29  31
ENDBRANCH  24  27
ENDBRANCH   4  21
BRANCH   9  34
ATOM     34  C   UNL     1      -2.062  14.507  23.172  0.00  0.00    +0.000 C 
BRANCH  34  35
ATOM     35  C   UNL     1      -3.373  14.517  23.972  0.00  0.00    +0.000 C 
ATOM     36  C   UNL     1      -4.481  15.274  23.237  0.00  0.00    +0.000 C 
ATOM     37  C   UNL     1      -3.827  13.080  24.247  0.00  0.00    +0.000 C 
ENDBRANCH  34  35
ENDBRANCH   9  34
TORSDOF 8
ENDMDL
MODEL 8
REMARK VINA RESULT:      -7.6      3.717      4.528
REMARK  Name = 
REMARK  11 active torsions:
REMARK  status: ('A' for Active; 'I' for Inactive)
REMARK    1  A    between atoms: C_1  and  O_2
REMARK    2  A    between atoms: O_2  and  C_3
REMARK    3  A    between atoms: C_3  and  C_4
REMARK    4  A    between atoms: C_8  and  C_9
REMARK    5  A    between atoms: C_12  and  C_13
REMARK    6  A    between atoms: C_16  and  C_17
REMARK    7  A    between atoms: N_19  and  C_20
REMARK    8  A    between atoms: N_29  and  C_30
REMARK    9  A    between atoms: C_30  and  C_31
REMARK   10  A    between atoms: C_31  and  C_32
REMARK   11  A    between atoms: C_31  and  C_33
REMARK                            x       y       z     vdW  Elec       q    Type
REMARK                         _______ _______ _______ _____ _____    ______ ____
ROOT
ATOM      1  C   UNL     1       0.937  13.053  20.583  0.00  0.00    +0.000 A 
ATOM      2  C   UNL     1       1.101  11.724  20.428  0.00  0.00    +0.000 A 
ATOM      3  N   UNL     1       0.458  10.861  21.287  0.00  0.00    +0.000 N 
ATOM      4  C   UNL     1       0.416   9.478  21.381  0.00  0.00    +0.000 A 
ATOM      5  C   UNL     1      -0.473   9.254  22.423  0.00  0.00    +0.000 A 
ATOM      6  N   UNL     1      -0.937  10.425  22.988  0.00  0.00    +0.000 NA
ATOM      7  C   UNL     1      -0.345  11.363  22.280  0.00  0.00    +0.000 A 
ATOM      8  C   UNL     1      -0.502  12.806  22.395  0.00  0.00    +0.000 A 
ATOM      9  N   UNL     1      -1.294  13.367  23.373  0.00  0.00    +0.000 N 
ATOM     10  N   UNL     1       0.127  13.595  21.560  0.00  0.00    +0.000 NA
ATOM     11  H   UNL     1      -1.567  12.751  24.131  0.00  0.00    +0.000 HD
ENDROOT
BRANCH   1  16
ATOM     12  C   UNL     1       1.821  16.207  18.696  0.00  0.00    +0.000 A 
ATOM     13  C   UNL     1       2.904  15.768  17.925  0.00  0.00    +0.000 A 
ATOM     14  C   UNL     1       3.345  14.448  18.010  0.00  0.00    +0.000 A 
ATOM     15  C   UNL     1       2.717  13.557  18.874  0.00  0.00    +0.000 A 
ATOM     16  C   UNL     1       1.652  13.980  19.684  0.00  0.00    +0.000 A 
ATOM     17  C   UNL     1       1.215  15.311  19.583  0.00  0.00    +0.000 A 
BRANCH  12  18
ATOM     18  C   UNL     1       1.286  17.607  18.559  0.00  0.00    +0.000 C 
BRANCH  18  20
ATOM     19  C   UNL     1       0.867  18.516  16.434  0.00  0.00    +0.000 C 
ATOM     20  O   UNL     1       1.861  18.221  17.407  0.00  0.00    +0.000 OA
ENDBRANCH  18  20
ENDBRANCH  12  18
ENDBRANCH   1  16
BRANCH   4  21
ATOM     21  C   UNL     1       1.149   8.540  20.528  0.00  0.00    +0.000 A 
ATOM     22  C   UNL     1       1.467   7.244  20.962  0.00  0.00    +0.000 A 
ATOM     23  C   UNL     1       2.180   6.365  20.163  0.00  0.00    +0.000 A 
ATOM     24  C   UNL     1       2.566   6.724  18.873  0.00  0.00    +0.000 A 
ATOM     25  C   UNL     1       2.245   8.017  18.415  0.00  0.00    +0.000 A 
ATOM     26  C   UNL     1       1.540   8.910  19.234  0.00  0.00    +0.000 A 
BRANCH  24  27
ATOM     27  C   UNL     1       3.294   5.709  18.057  0.00  0.00    +0.000 C 
ATOM     28  O   UNL     1       2.983   4.524  18.157  0.00  0.00    +0.000 OA
ATOM     29  N   UNL     1       4.287   6.150  17.202  0.00  0.00    +0.000 N 
ATOM     30  H   UNL     1       4.481   7.135  17.102  0.00  0.00    +0.000 HD
BRANCH  29  31
ATOM     31  C   UNL     1       5.024   5.252  16.366  0.00  0.00    +0.000 C 
ATOM     32  C   UNL     1       5.649   5.750  15.091  0.00  0.00    +0.000 C 
ATOM     33  C   UNL     1       6.519   5.360  16.249  0.00  0.00    +0.000 C 
ENDBRANCH  29  31
ENDBRANCH  24  27
ENDBRANCH   4  21
BRANCH   9  34
ATOM     34  C   UNL     1      -1.983  14.626  23.197  0.00  0.00    +0.000 C 
BRANCH  34  35
ATOM     35  C   UNL     1      -3.480  14.503  23.517  0.00  0.00    +0.000 C 
ATOM     36  C   UNL     1      -3.815  13.151  24.150  0.00  0.00    +0.000 C 
ATOM     37  C   UNL     1      -3.906  15.632  24.461  0.00  0.00    +0.000 C 
ENDBRANCH  34  35
ENDBRANCH   9  34
TORSDOF 8
ENDMDL
MODEL 9
REMARK VINA RESULT:      -7.5      5.125      7.093
REMARK  Name = 
REMARK  11 active torsions:
REMARK  status: ('A' for Active; 'I' for Inactive)
REMARK    1  A    between atoms: C_1  and  O_2
REMARK    2  A    between atoms: O_2  and  C_3
REMARK    3  A    between atoms: C_3  and  C_4
REMARK    4  A    between atoms: C_8  and  C_9
REMARK    5  A    between atoms: C_12  and  C_13
REMARK    6  A    between atoms: C_16  and  C_17
REMARK    7  A    between atoms: N_19  and  C_20
REMARK    8  A    between atoms: N_29  and  C_30
REMARK    9  A    between atoms: C_30  and  C_31
REMARK   10  A    between atoms: C_31  and  C_32
REMARK   11  A    between atoms: C_31  and  C_33
REMARK                            x       y       z     vdW  Elec       q    Type
REMARK                         _______ _______ _______ _____ _____    ______ ____
ROOT
ATOM      1  C   UNL     1       2.394  13.976  19.289  0.00  0.00    +0.000 A 
ATOM      2  C   UNL     1       2.148  12.654  19.200  0.00  0.00    +0.000 A 
ATOM      3  N   UNL     1       0.864  12.223  18.954  0.00  0.00    +0.000 N 
ATOM      4  C   UNL     1       0.303  10.963  18.799  0.00  0.00    +0.000 A 
ATOM      5  C   UNL     1      -1.024  11.238  18.502  0.00  0.00    +0.000 A 
ATOM      6  N   UNL     1      -1.304  12.591  18.510  0.00  0.00    +0.000 NA
ATOM      7  C   UNL     1      -0.143  13.141  18.793  0.00  0.00    +0.000 A 
ATOM      8  C   UNL     1       0.179  14.559  18.883  0.00  0.00    +0.000 A 
ATOM      9  N   UNL     1      -0.792  15.526  18.733  0.00  0.00    +0.000 N 
ATOM     10  N   UNL     1       1.411  14.931  19.120  0.00  0.00    +0.000 NA
ATOM     11  H   UNL     1      -1.752  15.205  18.788  0.00  0.00    +0.000 HD
ENDROOT
BRANCH   1  16
ATOM     12  C   UNL     1       6.023  14.909  18.788  0.00  0.00    +0.000 A 
ATOM     13  C   UNL     1       6.407  15.220  20.098  0.00  0.00    +0.000 A 
ATOM     14  C   UNL     1       5.494  15.121  21.146  0.00  0.00    +0.000 A 
ATOM     15  C   UNL     1       4.184  14.722  20.896  0.00  0.00    +0.000 A 
ATOM     16  C   UNL     1       3.764  14.439  19.587  0.00  0.00    +0.000 A 
ATOM     17  C   UNL     1       4.696  14.539  18.543  0.00  0.00    +0.000 A 
BRANCH  12  18
ATOM     18  C   UNL     1       7.017  14.939  17.658  0.00  0.00    +0.000 C 
BRANCH  18  20
ATOM     19  C   UNL     1       8.672  13.285  17.857  0.00  0.00    +0.000 C 
ATOM     20  O   UNL     1       8.314  14.626  18.163  0.00  0.00    +0.000 OA
ENDBRANCH  18  20
ENDBRANCH  12  18
ENDBRANCH   1  16
BRANCH   4  21
ATOM     21  C   UNL     1       1.016   9.690  18.913  0.00  0.00    +0.000 A 
ATOM     22  C   UNL     1       1.675   9.114  17.817  0.00  0.00    +0.000 A 
ATOM     23  C   UNL     1       2.331   7.897  17.921  0.00  0.00    +0.000 A 
ATOM     24  C   UNL     1       2.398   7.223  19.139  0.00  0.00    +0.000 A 
ATOM     25  C   UNL     1       1.752   7.792  20.254  0.00  0.00    +0.000 A 
ATOM     26  C   UNL     1       1.074   9.013  20.140  0.00  0.00    +0.000 A 
BRANCH  24  27
ATOM     27  C   UNL     1       3.158   5.939  19.182  0.00  0.00    +0.000 C 
ATOM     28  O   UNL     1       4.384   5.970  19.258  0.00  0.00    +0.000 OA
ATOM     29  N   UNL     1       2.441   4.757  19.151  0.00  0.00    +0.000 N 
ATOM     30  H   UNL     1       1.432   4.766  19.145  0.00  0.00    +0.000 HD
BRANCH  29  31
ATOM     31  C   UNL     1       3.081   3.478  19.209  0.00  0.00    +0.000 C 
ATOM     32  C   UNL     1       2.336   2.242  18.787  0.00  0.00    +0.000 C 
ATOM     33  C   UNL     1       3.471   2.754  17.951  0.00  0.00    +0.000 C 
ENDBRANCH  29  31
ENDBRANCH  24  27
ENDBRANCH   4  21
BRANCH   9  34
ATOM     34  C   UNL     1      -0.511  16.840  18.199  0.00  0.00    +0.000 C 
BRANCH  34  35
ATOM     35  C   UNL     1      -1.151  17.947  19.050  0.00  0.00    +0.000 C 
ATOM     36  C   UNL     1      -2.306  18.631  18.316  0.00  0.00    +0.000 C 
ATOM     37  C   UNL     1      -1.657  17.361  20.372  0.00  0.00    +0.000 C 
ENDBRANCH  34  35
ENDBRANCH   9  34
TORSDOF 8
ENDMDL
