MODEL 1
REMARK VINA RESULT:      -7.4      0.000      0.000
REMARK  Name = 
REMARK  13 active torsions:
REMARK  status: ('A' for Active; 'I' for Inactive)
REMARK    1  A    between atoms: C_1  and  C_2
REMARK    2  A    between atoms: C_2  and  C_3
REMARK    3  A    between atoms: C_3  and  C_4
REMARK    4  A    between atoms: C_4  and  O_5
REMARK    5  A    between atoms: C_4  and  C_6
REMARK    6  A    between atoms: C_4  and  C_9
REMARK    7  A    between atoms: C_6  and  C_7
REMARK    8  A    between atoms: C_7  and  C_8
REMARK    9  A    between atoms: C_9  and  C_10
REMARK   10  A    between atoms: N_12  and  C_13
REMARK   11  A    between atoms: N_15  and  C_16
REMARK   12  A    between atoms: C_18  and  C_19
REMARK   13  A    between atoms: N_22  and  C_23
REMARK                            x       y       z     vdW  Elec       q    Type
REMARK                         _______ _______ _______ _____ _____    ______ ____
ROOT
ATOM      1  C   UNL     1       5.147   4.018  17.856  0.00  0.00    +0.000 C 
ATOM      2  O   UNL     1       5.934   4.110  18.796  0.00  0.00    +0.000 OA
ATOM      3  N   UNL     1       3.766   4.029  17.997  0.00  0.00    +0.000 N 
ATOM      4  H   UNL     1       3.196   3.822  17.188  0.00  0.00    +0.000 HD
ENDROOT
BRANCH   3   5
ATOM      5  C   UNL     1       3.126   4.060  19.237  0.00  0.00    +0.000 A 
ATOM      6  C   UNL     1       2.933   2.992  20.085  0.00  0.00    +0.000 A 
ATOM      7  N   UNL     1       2.139   3.431  21.096  0.00  0.00    +0.000 N 
ATOM      8  C   UNL     1       1.531   2.609  22.116  0.00  0.00    +0.000 C 
ATOM      9  N   UNL     1       1.858   4.742  21.033  0.00  0.00    +0.000 NA
ATOM     10  C   UNL     1       2.476   5.137  19.904  0.00  0.00    +0.000 A 
BRANCH  10  11
ATOM     11  C   UNL     1       2.339   6.500  19.406  0.00  0.00    +0.000 A 
ATOM     12  C   UNL     1       2.816   7.029  18.196  0.00  0.00    +0.000 A 
ATOM     13  N   UNL     1       2.458   8.309  18.023  0.00  0.00    +0.000 NA
ATOM     14  N   UNL     1       1.796   8.601  19.161  0.00  0.00    +0.000 N 
ATOM     15  C   UNL     1       1.234   9.913  19.365  0.00  0.00    +0.000 C 
ATOM     16  C   UNL     1       1.712   7.555  20.026  0.00  0.00    +0.000 A 
ENDBRANCH  10  11
ENDBRANCH   3   5
BRANCH   1  17
ATOM     17  C   UNL     1       5.634   3.974  16.411  0.00  0.00    +0.000 C 
BRANCH  17  18
ATOM     18  C   UNL     1       6.806   4.948  16.110  0.00  0.00    +0.000 C 
BRANCH  18  19
ATOM     19  O   UNL     1       7.946   4.394  16.790  0.00  0.00    +0.000 OA
ATOM     20  H   UNL     1       8.747   4.651  16.296  0.00  0.00    +0.000 HD
ENDBRANCH  18  19
BRANCH  18  21
ATOM     21  C   UNL     1       7.130   4.902  14.588  0.00  0.00    +0.000 C 
BRANCH  21  23
ATOM     22  C   UNL     1       6.673   3.753  12.360  0.00  0.00    +0.000 C 
ATOM     23  C   UNL     1       6.152   4.052  13.757  0.00  0.00    +0.000 C 
ENDBRANCH  21  23
ENDBRANCH  18  21
BRANCH  18  24
ATOM     24  C   UNL     1       6.588   6.405  16.597  0.00  0.00    +0.000 C 
BRANCH  24  25
ATOM     25  C   UNL     1       7.553   6.871  17.693  0.00  0.00    +0.000 C 
ATOM     26  C   UNL     1       7.765   8.377  17.639  0.00  0.00    +0.000 C 
ENDBRANCH  24  25
ENDBRANCH  18  24
ENDBRANCH  17  18
ENDBRANCH   1  17
TORSDOF 9
ENDMDL
MODEL 2
REMARK VINA RESULT:      -7.4      1.278      1.418
REMARK  Name = 
REMARK  13 active torsions:
REMARK  status: ('A' for Active; 'I' for Inactive)
REMARK    1  A    between atoms: C_1  and  C_2
REMARK    2  A    between atoms: C_2  and  C_3
REMARK    3  A    between atoms: C_3  and  C_4
REMARK    4  A    between atoms: C_4  and  O_5
REMARK    5  A    between atoms: C_4  and  C_6
REMARK    6  A    between atoms: C_4  and  C_9
REMARK    7  A    between atoms: C_6  and  C_7
REMARK    8  A    between atoms: C_7  and  C_8
REMARK    9  A    between atoms: C_9  and  C_10
REMARK   10  A    between atoms: N_12  and  C_13
REMARK   11  A    between atoms: N_15  and  C_16
REMARK   12  A    between atoms: C_18  and  C_19
REMARK   13  A    between atoms: N_22  and  C_23
REMARK                            x       y       z     vdW  Elec       q    Type
REMARK                         _______ _______ _______ _____ _____    ______ ____
ROOT
ATOM      1  C   UNL     1       4.025   4.845  17.192  0.00  0.00    +0.000 C 
ATOM      2  O   UNL     1       3.096   4.133  16.816  0.00  0.00    +0.000 OA
ATOM      3  N   UNL     1       4.253   5.187  18.517  0.00  0.00    +0.000 N 
ATOM      4  H   UNL     1       4.962   5.878  18.723  0.00  0.00    +0.000 HD
ENDROOT
BRANCH   3   5
ATOM      5  C   UNL     1       3.394   4.827  19.557  0.00  0.00    +0.000 A 
ATOM      6  C   UNL     1       3.298   3.586  20.146  0.00  0.00    +0.000 A 
ATOM      7  N   UNL     1       2.241   3.635  20.998  0.00  0.00    +0.000 N 
ATOM      8  C   UNL     1       1.659   2.511  21.694  0.00  0.00    +0.000 C 
ATOM      9  N   UNL     1       1.675   4.848  21.087  0.00  0.00    +0.000 NA
ATOM     10  C   UNL     1       2.389   5.588  20.219  0.00  0.00    +0.000 A 
BRANCH  10  11
ATOM     11  C   UNL     1       2.032   6.973  19.935  0.00  0.00    +0.000 A 
ATOM     12  C   UNL     1       2.259   7.698  18.754  0.00  0.00    +0.000 A 
ATOM     13  N   UNL     1       1.743   8.934  18.808  0.00  0.00    +0.000 NA
ATOM     14  N   UNL     1       1.235   9.002  20.055  0.00  0.00    +0.000 N 
ATOM     15  C   UNL     1       0.572  10.199  20.511  0.00  0.00    +0.000 C 
ATOM     16  C   UNL     1       1.397   7.859  20.773  0.00  0.00    +0.000 A 
ENDBRANCH  10  11
ENDBRANCH   3   5
BRANCH   1  17
ATOM     17  C   UNL     1       5.086   5.350  16.218  0.00  0.00    +0.000 C 
BRANCH  17  18
ATOM     18  C   UNL     1       6.289   4.384  16.040  0.00  0.00    +0.000 C 
BRANCH  18  19
ATOM     19  O   UNL     1       5.778   3.076  16.349  0.00  0.00    +0.000 OA
ATOM     20  H   UNL     1       6.140   2.447  15.698  0.00  0.00    +0.000 HD
ENDBRANCH  18  19
BRANCH  18  21
ATOM     21  C   UNL     1       6.704   4.356  14.539  0.00  0.00    +0.000 C 
BRANCH  21  23
ATOM     22  C   UNL     1       6.087   3.357  12.278  0.00  0.00    +0.000 C 
ATOM     23  C   UNL     1       5.571   3.956  13.577  0.00  0.00    +0.000 C 
ENDBRANCH  21  23
ENDBRANCH  18  21
BRANCH  18  24
ATOM     24  C   UNL     1       7.507   4.679  16.957  0.00  0.00    +0.000 C 
BRANCH  24  25
ATOM     25  C   UNL     1       7.518   6.076  17.586  0.00  0.00    +0.000 C 
ATOM     26  C   UNL     1       7.807   6.008  19.079  0.00  0.00    +0.000 C 
ENDBRANCH  24  25
ENDBRANCH  18  24
ENDBRANCH  17  18
ENDBRANCH   1  17
TORSDOF 9
ENDMDL
MODEL 3
REMARK VINA RESULT:      -7.1      2.951      6.535
REMARK  Name = 
REMARK  13 active torsions:
REMARK  status: ('A' for Active; 'I' for Inactive)
REMARK    1  A    between atoms: C_1  and  C_2
REMARK    2  A    between atoms: C_2  and  C_3
REMARK    3  A    between atoms: C_3  and  C_4
REMARK    4  A    between atoms: C_4  and  O_5
REMARK    5  A    between atoms: C_4  and  C_6
REMARK    6  A    between atoms: C_4  and  C_9
REMARK    7  A    between atoms: C_6  and  C_7
REMARK    8  A    between atoms: C_7  and  C_8
REMARK    9  A    between atoms: C_9  and  C_10
REMARK   10  A    between atoms: N_12  and  C_13
REMARK   11  A    between atoms: N_15  and  C_16
REMARK   12  A    between atoms: C_18  and  C_19
REMARK   13  A    between atoms: N_22  and  C_23
REMARK                            x       y       z     vdW  Elec       q    Type
REMARK                         _______ _______ _______ _____ _____    ______ ____
ROOT
ATOM      1  C   UNL     1       3.816   5.187  17.531  0.00  0.00    +0.000 C 
ATOM      2  O   UNL     1       3.740   6.366  17.191  0.00  0.00    +0.000 OA
ATOM      3  N   UNL     1       4.699   4.274  16.973  0.00  0.00    +0.000 N 
ATOM      4  H   UNL     1       4.608   3.298  17.222  0.00  0.00    +0.000 HD
ENDROOT
BRANCH   3   5
ATOM      5  C   UNL     1       5.539   4.581  15.901  0.00  0.00    +0.000 A 
ATOM      6  C   UNL     1       5.462   4.064  14.627  0.00  0.00    +0.000 A 
ATOM      7  N   UNL     1       6.554   4.512  13.954  0.00  0.00    +0.000 N 
ATOM      8  C   UNL     1       6.981   4.078  12.644  0.00  0.00    +0.000 C 
ATOM      9  N   UNL     1       7.312   5.365  14.660  0.00  0.00    +0.000 NA
ATOM     10  C   UNL     1       6.684   5.425  15.849  0.00  0.00    +0.000 A 
BRANCH  10  11
ATOM     11  C   UNL     1       7.245   6.184  16.961  0.00  0.00    +0.000 A 
ATOM     12  C   UNL     1       7.601   5.712  18.235  0.00  0.00    +0.000 A 
ATOM     13  N   UNL     1       8.150   6.668  18.997  0.00  0.00    +0.000 NA
ATOM     14  N   UNL     1       8.088   7.763  18.212  0.00  0.00    +0.000 N 
ATOM     15  C   UNL     1       8.597   9.029  18.679  0.00  0.00    +0.000 C 
ATOM     16  C   UNL     1       7.540   7.526  16.990  0.00  0.00    +0.000 A 
ENDBRANCH  10  11
ENDBRANCH   3   5
BRANCH   1  17
ATOM     17  C   UNL     1       2.987   4.638  18.688  0.00  0.00    +0.000 C 
BRANCH  17  18
ATOM     18  C   UNL     1       1.950   3.561  18.267  0.00  0.00    +0.000 C 
BRANCH  18  19
ATOM     19  O   UNL     1       1.265   4.115  17.130  0.00  0.00    +0.000 OA
ATOM     20  H   UNL     1       1.421   3.529  16.367  0.00  0.00    +0.000 HD
ENDBRANCH  18  19
BRANCH  18  21
ATOM     21  C   UNL     1       2.705   2.297  17.757  0.00  0.00    +0.000 C 
BRANCH  21  23
ATOM     22  C   UNL     1       4.422   1.905  19.598  0.00  0.00    +0.000 C 
ATOM     23  C   UNL     1       3.200   1.361  18.875  0.00  0.00    +0.000 C 
ENDBRANCH  21  23
ENDBRANCH  18  21
BRANCH  18  24
ATOM     24  C   UNL     1       0.907   3.194  19.355  0.00  0.00    +0.000 C 
BRANCH  24  25
ATOM     25  C   UNL     1       1.154   3.831  20.727  0.00  0.00    +0.000 C 
ATOM     26  C   UNL     1       1.534   2.782  21.763  0.00  0.00    +0.000 C 
ENDBRANCH  24  25
ENDBRANCH  18  24
ENDBRANCH  17  18
ENDBRANCH   1  17
TORSDOF 9
ENDMDL
MODEL 4
REMARK VINA RESULT:      -7.0      1.225      1.481
REMARK  Name = 
REMARK  13 active torsions:
REMARK  status: ('A' for Active; 'I' for Inactive)
REMARK    1  A    between atoms: C_1  and  C_2
REMARK    2  A    between atoms: C_2  and  C_3
REMARK    3  A    between atoms: C_3  and  C_4
REMARK    4  A    between atoms: C_4  and  O_5
REMARK    5  A    between atoms: C_4  and  C_6
REMARK    6  A    between atoms: C_4  and  C_9
REMARK    7  A    between atoms: C_6  and  C_7
REMARK    8  A    between atoms: C_7  and  C_8
REMARK    9  A    between atoms: C_9  and  C_10
REMARK   10  A    between atoms: N_12  and  C_13
REMARK   11  A    between atoms: N_15  and  C_16
REMARK   12  A    between atoms: C_18  and  C_19
REMARK   13  A    between atoms: N_22  and  C_23
REMARK                            x       y       z     vdW  Elec       q    Type
REMARK                         _______ _______ _______ _____ _____    ______ ____
ROOT
ATOM      1  C   UNL     1       4.059   5.027  17.218  0.00  0.00    +0.000 C 
ATOM      2  O   UNL     1       3.239   4.194  16.839  0.00  0.00    +0.000 OA
ATOM      3  N   UNL     1       4.192   5.442  18.535  0.00  0.00    +0.000 N 
ATOM      4  H   UNL     1       4.805   6.221  18.737  0.00  0.00    +0.000 HD
ENDROOT
BRANCH   3   5
ATOM      5  C   UNL     1       3.343   5.018  19.558  0.00  0.00    +0.000 A 
ATOM      6  C   UNL     1       3.286   3.755  20.104  0.00  0.00    +0.000 A 
ATOM      7  N   UNL     1       2.226   3.739  20.952  0.00  0.00    +0.000 N 
ATOM      8  C   UNL     1       1.678   2.573  21.607  0.00  0.00    +0.000 C 
ATOM      9  N   UNL     1       1.619   4.929  21.082  0.00  0.00    +0.000 NA
ATOM     10  C   UNL     1       2.312   5.722  20.243  0.00  0.00    +0.000 A 
BRANCH  10  11
ATOM     11  C   UNL     1       1.911   7.104  20.006  0.00  0.00    +0.000 A 
ATOM     12  C   UNL     1       1.273   7.982  20.897  0.00  0.00    +0.000 A 
ATOM     13  N   UNL     1       1.106   9.205  20.375  0.00  0.00    +0.000 NA
ATOM     14  N   UNL     1       1.595   9.077  19.125  0.00  0.00    +0.000 N 
ATOM     15  C   UNL     1       1.602  10.202  18.223  0.00  0.00    +0.000 C 
ATOM     16  C   UNL     1       2.074   7.833  18.853  0.00  0.00    +0.000 A 
ENDBRANCH  10  11
ENDBRANCH   3   5
BRANCH   1  17
ATOM     17  C   UNL     1       5.090   5.621  16.262  0.00  0.00    +0.000 C 
BRANCH  17  18
ATOM     18  C   UNL     1       6.426   4.832  16.204  0.00  0.00    +0.000 C 
BRANCH  18  19
ATOM     19  O   UNL     1       6.118   3.522  16.711  0.00  0.00    +0.000 OA
ATOM     20  H   UNL     1       5.361   3.603  17.321  0.00  0.00    +0.000 HD
ENDBRANCH  18  19
BRANCH  18  21
ATOM     21  C   UNL     1       6.844   4.645  14.715  0.00  0.00    +0.000 C 
BRANCH  21  23
ATOM     22  C   UNL     1       6.228   3.437  12.559  0.00  0.00    +0.000 C 
ATOM     23  C   UNL     1       5.711   4.154  13.796  0.00  0.00    +0.000 C 
ENDBRANCH  21  23
ENDBRANCH  18  21
BRANCH  18  24
ATOM     24  C   UNL     1       7.582   5.439  17.043  0.00  0.00    +0.000 C 
BRANCH  24  25
ATOM     25  C   UNL     1       7.180   6.614  17.942  0.00  0.00    +0.000 C 
ATOM     26  C   UNL     1       7.829   7.911  17.480  0.00  0.00    +0.000 C 
ENDBRANCH  24  25
ENDBRANCH  18  24
ENDBRANCH  17  18
ENDBRANCH   1  17
TORSDOF 9
ENDMDL
MODEL 5
REMARK VINA RESULT:      -7.0      2.561      6.842
REMARK  Name = 
REMARK  13 active torsions:
REMARK  status: ('A' for Active; 'I' for Inactive)
REMARK    1  A    between atoms: C_1  and  C_2
REMARK    2  A    between atoms: C_2  and  C_3
REMARK    3  A    between atoms: C_3  and  C_4
REMARK    4  A    between atoms: C_4  and  O_5
REMARK    5  A    between atoms: C_4  and  C_6
REMARK    6  A    between atoms: C_4  and  C_9
REMARK    7  A    between atoms: C_6  and  C_7
REMARK    8  A    between atoms: C_7  and  C_8
REMARK    9  A    between atoms: C_9  and  C_10
REMARK   10  A    between atoms: N_12  and  C_13
REMARK   11  A    between atoms: N_15  and  C_16
REMARK   12  A    between atoms: C_18  and  C_19
REMARK   13  A    between atoms: N_22  and  C_23
REMARK                            x       y       z     vdW  Elec       q    Type
REMARK                         _______ _______ _______ _____ _____    ______ ____
ROOT
ATOM      1  C   UNL     1       3.686   5.525  17.219  0.00  0.00    +0.000 C 
ATOM      2  O   UNL     1       3.839   6.701  16.898  0.00  0.00    +0.000 OA
ATOM      3  N   UNL     1       4.453   4.479  16.722  0.00  0.00    +0.000 N 
ATOM      4  H   UNL     1       4.178   3.532  16.943  0.00  0.00    +0.000 HD
ENDROOT
BRANCH   3   5
ATOM      5  C   UNL     1       5.425   4.648  15.735  0.00  0.00    +0.000 A 
ATOM      6  C   UNL     1       5.407   4.109  14.468  0.00  0.00    +0.000 A 
ATOM      7  N   UNL     1       6.607   4.396  13.900  0.00  0.00    +0.000 N 
ATOM      8  C   UNL     1       7.100   3.874  12.647  0.00  0.00    +0.000 C 
ATOM      9  N   UNL     1       7.396   5.166  14.665  0.00  0.00    +0.000 NA
ATOM     10  C   UNL     1       6.668   5.339  15.784  0.00  0.00    +0.000 A 
BRANCH  10  11
ATOM     11  C   UNL     1       7.212   6.052  16.935  0.00  0.00    +0.000 A 
ATOM     12  C   UNL     1       7.506   5.538  18.208  0.00  0.00    +0.000 A 
ATOM     13  N   UNL     1       8.056   6.457  19.013  0.00  0.00    +0.000 NA
ATOM     14  N   UNL     1       8.057   7.572  18.255  0.00  0.00    +0.000 N 
ATOM     15  C   UNL     1       8.587   8.809  18.772  0.00  0.00    +0.000 C 
ATOM     16  C   UNL     1       7.547   7.383  17.008  0.00  0.00    +0.000 A 
ENDBRANCH  10  11
ENDBRANCH   3   5
BRANCH   1  17
ATOM     17  C   UNL     1       2.677   5.115  18.287  0.00  0.00    +0.000 C 
BRANCH  17  18
ATOM     18  C   UNL     1       2.954   5.730  19.686  0.00  0.00    +0.000 C 
BRANCH  18  19
ATOM     19  O   UNL     1       4.387   5.807  19.792  0.00  0.00    +0.000 OA
ATOM     20  H   UNL     1       4.770   5.095  19.247  0.00  0.00    +0.000 HD
ENDBRANCH  18  19
BRANCH  18  21
ATOM     21  C   UNL     1       2.427   7.195  19.713  0.00  0.00    +0.000 C 
BRANCH  21  23
ATOM     22  C   UNL     1       0.885   8.909  20.798  0.00  0.00    +0.000 C 
ATOM     23  C   UNL     1       1.394   7.476  20.820  0.00  0.00    +0.000 C 
ENDBRANCH  21  23
ENDBRANCH  18  21
BRANCH  18  24
ATOM     24  C   UNL     1       2.404   4.909  20.883  0.00  0.00    +0.000 C 
BRANCH  24  25
ATOM     25  C   UNL     1       1.442   3.779  20.503  0.00  0.00    +0.000 C 
ATOM     26  C   UNL     1       1.559   2.606  21.466  0.00  0.00    +0.000 C 
ENDBRANCH  24  25
ENDBRANCH  18  24
ENDBRANCH  17  18
ENDBRANCH   1  17
TORSDOF 9
ENDMDL
MODEL 6
REMARK VINA RESULT:      -6.9      1.054      2.853
REMARK  Name = 
REMARK  13 active torsions:
REMARK  status: ('A' for Active; 'I' for Inactive)
REMARK    1  A    between atoms: C_1  and  C_2
REMARK    2  A    between atoms: C_2  and  C_3
REMARK    3  A    between atoms: C_3  and  C_4
REMARK    4  A    between atoms: C_4  and  O_5
REMARK    5  A    between atoms: C_4  and  C_6
REMARK    6  A    between atoms: C_4  and  C_9
REMARK    7  A    between atoms: C_6  and  C_7
REMARK    8  A    between atoms: C_7  and  C_8
REMARK    9  A    between atoms: C_9  and  C_10
REMARK   10  A    between atoms: N_12  and  C_13
REMARK   11  A    between atoms: N_15  and  C_16
REMARK   12  A    between atoms: C_18  and  C_19
REMARK   13  A    between atoms: N_22  and  C_23
REMARK                            x       y       z     vdW  Elec       q    Type
REMARK                         _______ _______ _______ _____ _____    ______ ____
ROOT
ATOM      1  C   UNL     1       5.161   4.246  17.970  0.00  0.00    +0.000 C 
ATOM      2  O   UNL     1       4.428   3.414  17.441  0.00  0.00    +0.000 OA
ATOM      3  N   UNL     1       4.901   4.841  19.196  0.00  0.00    +0.000 N 
ATOM      4  H   UNL     1       5.490   5.605  19.497  0.00  0.00    +0.000 HD
ENDROOT
BRANCH   3   5
ATOM      5  C   UNL     1       3.728   4.618  19.919  0.00  0.00    +0.000 A 
ATOM      6  C   UNL     1       3.402   3.478  20.620  0.00  0.00    +0.000 A 
ATOM      7  N   UNL     1       2.119   3.626  21.039  0.00  0.00    +0.000 N 
ATOM      8  C   UNL     1       1.303   2.604  21.653  0.00  0.00    +0.000 C 
ATOM      9  N   UNL     1       1.589   4.823  20.744  0.00  0.00    +0.000 NA
ATOM     10  C   UNL     1       2.578   5.443  20.073  0.00  0.00    +0.000 A 
BRANCH  10  11
ATOM     11  C   UNL     1       2.377   6.759  19.479  0.00  0.00    +0.000 A 
ATOM     12  C   UNL     1       2.821   7.218  18.228  0.00  0.00    +0.000 A 
ATOM     13  N   UNL     1       2.405   8.465  17.967  0.00  0.00    +0.000 NA
ATOM     14  N   UNL     1       1.740   8.811  19.087  0.00  0.00    +0.000 N 
ATOM     15  C   UNL     1       1.122  10.108  19.201  0.00  0.00    +0.000 C 
ATOM     16  C   UNL     1       1.709   7.828  20.027  0.00  0.00    +0.000 A 
ENDBRANCH  10  11
ENDBRANCH   3   5
BRANCH   1  17
ATOM     17  C   UNL     1       6.500   4.637  17.350  0.00  0.00    +0.000 C 
BRANCH  17  18
ATOM     18  C   UNL     1       6.374   5.561  16.109  0.00  0.00    +0.000 C 
BRANCH  18  19
ATOM     19  O   UNL     1       4.964   5.795  15.948  0.00  0.00    +0.000 OA
ATOM     20  H   UNL     1       4.485   5.136  16.483  0.00  0.00    +0.000 HD
ENDBRANCH  18  19
BRANCH  18  21
ATOM     21  C   UNL     1       7.019   6.941  16.433  0.00  0.00    +0.000 C 
BRANCH  21  23
ATOM     22  C   UNL     1       8.223   8.409  18.133  0.00  0.00    +0.000 C 
ATOM     23  C   UNL     1       7.648   7.033  17.836  0.00  0.00    +0.000 C 
ENDBRANCH  21  23
ENDBRANCH  18  21
BRANCH  18  24
ATOM     24  C   UNL     1       6.941   4.969  14.791  0.00  0.00    +0.000 C 
BRANCH  24  25
ATOM     25  C   UNL     1       6.140   3.797  14.212  0.00  0.00    +0.000 C 
ATOM     26  C   UNL     1       6.369   3.656  12.714  0.00  0.00    +0.000 C 
ENDBRANCH  24  25
ENDBRANCH  18  24
ENDBRANCH  17  18
ENDBRANCH   1  17
TORSDOF 9
ENDMDL
MODEL 7
REMARK VINA RESULT:      -6.8      2.456      6.526
REMARK  Name = 
REMARK  13 active torsions:
REMARK  status: ('A' for Active; 'I' for Inactive)
REMARK    1  A    between atoms: C_1  and  C_2
REMARK    2  A    between atoms: C_2  and  C_3
REMARK    3  A    between atoms: C_3  and  C_4
REMARK    4  A    between atoms: C_4  and  O_5
REMARK    5  A    between atoms: C_4  and  C_6
REMARK    6  A    between atoms: C_4  and  C_9
REMARK    7  A    between atoms: C_6  and  C_7
REMARK    8  A    between atoms: C_7  and  C_8
REMARK    9  A    between atoms: C_9  and  C_10
REMARK   10  A    between atoms: N_12  and  C_13
REMARK   11  A    between atoms: N_15  and  C_16
REMARK   12  A    between atoms: C_18  and  C_19
REMARK   13  A    between atoms: N_22  and  C_23
REMARK                            x       y       z     vdW  Elec       q    Type
REMARK                         _______ _______ _______ _____ _____    ______ ____
ROOT
ATOM      1  C   UNL     1       3.673   4.397  17.521  0.00  0.00    +0.000 C 
ATOM      2  O   UNL     1       4.152   3.274  17.662  0.00  0.00    +0.000 OA
ATOM      3  N   UNL     1       4.094   5.304  16.559  0.00  0.00    +0.000 N 
ATOM      4  H   UNL     1       3.734   6.248  16.594  0.00  0.00    +0.000 HD
ENDROOT
BRANCH   3   5
ATOM      5  C   UNL     1       5.172   5.065  15.704  0.00  0.00    +0.000 A 
ATOM      6  C   UNL     1       5.104   4.568  14.422  0.00  0.00    +0.000 A 
ATOM      7  N   UNL     1       6.382   4.350  14.016  0.00  0.00    +0.000 N 
ATOM      8  C   UNL     1       6.785   3.666  12.809  0.00  0.00    +0.000 C 
ATOM      9  N   UNL     1       7.307   4.748  14.904  0.00  0.00    +0.000 NA
ATOM     10  C   UNL     1       6.570   5.205  15.934  0.00  0.00    +0.000 A 
BRANCH  10  11
ATOM     11  C   UNL     1       7.198   5.651  17.172  0.00  0.00    +0.000 A 
ATOM     12  C   UNL     1       7.613   6.949  17.510  0.00  0.00    +0.000 A 
ATOM     13  N   UNL     1       8.095   7.021  18.758  0.00  0.00    +0.000 NA
ATOM     14  N   UNL     1       8.032   5.745  19.188  0.00  0.00    +0.000 N 
ATOM     15  C   UNL     1       8.465   5.398  20.519  0.00  0.00    +0.000 C 
ATOM     16  C   UNL     1       7.516   4.885  18.268  0.00  0.00    +0.000 A 
ENDBRANCH  10  11
ENDBRANCH   3   5
BRANCH   1  17
ATOM     17  C   UNL     1       2.482   4.865  18.352  0.00  0.00    +0.000 C 
BRANCH  17  18
ATOM     18  C   UNL     1       2.876   5.565  19.681  0.00  0.00    +0.000 C 
BRANCH  18  19
ATOM     19  O   UNL     1       4.313   5.510  19.730  0.00  0.00    +0.000 OA
ATOM     20  H   UNL     1       4.653   5.694  18.835  0.00  0.00    +0.000 HD
ENDBRANCH  18  19
BRANCH  18  21
ATOM     21  C   UNL     1       2.491   7.072  19.598  0.00  0.00    +0.000 C 
BRANCH  21  23
ATOM     22  C   UNL     1       2.380   8.809  17.738  0.00  0.00    +0.000 C 
ATOM     23  C   UNL     1       1.843   7.488  18.265  0.00  0.00    +0.000 C 
ENDBRANCH  21  23
ENDBRANCH  18  21
BRANCH  18  24
ATOM     24  C   UNL     1       2.303   4.905  20.963  0.00  0.00    +0.000 C 
BRANCH  24  25
ATOM     25  C   UNL     1       2.506   3.389  21.056  0.00  0.00    +0.000 C 
ATOM     26  C   UNL     1       1.174   2.655  21.117  0.00  0.00    +0.000 C 
ENDBRANCH  24  25
ENDBRANCH  18  24
ENDBRANCH  17  18
ENDBRANCH   1  17
TORSDOF 9
ENDMDL
MODEL 8
REMARK VINA RESULT:      -6.8      1.682      4.642
REMARK  Name = 
REMARK  13 active torsions:
REMARK  status: ('A' for Active; 'I' for Inactive)
REMARK    1  A    between atoms: C_1  and  C_2
REMARK    2  A    between atoms: C_2  and  C_3
REMARK    3  A    between atoms: C_3  and  C_4
REMARK    4  A    between atoms: C_4  and  O_5
REMARK    5  A    between atoms: C_4  and  C_6
REMARK    6  A    between atoms: C_4  and  C_9
REMARK    7  A    between atoms: C_6  and  C_7
REMARK    8  A    between atoms: C_7  and  C_8
REMARK    9  A    between atoms: C_9  and  C_10
REMARK   10  A    between atoms: N_12  and  C_13
REMARK   11  A    between atoms: N_15  and  C_16
REMARK   12  A    between atoms: C_18  and  C_19
REMARK   13  A    between atoms: N_22  and  C_23
REMARK                            x       y       z     vdW  Elec       q    Type
REMARK                         _______ _______ _______ _____ _____    ______ ____
ROOT
ATOM      1  C   UNL     1       4.569   6.698  17.030  0.00  0.00    +0.000 C 
ATOM      2  O   UNL     1       5.180   7.612  17.580  0.00  0.00    +0.000 OA
ATOM      3  N   UNL     1       3.304   6.273  17.408  0.00  0.00    +0.000 N 
ATOM      4  H   UNL     1       2.929   5.435  16.985  0.00  0.00    +0.000 HD
ENDROOT
BRANCH   3   5
ATOM      5  C   UNL     1       2.626   6.785  18.516  0.00  0.00    +0.000 A 
ATOM      6  C   UNL     1       2.112   8.056  18.646  0.00  0.00    +0.000 A 
ATOM      7  N   UNL     1       1.677   8.176  19.927  0.00  0.00    +0.000 N 
ATOM      8  C   UNL     1       1.230   9.395  20.561  0.00  0.00    +0.000 C 
ATOM      9  N   UNL     1       1.782   7.045  20.642  0.00  0.00    +0.000 NA
ATOM     10  C   UNL     1       2.347   6.183  19.776  0.00  0.00    +0.000 A 
BRANCH  10  11
ATOM     11  C   UNL     1       2.730   4.839  20.191  0.00  0.00    +0.000 A 
ATOM     12  C   UNL     1       2.110   4.023  21.152  0.00  0.00    +0.000 A 
ATOM     13  N   UNL     1       2.684   2.816  21.241  0.00  0.00    +0.000 NA
ATOM     14  N   UNL     1       3.706   2.894  20.365  0.00  0.00    +0.000 N 
ATOM     15  C   UNL     1       4.582   1.767  20.159  0.00  0.00    +0.000 C 
ATOM     16  C   UNL     1       3.784   4.091  19.724  0.00  0.00    +0.000 A 
ENDBRANCH  10  11
ENDBRANCH   3   5
BRANCH   1  17
ATOM     17  C   UNL     1       5.127   5.999  15.794  0.00  0.00    +0.000 C 
BRANCH  17  18
ATOM     18  C   UNL     1       6.541   5.389  15.998  0.00  0.00    +0.000 C 
BRANCH  18  19
ATOM     19  O   UNL     1       7.418   6.514  16.188  0.00  0.00    +0.000 OA
ATOM     20  H   UNL     1       8.198   6.389  15.616  0.00  0.00    +0.000 HD
ENDBRANCH  18  19
BRANCH  18  21
ATOM     21  C   UNL     1       6.561   4.581  17.329  0.00  0.00    +0.000 C 
BRANCH  21  23
ATOM     22  C   UNL     1       7.398   5.650  19.485  0.00  0.00    +0.000 C 
ATOM     23  C   UNL     1       7.773   4.876  18.231  0.00  0.00    +0.000 C 
ENDBRANCH  21  23
ENDBRANCH  18  21
BRANCH  18  24
ATOM     24  C   UNL     1       7.064   4.536  14.812  0.00  0.00    +0.000 C 
BRANCH  24  25
ATOM     25  C   UNL     1       5.975   3.859  13.973  0.00  0.00    +0.000 C 
ATOM     26  C   UNL     1       6.411   3.700  12.524  0.00  0.00    +0.000 C 
ENDBRANCH  24  25
ENDBRANCH  18  24
ENDBRANCH  17  18
ENDBRANCH   1  17
TORSDOF 9
ENDMDL
MODEL 9
REMARK VINA RESULT:      -6.7      2.603      6.316
REMARK  Name = 
REMARK  13 active torsions:
REMARK  status: ('A' for Active; 'I' for Inactive)
REMARK    1  A    between atoms: C_1  and  C_2
REMARK    2  A    between atoms: C_2  and  C_3
REMARK    3  A    between atoms: C_3  and  C_4
REMARK    4  A    between atoms: C_4  and  O_5
REMARK    5  A    between atoms: C_4  and  C_6
REMARK    6  A    between atoms: C_4  and  C_9
REMARK    7  A    between atoms: C_6  and  C_7
REMARK    8  A    between atoms: C_7  and  C_8
REMARK    9  A    between atoms: C_9  and  C_10
REMARK   10  A    between atoms: N_12  and  C_13
REMARK   11  A    between atoms: N_15  and  C_16
REMARK   12  A    between atoms: C_18  and  C_19
REMARK   13  A    between atoms: N_22  and  C_23
REMARK                            x       y       z     vdW  Elec       q    Type
REMARK                         _______ _______ _______ _____ _____    ______ ____
ROOT
ATOM      1  C   UNL     1       4.326   4.561  19.024  0.00  0.00    +0.000 C 
ATOM      2  O   UNL     1       4.742   3.418  18.849  0.00  0.00    +0.000 OA
ATOM      3  N   UNL     1       4.518   5.602  18.126  0.00  0.00    +0.000 N 
ATOM      4  H   UNL     1       4.252   6.537  18.406  0.00  0.00    +0.000 HD
ENDROOT
BRANCH   3   5
ATOM      5  C   UNL     1       5.284   5.478  16.966  0.00  0.00    +0.000 A 
ATOM      6  C   UNL     1       4.999   4.684  15.878  0.00  0.00    +0.000 A 
ATOM      7  N   UNL     1       6.074   4.746  15.052  0.00  0.00    +0.000 N 
ATOM      8  C   UNL     1       6.294   3.931  13.879  0.00  0.00    +0.000 C 
ATOM      9  N   UNL     1       7.026   5.597  15.466  0.00  0.00    +0.000 NA
ATOM     10  C   UNL     1       6.538   6.063  16.631  0.00  0.00    +0.000 A 
BRANCH  10  11
ATOM     11  C   UNL     1       7.321   6.960  17.473  0.00  0.00    +0.000 A 
ATOM     12  C   UNL     1       8.033   6.645  18.641  0.00  0.00    +0.000 A 
ATOM     13  N   UNL     1       8.699   7.699  19.132  0.00  0.00    +0.000 NA
ATOM     14  N   UNL     1       8.357   8.698  18.294  0.00  0.00    +0.000 N 
ATOM     15  C   UNL     1       8.885  10.027  18.484  0.00  0.00    +0.000 C 
ATOM     16  C   UNL     1       7.522   8.308  17.293  0.00  0.00    +0.000 A 
ENDBRANCH  10  11
ENDBRANCH   3   5
BRANCH   1  17
ATOM     17  C   UNL     1       3.461   4.919  20.229  0.00  0.00    +0.000 C 
BRANCH  17  18
ATOM     18  C   UNL     1       1.937   4.933  19.931  0.00  0.00    +0.000 C 
BRANCH  18  19
ATOM     19  O   UNL     1       1.829   4.955  18.496  0.00  0.00    +0.000 OA
ATOM     20  H   UNL     1       2.707   5.167  18.130  0.00  0.00    +0.000 HD
ENDBRANCH  18  19
BRANCH  18  21
ATOM     21  C   UNL     1       1.311   3.588  20.403  0.00  0.00    +0.000 C 
BRANCH  21  23
ATOM     22  C   UNL     1       1.800   1.657  18.814  0.00  0.00    +0.000 C 
ATOM     23  C   UNL     1       0.785   2.698  19.262  0.00  0.00    +0.000 C 
ENDBRANCH  21  23
ENDBRANCH  18  21
BRANCH  18  24
ATOM     24  C   UNL     1       1.167   6.149  20.512  0.00  0.00    +0.000 C 
BRANCH  24  25
ATOM     25  C   UNL     1       1.877   7.498  20.356  0.00  0.00    +0.000 C 
ATOM     26  C   UNL     1       1.289   8.545  21.291  0.00  0.00    +0.000 C 
ENDBRANCH  24  25
ENDBRANCH  18  24
ENDBRANCH  17  18
ENDBRANCH   1  17
TORSDOF 9
ENDMDL
