MODEL 1
REMARK VINA RESULT:      -9.0      0.000      0.000
REMARK  Name = 
REMARK  6 active torsions:
REMARK  status: ('A' for Active; 'I' for Inactive)
REMARK    1  A    between atoms: C_1  and  C_2
REMARK    2  A    between atoms: C_3  and  O_4
REMARK    3  A    between atoms: O_4  and  C_5
REMARK    4  A    between atoms: C_5  and  C_6
REMARK    5  A    between atoms: N_10  and  C_11
REMARK    6  A    between atoms: C_23  and  N_24
REMARK                            x       y       z     vdW  Elec       q    Type
REMARK                         _______ _______ _______ _____ _____    ______ ____
ROOT
ATOM      1  C   UNL     1       5.245   6.843  17.158  0.00  0.00    +0.000 C 
ATOM      2  C   UNL     1       4.733   5.641  17.912  0.00  0.00    +0.000 A 
ATOM      3  C   UNL     1       5.330   4.374  17.757  0.00  0.00    +0.000 A 
ATOM      4  C   UNL     1       4.868   3.282  18.506  0.00  0.00    +0.000 A 
ATOM      5  C   UNL     1       3.863   3.455  19.453  0.00  0.00    +0.000 A 
ATOM      6  C   UNL     1       3.276   4.709  19.609  0.00  0.00    +0.000 A 
ATOM      7  C   UNL     1       2.231   4.915  20.614  0.00  0.00    +0.000 A 
ATOM      8  O   UNL     1       1.891   4.036  21.396  0.00  0.00    +0.000 OA
ATOM      9  C   UNL     1       1.605   6.240  20.643  0.00  0.00    +0.000 A 
ATOM     10  C   UNL     1       2.008   7.207  19.805  0.00  0.00    +0.000 A 
ATOM     11  O   UNL     1       3.059   7.014  18.907  0.00  0.00    +0.000 OA
ATOM     12  C   UNL     1       3.674   5.788  18.825  0.00  0.00    +0.000 A 
ENDROOT
BRANCH  10  13
ATOM     13  N   UNL     1       1.448   8.483  19.775  0.00  0.00    +0.000 N 
ATOM     14  C   UNL     1       1.043   9.190  21.010  0.00  0.00    +0.000 C 
ATOM     15  C   UNL     1      -0.262   9.966  20.774  0.00  0.00    +0.000 C 
ATOM     16  O   UNL     1      -0.150  10.864  19.657  0.00  0.00    +0.000 OA
ATOM     17  C   UNL     1       0.180  10.134  18.466  0.00  0.00    +0.000 C 
ATOM     18  C   UNL     1       1.517   9.394  18.616  0.00  0.00    +0.000 C 
ENDBRANCH  10  13
BRANCH   3  19
ATOM     19  O   UNL     1       6.347   4.299  16.843  0.00  0.00    +0.000 OA
BRANCH  19  20
ATOM     20  C   UNL     1       5.985   3.901  15.525  0.00  0.00    +0.000 C 
BRANCH  20  21
ATOM     21  C   UNL     1       6.802   4.674  14.554  0.00  0.00    +0.000 A 
ATOM     22  N   UNL     1       7.727   5.582  14.804  0.00  0.00    +0.000 NA
ATOM     23  N   UNL     1       8.408   5.766  13.632  0.00  0.00    +0.000 NA
ATOM     24  N   UNL     1       7.929   4.987  12.674  0.00  0.00    +0.000 NA
ATOM     25  N   UNL     1       6.846   4.370  13.205  0.00  0.00    +0.000 N 
BRANCH  25  26
ATOM     26  C   UNL     1       6.025   3.504  12.451  0.00  0.00    +0.000 A 
ATOM     27  C   UNL     1       4.727   3.902  12.119  0.00  0.00    +0.000 A 
ATOM     28  C   UNL     1       3.960   3.109  11.262  0.00  0.00    +0.000 A 
ATOM     29  C   UNL     1       4.470   1.904  10.775  0.00  0.00    +0.000 A 
ATOM     30  C   UNL     1       5.735   1.473  11.162  0.00  0.00    +0.000 A 
ATOM     31  C   UNL     1       6.512   2.268  12.002  0.00  0.00    +0.000 A 
ENDBRANCH  25  26
ENDBRANCH  20  21
ENDBRANCH  19  20
ENDBRANCH   3  19
TORSDOF 5
ENDMDL
MODEL 2
REMARK VINA RESULT:      -8.9      3.918      6.253
REMARK  Name = 
REMARK  6 active torsions:
REMARK  status: ('A' for Active; 'I' for Inactive)
REMARK    1  A    between atoms: C_1  and  C_2
REMARK    2  A    between atoms: C_3  and  O_4
REMARK    3  A    between atoms: O_4  and  C_5
REMARK    4  A    between atoms: C_5  and  C_6
REMARK    5  A    between atoms: N_10  and  C_11
REMARK    6  A    between atoms: C_23  and  N_24
REMARK                            x       y       z     vdW  Elec       q    Type
REMARK                         _______ _______ _______ _____ _____    ______ ____
ROOT
ATOM      1  C   UNL     1       1.808   9.815  17.764  0.00  0.00    +0.000 C 
ATOM      2  C   UNL     1       1.522   9.124  19.073  0.00  0.00    +0.000 A 
ATOM      3  C   UNL     1       1.951   7.803  19.310  0.00  0.00    +0.000 A 
ATOM      4  C   UNL     1       1.717   7.198  20.554  0.00  0.00    +0.000 A 
ATOM      5  C   UNL     1       1.119   7.919  21.583  0.00  0.00    +0.000 A 
ATOM      6  C   UNL     1       0.698   9.228  21.351  0.00  0.00    +0.000 A 
ATOM      7  C   UNL     1       0.087  10.009  22.427  0.00  0.00    +0.000 A 
ATOM      8  O   UNL     1      -0.010   9.584  23.572  0.00  0.00    +0.000 OA
ATOM      9  C   UNL     1      -0.410  11.340  22.067  0.00  0.00    +0.000 A 
ATOM     10  C   UNL     1      -0.270  11.809  20.818  0.00  0.00    +0.000 A 
ATOM     11  O   UNL     1       0.386  11.079  19.826  0.00  0.00    +0.000 OA
ATOM     12  C   UNL     1       0.860   9.819  20.101  0.00  0.00    +0.000 A 
ENDROOT
BRANCH  10  13
ATOM     13  N   UNL     1      -0.729  13.060  20.409  0.00  0.00    +0.000 N 
ATOM     14  C   UNL     1       0.083  13.950  19.550  0.00  0.00    +0.000 C 
ATOM     15  C   UNL     1      -0.088  15.412  19.989  0.00  0.00    +0.000 C 
ATOM     16  O   UNL     1      -1.471  15.803  20.005  0.00  0.00    +0.000 OA
ATOM     17  C   UNL     1      -2.213  14.958  20.898  0.00  0.00    +0.000 C 
ATOM     18  C   UNL     1      -2.141  13.486  20.465  0.00  0.00    +0.000 C 
ENDBRANCH  10  13
BRANCH   3  19
ATOM     19  O   UNL     1       2.577   7.180  18.263  0.00  0.00    +0.000 OA
BRANCH  19  20
ATOM     20  C   UNL     1       3.840   6.586  18.544  0.00  0.00    +0.000 C 
BRANCH  20  21
ATOM     21  C   UNL     1       4.040   5.438  17.621  0.00  0.00    +0.000 A 
ATOM     22  N   UNL     1       4.744   5.399  16.506  0.00  0.00    +0.000 NA
ATOM     23  N   UNL     1       4.892   4.076  16.193  0.00  0.00    +0.000 NA
ATOM     24  N   UNL     1       4.303   3.304  17.095  0.00  0.00    +0.000 NA
ATOM     25  N   UNL     1       3.668   4.146  17.945  0.00  0.00    +0.000 N 
BRANCH  25  26
ATOM     26  C   UNL     1       2.865   3.680  19.009  0.00  0.00    +0.000 A 
ATOM     27  C   UNL     1       3.474   3.115  20.134  0.00  0.00    +0.000 A 
ATOM     28  C   UNL     1       2.695   2.777  21.242  0.00  0.00    +0.000 A 
ATOM     29  C   UNL     1       1.311   2.960  21.212  0.00  0.00    +0.000 A 
ATOM     30  C   UNL     1       0.697   3.456  20.066  0.00  0.00    +0.000 A 
ATOM     31  C   UNL     1       1.470   3.812  18.963  0.00  0.00    +0.000 A 
ENDBRANCH  25  26
ENDBRANCH  20  21
ENDBRANCH  19  20
ENDBRANCH   3  19
TORSDOF 5
ENDMDL
MODEL 3
REMARK VINA RESULT:      -8.7      3.378      5.847
REMARK  Name = 
REMARK  6 active torsions:
REMARK  status: ('A' for Active; 'I' for Inactive)
REMARK    1  A    between atoms: C_1  and  C_2
REMARK    2  A    between atoms: C_3  and  O_4
REMARK    3  A    between atoms: O_4  and  C_5
REMARK    4  A    between atoms: C_5  and  C_6
REMARK    5  A    between atoms: N_10  and  C_11
REMARK    6  A    between atoms: C_23  and  N_24
REMARK                            x       y       z     vdW  Elec       q    Type
REMARK                         _______ _______ _______ _____ _____    ______ ____
ROOT
ATOM      1  C   UNL     1       1.835   9.808  17.789  0.00  0.00    +0.000 C 
ATOM      2  C   UNL     1       1.468   9.254  19.143  0.00  0.00    +0.000 A 
ATOM      3  C   UNL     1       1.820   7.942  19.515  0.00  0.00    +0.000 A 
ATOM      4  C   UNL     1       1.511   7.466  20.798  0.00  0.00    +0.000 A 
ATOM      5  C   UNL     1       0.915   8.307  21.733  0.00  0.00    +0.000 A 
ATOM      6  C   UNL     1       0.571   9.607  21.367  0.00  0.00    +0.000 A 
ATOM      7  C   UNL     1      -0.038  10.513  22.343  0.00  0.00    +0.000 A 
ATOM      8  O   UNL     1      -0.197  10.200  23.517  0.00  0.00    +0.000 OA
ATOM      9  C   UNL     1      -0.453  11.827  21.844  0.00  0.00    +0.000 A 
ATOM     10  C   UNL     1      -0.244  12.172  20.564  0.00  0.00    +0.000 A 
ATOM     11  O   UNL     1       0.408  11.323  19.669  0.00  0.00    +0.000 OA
ATOM     12  C   UNL     1       0.807  10.072  20.076  0.00  0.00    +0.000 A 
ENDROOT
BRANCH  10  13
ATOM     13  N   UNL     1      -0.624  13.400  20.026  0.00  0.00    +0.000 N 
ATOM     14  C   UNL     1      -0.065  13.903  18.752  0.00  0.00    +0.000 C 
ATOM     15  C   UNL     1       0.168  15.419  18.837  0.00  0.00    +0.000 C 
ATOM     16  O   UNL     1      -1.030  16.121  19.208  0.00  0.00    +0.000 OA
ATOM     17  C   UNL     1      -1.506  15.650  20.478  0.00  0.00    +0.000 C 
ATOM     18  C   UNL     1      -1.828  14.150  20.434  0.00  0.00    +0.000 C 
ENDBRANCH  10  13
BRANCH   3  19
ATOM     19  O   UNL     1       2.451   7.196  18.554  0.00  0.00    +0.000 OA
BRANCH  19  20
ATOM     20  C   UNL     1       3.282   6.138  19.019  0.00  0.00    +0.000 C 
BRANCH  20  21
ATOM     21  C   UNL     1       2.751   4.852  18.498  0.00  0.00    +0.000 A 
ATOM     22  N   UNL     1       1.567   4.311  18.711  0.00  0.00    +0.000 NA
ATOM     23  N   UNL     1       1.428   3.317  17.782  0.00  0.00    +0.000 NA
ATOM     24  N   UNL     1       2.495   3.243  17.000  0.00  0.00    +0.000 NA
ATOM     25  N   UNL     1       3.386   4.130  17.504  0.00  0.00    +0.000 N 
BRANCH  25  26
ATOM     26  C   UNL     1       4.683   4.283  16.968  0.00  0.00    +0.000 A 
ATOM     27  C   UNL     1       4.846   4.429  15.588  0.00  0.00    +0.000 A 
ATOM     28  C   UNL     1       6.110   4.714  15.068  0.00  0.00    +0.000 A 
ATOM     29  C   UNL     1       7.214   4.810  15.917  0.00  0.00    +0.000 A 
ATOM     30  C   UNL     1       7.065   4.594  17.283  0.00  0.00    +0.000 A 
ATOM     31  C   UNL     1       5.803   4.327  17.811  0.00  0.00    +0.000 A 
ENDBRANCH  25  26
ENDBRANCH  20  21
ENDBRANCH  19  20
ENDBRANCH   3  19
TORSDOF 5
ENDMDL
MODEL 4
REMARK VINA RESULT:      -8.6      1.992      3.675
REMARK  Name = 
REMARK  6 active torsions:
REMARK  status: ('A' for Active; 'I' for Inactive)
REMARK    1  A    between atoms: C_1  and  C_2
REMARK    2  A    between atoms: C_3  and  O_4
REMARK    3  A    between atoms: O_4  and  C_5
REMARK    4  A    between atoms: C_5  and  C_6
REMARK    5  A    between atoms: N_10  and  C_11
REMARK    6  A    between atoms: C_23  and  N_24
REMARK                            x       y       z     vdW  Elec       q    Type
REMARK                         _______ _______ _______ _____ _____    ______ ____
ROOT
ATOM      1  C   UNL     1       3.768   6.947  16.804  0.00  0.00    +0.000 C 
ATOM      2  C   UNL     1       3.376   5.677  17.516  0.00  0.00    +0.000 A 
ATOM      3  C   UNL     1       3.709   4.413  16.991  0.00  0.00    +0.000 A 
ATOM      4  C   UNL     1       3.377   3.247  17.697  0.00  0.00    +0.000 A 
ATOM      5  C   UNL     1       2.777   3.332  18.950  0.00  0.00    +0.000 A 
ATOM      6  C   UNL     1       2.451   4.583  19.471  0.00  0.00    +0.000 A 
ATOM      7  C   UNL     1       1.838   4.694  20.796  0.00  0.00    +0.000 A 
ATOM      8  O   UNL     1       1.660   3.721  21.519  0.00  0.00    +0.000 OA
ATOM      9  C   UNL     1       1.445   6.039  21.223  0.00  0.00    +0.000 A 
ATOM     10  C   UNL     1       1.674   7.102  20.438  0.00  0.00    +0.000 A 
ATOM     11  O   UNL     1       2.331   6.985  19.212  0.00  0.00    +0.000 OA
ATOM     12  C   UNL     1       2.710   5.747  18.753  0.00  0.00    +0.000 A 
ENDROOT
BRANCH  10  13
ATOM     13  N   UNL     1       1.315   8.405  20.780  0.00  0.00    +0.000 N 
ATOM     14  C   UNL     1       1.385   8.895  22.174  0.00  0.00    +0.000 C 
ATOM     15  C   UNL     1       0.191   9.815  22.473  0.00  0.00    +0.000 C 
ATOM     16  O   UNL     1       0.105  10.896  21.531  0.00  0.00    +0.000 OA
ATOM     17  C   UNL     1      -0.026  10.381  20.197  0.00  0.00    +0.000 C 
ATOM     18  C   UNL     1       1.180   9.511  19.813  0.00  0.00    +0.000 C 
ENDBRANCH  10  13
BRANCH   3  19
ATOM     19  O   UNL     1       4.345   4.417  15.777  0.00  0.00    +0.000 OA
BRANCH  19  20
ATOM     20  C   UNL     1       5.333   3.412  15.577  0.00  0.00    +0.000 C 
BRANCH  20  21
ATOM     21  C   UNL     1       6.419   3.975  14.733  0.00  0.00    +0.000 A 
ATOM     22  N   UNL     1       6.646   3.770  13.450  0.00  0.00    +0.000 NA
ATOM     23  N   UNL     1       7.536   4.734  13.061  0.00  0.00    +0.000 NA
ATOM     24  N   UNL     1       7.850   5.529  14.073  0.00  0.00    +0.000 NA
ATOM     25  N   UNL     1       7.241   5.002  15.161  0.00  0.00    +0.000 N 
BRANCH  25  26
ATOM     26  C   UNL     1       7.405   5.544  16.455  0.00  0.00    +0.000 A 
ATOM     27  C   UNL     1       7.565   4.686  17.546  0.00  0.00    +0.000 A 
ATOM     28  C   UNL     1       7.860   5.216  18.804  0.00  0.00    +0.000 A 
ATOM     29  C   UNL     1       7.952   6.598  18.980  0.00  0.00    +0.000 A 
ATOM     30  C   UNL     1       7.722   7.455  17.909  0.00  0.00    +0.000 A 
ATOM     31  C   UNL     1       7.445   6.932  16.647  0.00  0.00    +0.000 A 
ENDBRANCH  25  26
ENDBRANCH  20  21
ENDBRANCH  19  20
ENDBRANCH   3  19
TORSDOF 5
ENDMDL
MODEL 5
REMARK VINA RESULT:      -8.5      3.929      7.030
REMARK  Name = 
REMARK  6 active torsions:
REMARK  status: ('A' for Active; 'I' for Inactive)
REMARK    1  A    between atoms: C_1  and  C_2
REMARK    2  A    between atoms: C_3  and  O_4
REMARK    3  A    between atoms: O_4  and  C_5
REMARK    4  A    between atoms: C_5  and  C_6
REMARK    5  A    between atoms: N_10  and  C_11
REMARK    6  A    between atoms: C_23  and  N_24
REMARK                            x       y       z     vdW  Elec       q    Type
REMARK                         _______ _______ _______ _____ _____    ______ ____
ROOT
ATOM      1  C   UNL     1       0.815   9.113  22.104  0.00  0.00    +0.000 C 
ATOM      2  C   UNL     1       0.647   9.421  20.637  0.00  0.00    +0.000 A 
ATOM      3  C   UNL     1       1.351   8.699  19.654  0.00  0.00    +0.000 A 
ATOM      4  C   UNL     1       1.141   8.969  18.294  0.00  0.00    +0.000 A 
ATOM      5  C   UNL     1       0.187   9.906  17.905  0.00  0.00    +0.000 A 
ATOM      6  C   UNL     1      -0.513  10.617  18.877  0.00  0.00    +0.000 A 
ATOM      7  C   UNL     1      -1.535  11.591  18.487  0.00  0.00    +0.000 A 
ATOM      8  O   UNL     1      -1.864  11.763  17.320  0.00  0.00    +0.000 OA
ATOM      9  C   UNL     1      -2.152  12.359  19.571  0.00  0.00    +0.000 A 
ATOM     10  C   UNL     1      -1.808  12.139  20.850  0.00  0.00    +0.000 A 
ATOM     11  O   UNL     1      -0.889  11.152  21.206  0.00  0.00    +0.000 OA
ATOM     12  C   UNL     1      -0.266  10.410  20.231  0.00  0.00    +0.000 A 
ENDROOT
BRANCH  10  13
ATOM     13  N   UNL     1      -2.350  12.842  21.925  0.00  0.00    +0.000 N 
ATOM     14  C   UNL     1      -1.769  14.116  22.401  0.00  0.00    +0.000 C 
ATOM     15  C   UNL     1      -1.826  14.185  23.934  0.00  0.00    +0.000 C 
ATOM     16  O   UNL     1      -3.164  13.993  24.425  0.00  0.00    +0.000 OA
ATOM     17  C   UNL     1      -3.669  12.719  23.996  0.00  0.00    +0.000 C 
ATOM     18  C   UNL     1      -3.706  12.619  22.464  0.00  0.00    +0.000 C 
ENDBRANCH  10  13
BRANCH   3  19
ATOM     19  O   UNL     1       2.233   7.759  20.119  0.00  0.00    +0.000 OA
BRANCH  19  20
ATOM     20  C   UNL     1       2.679   6.788  19.177  0.00  0.00    +0.000 C 
BRANCH  20  21
ATOM     21  C   UNL     1       2.829   5.485  19.874  0.00  0.00    +0.000 A 
ATOM     22  N   UNL     1       2.034   4.945  20.779  0.00  0.00    +0.000 NA
ATOM     23  N   UNL     1       2.404   3.632  20.878  0.00  0.00    +0.000 NA
ATOM     24  N   UNL     1       3.399   3.353  20.049  0.00  0.00    +0.000 NA
ATOM     25  N   UNL     1       3.754   4.532  19.486  0.00  0.00    +0.000 N 
BRANCH  25  26
ATOM     26  C   UNL     1       4.839   4.645  18.589  0.00  0.00    +0.000 A 
ATOM     27  C   UNL     1       6.061   5.146  19.046  0.00  0.00    +0.000 A 
ATOM     28  C   UNL     1       7.172   5.134  18.201  0.00  0.00    +0.000 A 
ATOM     29  C   UNL     1       7.054   4.665  16.891  0.00  0.00    +0.000 A 
ATOM     30  C   UNL     1       5.821   4.232  16.413  0.00  0.00    +0.000 A 
ATOM     31  C   UNL     1       4.712   4.224  17.258  0.00  0.00    +0.000 A 
ENDBRANCH  25  26
ENDBRANCH  20  21
ENDBRANCH  19  20
ENDBRANCH   3  19
TORSDOF 5
ENDMDL
MODEL 6
REMARK VINA RESULT:      -8.5      3.973      6.991
REMARK  Name = 
REMARK  6 active torsions:
REMARK  status: ('A' for Active; 'I' for Inactive)
REMARK    1  A    between atoms: C_1  and  C_2
REMARK    2  A    between atoms: C_3  and  O_4
REMARK    3  A    between atoms: O_4  and  C_5
REMARK    4  A    between atoms: C_5  and  C_6
REMARK    5  A    between atoms: N_10  and  C_11
REMARK    6  A    between atoms: C_23  and  N_24
REMARK                            x       y       z     vdW  Elec       q    Type
REMARK                         _______ _______ _______ _____ _____    ______ ____
ROOT
ATOM      1  C   UNL     1       1.051   8.927  22.066  0.00  0.00    +0.000 C 
ATOM      2  C   UNL     1       0.830   9.320  20.627  0.00  0.00    +0.000 A 
ATOM      3  C   UNL     1       1.495   8.654  19.579  0.00  0.00    +0.000 A 
ATOM      4  C   UNL     1       1.236   9.003  18.246  0.00  0.00    +0.000 A 
ATOM      5  C   UNL     1       0.273   9.963  17.946  0.00  0.00    +0.000 A 
ATOM      6  C   UNL     1      -0.388  10.619  18.983  0.00  0.00    +0.000 A 
ATOM      7  C   UNL     1      -1.418  11.616  18.688  0.00  0.00    +0.000 A 
ATOM      8  O   UNL     1      -1.789  11.856  17.545  0.00  0.00    +0.000 OA
ATOM      9  C   UNL     1      -1.992  12.322  19.836  0.00  0.00    +0.000 A 
ATOM     10  C   UNL     1      -1.602  12.028  21.087  0.00  0.00    +0.000 A 
ATOM     11  O   UNL     1      -0.675  11.019  21.351  0.00  0.00    +0.000 OA
ATOM     12  C   UNL     1      -0.092  10.334  20.313  0.00  0.00    +0.000 A 
ENDROOT
BRANCH  10  13
ATOM     13  N   UNL     1      -2.101  12.669  22.220  0.00  0.00    +0.000 N 
ATOM     14  C   UNL     1      -2.609  11.914  23.386  0.00  0.00    +0.000 C 
ATOM     15  C   UNL     1      -3.845  12.612  23.972  0.00  0.00    +0.000 C 
ATOM     16  O   UNL     1      -3.573  13.984  24.302  0.00  0.00    +0.000 OA
ATOM     17  C   UNL     1      -3.145  14.699  23.133  0.00  0.00    +0.000 C 
ATOM     18  C   UNL     1      -1.865  14.089  22.543  0.00  0.00    +0.000 C 
ENDBRANCH  10  13
BRANCH   3  19
ATOM     19  O   UNL     1       2.389   7.686  19.956  0.00  0.00    +0.000 OA
BRANCH  19  20
ATOM     20  C   UNL     1       2.547   6.588  19.064  0.00  0.00    +0.000 C 
BRANCH  20  21
ATOM     21  C   UNL     1       2.724   5.348  19.863  0.00  0.00    +0.000 A 
ATOM     22  N   UNL     1       1.915   4.840  20.773  0.00  0.00    +0.000 NA
ATOM     23  N   UNL     1       2.339   3.557  20.987  0.00  0.00    +0.000 NA
ATOM     24  N   UNL     1       3.381   3.265  20.223  0.00  0.00    +0.000 NA
ATOM     25  N   UNL     1       3.708   4.416  19.587  0.00  0.00    +0.000 N 
BRANCH  25  26
ATOM     26  C   UNL     1       4.825   4.513  18.730  0.00  0.00    +0.000 A 
ATOM     27  C   UNL     1       4.732   4.036  17.420  0.00  0.00    +0.000 A 
ATOM     28  C   UNL     1       5.787   4.250  16.531  0.00  0.00    +0.000 A 
ATOM     29  C   UNL     1       6.947   4.900  16.958  0.00  0.00    +0.000 A 
ATOM     30  C   UNL     1       7.068   5.312  18.282  0.00  0.00    +0.000 A 
ATOM     31  C   UNL     1       6.012   5.117  19.170  0.00  0.00    +0.000 A 
ENDBRANCH  25  26
ENDBRANCH  20  21
ENDBRANCH  19  20
ENDBRANCH   3  19
TORSDOF 5
ENDMDL
MODEL 7
REMARK VINA RESULT:      -8.4      3.903      6.228
REMARK  Name = 
REMARK  6 active torsions:
REMARK  status: ('A' for Active; 'I' for Inactive)
REMARK    1  A    between atoms: C_1  and  C_2
REMARK    2  A    between atoms: C_3  and  O_4
REMARK    3  A    between atoms: O_4  and  C_5
REMARK    4  A    between atoms: C_5  and  C_6
REMARK    5  A    between atoms: N_10  and  C_11
REMARK    6  A    between atoms: C_23  and  N_24
REMARK                            x       y       z     vdW  Elec       q    Type
REMARK                         _______ _______ _______ _____ _____    ______ ____
ROOT
ATOM      1  C   UNL     1       0.735   9.855  17.802  0.00  0.00    +0.000 C 
ATOM      2  C   UNL     1       0.952   9.217  19.151  0.00  0.00    +0.000 A 
ATOM      3  C   UNL     1       1.802   8.104  19.303  0.00  0.00    +0.000 A 
ATOM      4  C   UNL     1       2.028   7.558  20.575  0.00  0.00    +0.000 A 
ATOM      5  C   UNL     1       1.466   8.151  21.703  0.00  0.00    +0.000 A 
ATOM      6  C   UNL     1       0.629   9.255  21.552  0.00  0.00    +0.000 A 
ATOM      7  C   UNL     1       0.046   9.905  22.727  0.00  0.00    +0.000 A 
ATOM      8  O   UNL     1       0.323   9.563  23.871  0.00  0.00    +0.000 OA
ATOM      9  C   UNL     1      -0.896  10.997  22.470  0.00  0.00    +0.000 A 
ATOM     10  C   UNL     1      -1.168  11.386  21.214  0.00  0.00    +0.000 A 
ATOM     11  O   UNL     1      -0.542  10.805  20.111  0.00  0.00    +0.000 OA
ATOM     12  C   UNL     1       0.339   9.766  20.290  0.00  0.00    +0.000 A 
ENDROOT
BRANCH  10  13
ATOM     13  N   UNL     1      -2.061  12.410  20.901  0.00  0.00    +0.000 N 
ATOM     14  C   UNL     1      -1.915  13.774  21.456  0.00  0.00    +0.000 C 
ATOM     15  C   UNL     1      -3.294  14.361  21.791  0.00  0.00    +0.000 C 
ATOM     16  O   UNL     1      -4.170  14.340  20.652  0.00  0.00    +0.000 OA
ATOM     17  C   UNL     1      -4.339  12.994  20.182  0.00  0.00    +0.000 C 
ATOM     18  C   UNL     1      -2.997  12.377  19.760  0.00  0.00    +0.000 C 
ENDBRANCH  10  13
BRANCH   3  19
ATOM     19  O   UNL     1       2.357   7.611  18.151  0.00  0.00    +0.000 OA
BRANCH  19  20
ATOM     20  C   UNL     1       3.759   7.365  18.178  0.00  0.00    +0.000 C 
BRANCH  20  21
ATOM     21  C   UNL     1       4.056   6.216  17.283  0.00  0.00    +0.000 A 
ATOM     22  N   UNL     1       4.811   6.197  16.201  0.00  0.00    +0.000 NA
ATOM     23  N   UNL     1       5.037   4.879  15.916  0.00  0.00    +0.000 NA
ATOM     24  N   UNL     1       4.447   4.091  16.803  0.00  0.00    +0.000 NA
ATOM     25  N   UNL     1       3.733   4.912  17.610  0.00  0.00    +0.000 N 
BRANCH  25  26
ATOM     26  C   UNL     1       2.907   4.421  18.645  0.00  0.00    +0.000 A 
ATOM     27  C   UNL     1       3.436   4.256  19.928  0.00  0.00    +0.000 A 
ATOM     28  C   UNL     1       2.592   3.899  20.982  0.00  0.00    +0.000 A 
ATOM     29  C   UNL     1       1.235   3.667  20.748  0.00  0.00    +0.000 A 
ATOM     30  C   UNL     1       0.723   3.761  19.458  0.00  0.00    +0.000 A 
ATOM     31  C   UNL     1       1.556   4.134  18.405  0.00  0.00    +0.000 A 
ENDBRANCH  25  26
ENDBRANCH  20  21
ENDBRANCH  19  20
ENDBRANCH   3  19
TORSDOF 5
ENDMDL
MODEL 8
REMARK VINA RESULT:      -8.4      4.086      6.341
REMARK  Name = 
REMARK  6 active torsions:
REMARK  status: ('A' for Active; 'I' for Inactive)
REMARK    1  A    between atoms: C_1  and  C_2
REMARK    2  A    between atoms: C_3  and  O_4
REMARK    3  A    between atoms: O_4  and  C_5
REMARK    4  A    between atoms: C_5  and  C_6
REMARK    5  A    between atoms: N_10  and  C_11
REMARK    6  A    between atoms: C_23  and  N_24
REMARK                            x       y       z     vdW  Elec       q    Type
REMARK                         _______ _______ _______ _____ _____    ______ ____
ROOT
ATOM      1  C   UNL     1       2.038   9.698  18.113  0.00  0.00    +0.000 C 
ATOM      2  C   UNL     1       1.452   9.243  19.426  0.00  0.00    +0.000 A 
ATOM      3  C   UNL     1       1.645   7.929  19.895  0.00  0.00    +0.000 A 
ATOM      4  C   UNL     1       1.132   7.544  21.142  0.00  0.00    +0.000 A 
ATOM      5  C   UNL     1       0.487   8.474  21.953  0.00  0.00    +0.000 A 
ATOM      6  C   UNL     1       0.301   9.775  21.491  0.00  0.00    +0.000 A 
ATOM      7  C   UNL     1      -0.357  10.772  22.337  0.00  0.00    +0.000 A 
ATOM      8  O   UNL     1      -0.694  10.533  23.491  0.00  0.00    +0.000 OA
ATOM      9  C   UNL     1      -0.594  12.086  21.734  0.00  0.00    +0.000 A 
ATOM     10  C   UNL     1      -0.192  12.349  20.481  0.00  0.00    +0.000 A 
ATOM     11  O   UNL     1       0.503  11.409  19.719  0.00  0.00    +0.000 OA
ATOM     12  C   UNL     1       0.742  10.155  20.226  0.00  0.00    +0.000 A 
ENDROOT
BRANCH  10  13
ATOM     13  N   UNL     1      -0.396  13.573  19.847  0.00  0.00    +0.000 N 
ATOM     14  C   UNL     1       0.366  13.968  18.642  0.00  0.00    +0.000 C 
ATOM     15  C   UNL     1       0.706  15.464  18.696  0.00  0.00    +0.000 C 
ATOM     16  O   UNL     1      -0.470  16.271  18.871  0.00  0.00    +0.000 OA
ATOM     17  C   UNL     1      -1.146  15.903  20.083  0.00  0.00    +0.000 C 
ATOM     18  C   UNL     1      -1.580  14.430  20.056  0.00  0.00    +0.000 C 
ENDBRANCH  10  13
BRANCH   3  19
ATOM     19  O   UNL     1       2.334   7.090  19.060  0.00  0.00    +0.000 OA
BRANCH  19  20
ATOM     20  C   UNL     1       2.923   5.942  19.661  0.00  0.00    +0.000 C 
BRANCH  20  21
ATOM     21  C   UNL     1       3.201   4.939  18.600  0.00  0.00    +0.000 A 
ATOM     22  N   UNL     1       2.374   4.059  18.070  0.00  0.00    +0.000 NA
ATOM     23  N   UNL     1       2.983   3.596  16.936  0.00  0.00    +0.000 NA
ATOM     24  N   UNL     1       4.159   4.179  16.754  0.00  0.00    +0.000 NA
ATOM     25  N   UNL     1       4.363   4.949  17.850  0.00  0.00    +0.000 N 
BRANCH  25  26
ATOM     26  C   UNL     1       5.557   5.677  18.048  0.00  0.00    +0.000 A 
ATOM     27  C   UNL     1       6.447   5.280  19.050  0.00  0.00    +0.000 A 
ATOM     28  C   UNL     1       7.687   5.913  19.162  0.00  0.00    +0.000 A 
ATOM     29  C   UNL     1       8.019   6.965  18.306  0.00  0.00    +0.000 A 
ATOM     30  C   UNL     1       7.104   7.408  17.356  0.00  0.00    +0.000 A 
ATOM     31  C   UNL     1       5.872   6.769  17.227  0.00  0.00    +0.000 A 
ENDBRANCH  25  26
ENDBRANCH  20  21
ENDBRANCH  19  20
ENDBRANCH   3  19
TORSDOF 5
ENDMDL
MODEL 9
REMARK VINA RESULT:      -8.4      3.616      5.499
REMARK  Name = 
REMARK  6 active torsions:
REMARK  status: ('A' for Active; 'I' for Inactive)
REMARK    1  A    between atoms: C_1  and  C_2
REMARK    2  A    between atoms: C_3  and  O_4
REMARK    3  A    between atoms: O_4  and  C_5
REMARK    4  A    between atoms: C_5  and  C_6
REMARK    5  A    between atoms: N_10  and  C_11
REMARK    6  A    between atoms: C_23  and  N_24
REMARK                            x       y       z     vdW  Elec       q    Type
REMARK                         _______ _______ _______ _____ _____    ______ ____
ROOT
ATOM      1  C   UNL     1       1.749  10.018  17.642  0.00  0.00    +0.000 C 
ATOM      2  C   UNL     1       1.537   9.213  18.899  0.00  0.00    +0.000 A 
ATOM      3  C   UNL     1       2.039   7.903  19.020  0.00  0.00    +0.000 A 
ATOM      4  C   UNL     1       1.871   7.192  20.217  0.00  0.00    +0.000 A 
ATOM      5  C   UNL     1       1.268   7.799  21.315  0.00  0.00    +0.000 A 
ATOM      6  C   UNL     1       0.775   9.097  21.197  0.00  0.00    +0.000 A 
ATOM      7  C   UNL     1       0.156   9.760  22.346  0.00  0.00    +0.000 A 
ATOM      8  O   UNL     1       0.114   9.243  23.456  0.00  0.00    +0.000 OA
ATOM      9  C   UNL     1      -0.417  11.086  22.104  0.00  0.00    +0.000 A 
ATOM     10  C   UNL     1      -0.337  11.658  20.893  0.00  0.00    +0.000 A 
ATOM     11  O   UNL     1       0.326  11.042  19.831  0.00  0.00    +0.000 OA
ATOM     12  C   UNL     1       0.871   9.791  19.994  0.00  0.00    +0.000 A 
ENDROOT
BRANCH  10  13
ATOM     13  N   UNL     1      -0.870  12.911  20.595  0.00  0.00    +0.000 N 
ATOM     14  C   UNL     1      -0.657  13.561  19.284  0.00  0.00    +0.000 C 
ATOM     15  C   UNL     1      -0.451  15.072  19.468  0.00  0.00    +0.000 C 
ATOM     16  O   UNL     1      -1.539  15.672  20.191  0.00  0.00    +0.000 OA
ATOM     17  C   UNL     1      -1.673  15.059  21.482  0.00  0.00    +0.000 C 
ATOM     18  C   UNL     1      -1.956  13.554  21.360  0.00  0.00    +0.000 C 
ENDBRANCH  10  13
BRANCH   3  19
ATOM     19  O   UNL     1       2.665   7.396  17.911  0.00  0.00    +0.000 OA
BRANCH  19  20
ATOM     20  C   UNL     1       4.057   7.125  18.040  0.00  0.00    +0.000 C 
BRANCH  20  21
ATOM     21  C   UNL     1       4.498   6.338  16.859  0.00  0.00    +0.000 A 
ATOM     22  N   UNL     1       5.189   6.751  15.814  0.00  0.00    +0.000 NA
ATOM     23  N   UNL     1       5.619   5.623  15.170  0.00  0.00    +0.000 NA
ATOM     24  N   UNL     1       5.216   4.530  15.802  0.00  0.00    +0.000 NA
ATOM     25  N   UNL     1       4.416   4.958  16.808  0.00  0.00    +0.000 N 
BRANCH  25  26
ATOM     26  C   UNL     1       3.738   4.064  17.665  0.00  0.00    +0.000 A 
ATOM     27  C   UNL     1       2.373   3.829  17.473  0.00  0.00    +0.000 A 
ATOM     28  C   UNL     1       1.730   2.848  18.230  0.00  0.00    +0.000 A 
ATOM     29  C   UNL     1       2.433   2.136  19.204  0.00  0.00    +0.000 A 
ATOM     30  C   UNL     1       3.774   2.420  19.444  0.00  0.00    +0.000 A 
ATOM     31  C   UNL     1       4.427   3.385  18.679  0.00  0.00    +0.000 A 
ENDBRANCH  25  26
ENDBRANCH  20  21
ENDBRANCH  19  20
ENDBRANCH   3  19
TORSDOF 5
ENDMDL
