MODEL 1
REMARK VINA RESULT:      -9.7      0.000      0.000
REMARK  Name = 
REMARK  5 active torsions:
REMARK  status: ('A' for Active; 'I' for Inactive)
REMARK    1  A    between atoms: C_2  and  C_23
REMARK    2  A    between atoms: N_3  and  N_4
REMARK    3  A    between atoms: C_5  and  C_6
REMARK    4  A    between atoms: N_8  and  C_9
REMARK    5  A    between atoms: C_9  and  C_10
REMARK                            x       y       z     vdW  Elec       q    Type
REMARK                         _______ _______ _______ _____ _____    ______ ____
ROOT
ATOM      1  C   UNL     1       2.463   6.435  19.073  0.00  0.00    +0.000 A 
ATOM      2  C   UNL     1       2.216   5.613  17.948  0.00  0.00    +0.000 A 
ATOM      3  N   UNL     1       3.230   4.662  18.065  0.00  0.00    +0.000 N 
ATOM      4  C   UNL     1       2.668   3.859  19.004  0.00  0.00    +0.000 A 
ATOM      5  C   UNL     1       3.030   2.543  19.404  0.00  0.00    +0.000 A 
ATOM      6  C   UNL     1       2.290   2.120  20.464  0.00  0.00    +0.000 A 
ATOM      7  C   UNL     1       2.386   3.014  21.514  0.00  0.00    +0.000 A 
ATOM      8  C   UNL     1       2.183   4.423  21.229  0.00  0.00    +0.000 A 
ATOM      9  C   UNL     1       2.369   4.963  19.887  0.00  0.00    +0.000 A 
ENDROOT
BRANCH   1  11
ATOM     10  N   UNL     1       2.003   9.009  17.892  0.00  0.00    +0.000 NA
ATOM     11  C   UNL     1       2.554   7.821  18.253  0.00  0.00    +0.000 C 
BRANCH  10  14
ATOM     12  O   UNL     1       0.362   9.922  20.318  0.00  0.00    +0.000 OA
ATOM     13  C   UNL     1      -0.001  10.256  19.204  0.00  0.00    +0.000 C 
ATOM     14  N   UNL     1       0.762   9.863  18.017  0.00  0.00    +0.000 N 
ATOM     15  H   UNL     1       0.517  10.310  17.142  0.00  0.00    +0.000 HD
BRANCH  13  16
ATOM     16  C   UNL     1      -1.323  11.171  19.090  0.00  0.00    +0.000 A 
ATOM     17  C   UNL     1      -1.716  12.240  19.899  0.00  0.00    +0.000 A 
ATOM     18  N   UNL     1      -3.030  12.610  19.641  0.00  0.00    +0.000 N 
ATOM     19  C   UNL     1      -3.502  11.997  18.510  0.00  0.00    +0.000 A 
ATOM     20  C   UNL     1      -4.785  12.079  17.906  0.00  0.00    +0.000 A 
ATOM     21  C   UNL     1      -4.990  11.424  16.694  0.00  0.00    +0.000 A 
ATOM     22  C   UNL     1      -3.928  10.747  16.109  0.00  0.00    +0.000 A 
ATOM     23  C   UNL     1      -2.676  10.614  16.770  0.00  0.00    +0.000 A 
ATOM     24  C   UNL     1      -2.438  11.195  18.045  0.00  0.00    +0.000 A 
ATOM     25  H   UNL     1      -3.598  13.232  20.206  0.00  0.00    +0.000 HD
ENDBRANCH  13  16
ENDBRANCH  10  14
ENDBRANCH   1  11
BRANCH   3  26
ATOM     26  C   UNL     1       4.659   4.801  18.309  0.00  0.00    +0.000 C 
BRANCH  26  27
ATOM     27  C   UNL     1       5.499   4.381  17.165  0.00  0.00    +0.000 A 
ATOM     28  C   UNL     1       4.920   3.964  15.951  0.00  0.00    +0.000 A 
ATOM     29  C   UNL     1       5.669   4.069  14.807  0.00  0.00    +0.000 A 
ATOM     30  C   UNL     1       6.916   4.676  14.894  0.00  0.00    +0.000 A 
ATOM     31 CL   UNL     1       7.617   5.204  13.421  0.00  0.00    +0.000 Cl
ATOM     32  C   UNL     1       7.551   4.897  16.128  0.00  0.00    +0.000 A 
ATOM     33  C   UNL     1       6.853   4.671  17.289  0.00  0.00    +0.000 A 
ENDBRANCH  26  27
ENDBRANCH   3  26
TORSDOF 5
ENDMDL
MODEL 2
REMARK VINA RESULT:      -9.7      1.400      1.804
REMARK  Name = 
REMARK  5 active torsions:
REMARK  status: ('A' for Active; 'I' for Inactive)
REMARK    1  A    between atoms: C_2  and  C_23
REMARK    2  A    between atoms: N_3  and  N_4
REMARK    3  A    between atoms: C_5  and  C_6
REMARK    4  A    between atoms: N_8  and  C_9
REMARK    5  A    between atoms: C_9  and  C_10
REMARK                            x       y       z     vdW  Elec       q    Type
REMARK                         _______ _______ _______ _____ _____    ______ ____
ROOT
ATOM      1  C   UNL     1       1.973   5.665  20.451  0.00  0.00    +0.000 A 
ATOM      2  C   UNL     1       1.863   6.131  19.120  0.00  0.00    +0.000 A 
ATOM      3  N   UNL     1       3.008   5.591  18.535  0.00  0.00    +0.000 N 
ATOM      4  C   UNL     1       2.568   4.325  18.322  0.00  0.00    +0.000 A 
ATOM      5  C   UNL     1       3.122   3.298  17.509  0.00  0.00    +0.000 A 
ATOM      6  C   UNL     1       2.446   2.125  17.652  0.00  0.00    +0.000 A 
ATOM      7  C   UNL     1       2.397   1.750  18.981  0.00  0.00    +0.000 A 
ATOM      8  C   UNL     1       1.985   2.745  19.956  0.00  0.00    +0.000 A 
ATOM      9  C   UNL     1       2.097   4.172  19.680  0.00  0.00    +0.000 A 
ENDROOT
BRANCH   1  11
ATOM     10  N   UNL     1       1.251   8.328  21.242  0.00  0.00    +0.000 NA
ATOM     11  C   UNL     1       1.859   7.116  21.148  0.00  0.00    +0.000 C 
BRANCH  10  14
ATOM     12  O   UNL     1       1.242  10.125  18.757  0.00  0.00    +0.000 OA
ATOM     13  C   UNL     1       0.237  10.067  19.444  0.00  0.00    +0.000 C 
ATOM     14  N   UNL     1       0.187   9.206  20.628  0.00  0.00    +0.000 N 
ATOM     15  H   UNL     1      -0.720   9.064  21.056  0.00  0.00    +0.000 HD
BRANCH  13  16
ATOM     16  C   UNL     1      -1.038  10.941  18.984  0.00  0.00    +0.000 A 
ATOM     17  C   UNL     1      -1.532  12.122  19.542  0.00  0.00    +0.000 A 
ATOM     18  N   UNL     1      -2.784  12.435  19.031  0.00  0.00    +0.000 N 
ATOM     19  C   UNL     1      -3.088  11.645  17.953  0.00  0.00    +0.000 A 
ATOM     20  C   UNL     1      -4.263  11.619  17.155  0.00  0.00    +0.000 A 
ATOM     21  C   UNL     1      -4.292  10.776  16.047  0.00  0.00    +0.000 A 
ATOM     22  C   UNL     1      -3.164  10.023  15.746  0.00  0.00    +0.000 A 
ATOM     23  C   UNL     1      -2.030  10.008  16.603  0.00  0.00    +0.000 A 
ATOM     24  C   UNL     1      -1.979  10.788  17.791  0.00  0.00    +0.000 A 
ATOM     25  H   UNL     1      -3.421  13.135  19.396  0.00  0.00    +0.000 HD
ENDBRANCH  13  16
ENDBRANCH  10  14
ENDBRANCH   1  11
BRANCH   3  26
ATOM     26  C   UNL     1       4.397   5.575  18.971  0.00  0.00    +0.000 C 
BRANCH  26  27
ATOM     27  C   UNL     1       5.369   5.679  17.860  0.00  0.00    +0.000 A 
ATOM     28  C   UNL     1       6.469   4.804  17.771  0.00  0.00    +0.000 A 
ATOM     29  C   UNL     1       7.030   4.593  16.537  0.00  0.00    +0.000 A 
ATOM     30  C   UNL     1       6.418   5.170  15.432  0.00  0.00    +0.000 A 
ATOM     31 CL   UNL     1       6.843   4.534  13.898  0.00  0.00    +0.000 Cl
ATOM     32  C   UNL     1       5.458   6.190  15.561  0.00  0.00    +0.000 A 
ATOM     33  C   UNL     1       4.981   6.504  16.810  0.00  0.00    +0.000 A 
ENDBRANCH  26  27
ENDBRANCH   3  26
TORSDOF 5
ENDMDL
MODEL 3
REMARK VINA RESULT:      -9.5      1.948      2.195
REMARK  Name = 
REMARK  5 active torsions:
REMARK  status: ('A' for Active; 'I' for Inactive)
REMARK    1  A    between atoms: C_2  and  C_23
REMARK    2  A    between atoms: N_3  and  N_4
REMARK    3  A    between atoms: C_5  and  C_6
REMARK    4  A    between atoms: N_8  and  C_9
REMARK    5  A    between atoms: C_9  and  C_10
REMARK                            x       y       z     vdW  Elec       q    Type
REMARK                         _______ _______ _______ _____ _____    ______ ____
ROOT
ATOM      1  C   UNL     1       1.984   5.855  20.062  0.00  0.00    +0.000 A 
ATOM      2  C   UNL     1       2.216   6.051  18.680  0.00  0.00    +0.000 A 
ATOM      3  N   UNL     1       3.312   5.219  18.456  0.00  0.00    +0.000 N 
ATOM      4  C   UNL     1       2.668   4.028  18.365  0.00  0.00    +0.000 A 
ATOM      5  C   UNL     1       3.138   2.779  17.874  0.00  0.00    +0.000 A 
ATOM      6  C   UNL     1       2.221   1.790  18.059  0.00  0.00    +0.000 A 
ATOM      7  C   UNL     1       1.856   1.708  19.389  0.00  0.00    +0.000 A 
ATOM      8  C   UNL     1       1.487   2.935  20.072  0.00  0.00    +0.000 A 
ATOM      9  C   UNL     1       1.937   4.236  19.595  0.00  0.00    +0.000 A 
ENDROOT
BRANCH   1  11
ATOM     10  N   UNL     1       1.519   8.666  20.402  0.00  0.00    +0.000 NA
ATOM     11  C   UNL     1       2.046   7.415  20.467  0.00  0.00    +0.000 C 
BRANCH  10  14
ATOM     12  O   UNL     1      -0.554  10.585  21.598  0.00  0.00    +0.000 OA
ATOM     13  C   UNL     1      -0.564  10.383  20.396  0.00  0.00    +0.000 C 
ATOM     14  N   UNL     1       0.420   9.492  19.776  0.00  0.00    +0.000 N 
ATOM     15  H   UNL     1       0.474   9.498  18.765  0.00  0.00    +0.000 HD
BRANCH  13  16
ATOM     16  C   UNL     1      -1.672  11.156  19.516  0.00  0.00    +0.000 A 
ATOM     17  C   UNL     1      -2.340  12.348  19.807  0.00  0.00    +0.000 A 
ATOM     18  N   UNL     1      -3.396  12.560  18.931  0.00  0.00    +0.000 N 
ATOM     19  C   UNL     1      -3.350  11.680  17.881  0.00  0.00    +0.000 A 
ATOM     20  C   UNL     1      -4.239  11.538  16.782  0.00  0.00    +0.000 A 
ATOM     21  C   UNL     1      -3.918  10.618  15.787  0.00  0.00    +0.000 A 
ATOM     22  C   UNL     1      -2.732   9.904  15.889  0.00  0.00    +0.000 A 
ATOM     23  C   UNL     1      -1.898  10.007  17.036  0.00  0.00    +0.000 A 
ATOM     24  C   UNL     1      -2.219  10.871  18.118  0.00  0.00    +0.000 A 
ATOM     25  H   UNL     1      -4.131  13.251  19.037  0.00  0.00    +0.000 HD
ENDBRANCH  13  16
ENDBRANCH  10  14
ENDBRANCH   1  11
BRANCH   3  26
ATOM     26  C   UNL     1       4.567   5.060  19.179  0.00  0.00    +0.000 C 
BRANCH  26  27
ATOM     27  C   UNL     1       5.732   5.650  18.484  0.00  0.00    +0.000 A 
ATOM     28  C   UNL     1       5.562   6.505  17.378  0.00  0.00    +0.000 A 
ATOM     29  C   UNL     1       6.565   7.396  17.089  0.00  0.00    +0.000 A 
ATOM     30  C   UNL     1       7.641   7.477  17.964  0.00  0.00    +0.000 A 
ATOM     31 CL   UNL     1       8.623   8.877  17.847  0.00  0.00    +0.000 Cl
ATOM     32  C   UNL     1       7.888   6.489  18.933  0.00  0.00    +0.000 A 
ATOM     33  C   UNL     1       6.947   5.510  19.143  0.00  0.00    +0.000 A 
ENDBRANCH  26  27
ENDBRANCH   3  26
TORSDOF 5
ENDMDL
MODEL 4
REMARK VINA RESULT:      -9.5      1.256      1.901
REMARK  Name = 
REMARK  5 active torsions:
REMARK  status: ('A' for Active; 'I' for Inactive)
REMARK    1  A    between atoms: C_2  and  C_23
REMARK    2  A    between atoms: N_3  and  N_4
REMARK    3  A    between atoms: C_5  and  C_6
REMARK    4  A    between atoms: N_8  and  C_9
REMARK    5  A    between atoms: C_9  and  C_10
REMARK                            x       y       z     vdW  Elec       q    Type
REMARK                         _______ _______ _______ _____ _____    ______ ____
ROOT
ATOM      1  C   UNL     1       2.252   6.838  19.342  0.00  0.00    +0.000 A 
ATOM      2  C   UNL     1       2.130   6.106  18.137  0.00  0.00    +0.000 A 
ATOM      3  N   UNL     1       3.234   5.256  18.210  0.00  0.00    +0.000 N 
ATOM      4  C   UNL     1       2.730   4.314  19.046  0.00  0.00    +0.000 A 
ATOM      5  C   UNL     1       3.215   3.010  19.339  0.00  0.00    +0.000 A 
ATOM      6  C   UNL     1       2.488   2.414  20.324  0.00  0.00    +0.000 A 
ATOM      7  C   UNL     1       2.456   3.209  21.454  0.00  0.00    +0.000 A 
ATOM      8  C   UNL     1       2.115   4.612  21.291  0.00  0.00    +0.000 A 
ATOM      9  C   UNL     1       2.287   5.293  20.013  0.00  0.00    +0.000 A 
ENDROOT
BRANCH   1  11
ATOM     10  N   UNL     1       1.528   9.301  18.060  0.00  0.00    +0.000 NA
ATOM     11  C   UNL     1       2.224   8.298  18.656  0.00  0.00    +0.000 C 
BRANCH  10  14
ATOM     12  O   UNL     1      -0.865  10.644  19.431  0.00  0.00    +0.000 OA
ATOM     13  C   UNL     1      -0.963  10.325  18.259  0.00  0.00    +0.000 C 
ATOM     14  N   UNL     1       0.161   9.701  17.556  0.00  0.00    +0.000 N 
ATOM     15  H   UNL     1       0.086   9.617  16.550  0.00  0.00    +0.000 HD
BRANCH  13  16
ATOM     16  C   UNL     1      -2.353  10.646  17.508  0.00  0.00    +0.000 A 
ATOM     17  C   UNL     1      -2.757  10.267  16.225  0.00  0.00    +0.000 A 
ATOM     18  N   UNL     1      -3.908  10.942  15.841  0.00  0.00    +0.000 N 
ATOM     19  C   UNL     1      -4.467  11.606  16.901  0.00  0.00    +0.000 A 
ATOM     20  C   UNL     1      -5.627  12.426  16.944  0.00  0.00    +0.000 A 
ATOM     21  C   UNL     1      -6.044  12.919  18.177  0.00  0.00    +0.000 A 
ATOM     22  C   UNL     1      -5.334  12.564  19.317  0.00  0.00    +0.000 A 
ATOM     23  C   UNL     1      -4.134  11.807  19.240  0.00  0.00    +0.000 A 
ATOM     24  C   UNL     1      -3.619  11.346  17.998  0.00  0.00    +0.000 A 
ATOM     25  H   UNL     1      -4.297  10.975  14.905  0.00  0.00    +0.000 HD
ENDBRANCH  13  16
ENDBRANCH  10  14
ENDBRANCH   1  11
BRANCH   3  26
ATOM     26  C   UNL     1       4.632   5.516  18.525  0.00  0.00    +0.000 C 
BRANCH  26  27
ATOM     27  C   UNL     1       5.517   5.523  17.340  0.00  0.00    +0.000 A 
ATOM     28  C   UNL     1       6.603   4.632  17.238  0.00  0.00    +0.000 A 
ATOM     29  C   UNL     1       7.068   4.320  15.985  0.00  0.00    +0.000 A 
ATOM     30  C   UNL     1       6.376   4.816  14.887  0.00  0.00    +0.000 A 
ATOM     31 CL   UNL     1       6.681   4.057  13.380  0.00  0.00    +0.000 Cl
ATOM     32  C   UNL     1       5.434   5.851  15.008  0.00  0.00    +0.000 A 
ATOM     33  C   UNL     1       5.054   6.267  16.261  0.00  0.00    +0.000 A 
ENDBRANCH  26  27
ENDBRANCH   3  26
TORSDOF 5
ENDMDL
MODEL 5
REMARK VINA RESULT:      -9.5      1.652      1.827
REMARK  Name = 
REMARK  5 active torsions:
REMARK  status: ('A' for Active; 'I' for Inactive)
REMARK    1  A    between atoms: C_2  and  C_23
REMARK    2  A    between atoms: N_3  and  N_4
REMARK    3  A    between atoms: C_5  and  C_6
REMARK    4  A    between atoms: N_8  and  C_9
REMARK    5  A    between atoms: C_9  and  C_10
REMARK                            x       y       z     vdW  Elec       q    Type
REMARK                         _______ _______ _______ _____ _____    ______ ____
ROOT
ATOM      1  C   UNL     1       2.322   6.141  18.932  0.00  0.00    +0.000 A 
ATOM      2  C   UNL     1       2.725   5.445  17.768  0.00  0.00    +0.000 A 
ATOM      3  N   UNL     1       3.720   4.607  18.271  0.00  0.00    +0.000 N 
ATOM      4  C   UNL     1       2.938   3.634  18.802  0.00  0.00    +0.000 A 
ATOM      5  C   UNL     1       3.290   2.327  19.240  0.00  0.00    +0.000 A 
ATOM      6  C   UNL     1       2.236   1.693  19.823  0.00  0.00    +0.000 A 
ATOM      7  C   UNL     1       1.722   2.453  20.856  0.00  0.00    +0.000 A 
ATOM      8  C   UNL     1       1.445   3.855  20.599  0.00  0.00    +0.000 A 
ATOM      9  C   UNL     1       2.113   4.577  19.523  0.00  0.00    +0.000 A 
ENDROOT
BRANCH   1  11
ATOM     10  N   UNL     1       2.059   8.859  18.049  0.00  0.00    +0.000 NA
ATOM     11  C   UNL     1       2.544   7.621  18.330  0.00  0.00    +0.000 C 
BRANCH  10  14
ATOM     12  O   UNL     1       0.475  10.086  20.371  0.00  0.00    +0.000 OA
ATOM     13  C   UNL     1       0.080  10.264  19.232  0.00  0.00    +0.000 C 
ATOM     14  N   UNL     1       0.816   9.716  18.089  0.00  0.00    +0.000 N 
ATOM     15  H   UNL     1       0.544  10.039  17.169  0.00  0.00    +0.000 HD
BRANCH  13  16
ATOM     16  C   UNL     1      -1.252  11.149  19.030  0.00  0.00    +0.000 A 
ATOM     17  C   UNL     1      -1.714  12.217  19.803  0.00  0.00    +0.000 A 
ATOM     18  N   UNL     1      -3.017  12.556  19.464  0.00  0.00    +0.000 N 
ATOM     19  C   UNL     1      -3.409  11.923  18.313  0.00  0.00    +0.000 A 
ATOM     20  C   UNL     1      -4.655  11.972  17.633  0.00  0.00    +0.000 A 
ATOM     21  C   UNL     1      -4.774  11.300  16.419  0.00  0.00    +0.000 A 
ATOM     22  C   UNL     1      -3.665  10.641  15.905  0.00  0.00    +0.000 A 
ATOM     23  C   UNL     1      -2.452  10.541  16.640  0.00  0.00    +0.000 A 
ATOM     24  C   UNL     1      -2.302  11.139  17.921  0.00  0.00    +0.000 A 
ATOM     25  H   UNL     1      -3.631  13.172  19.987  0.00  0.00    +0.000 HD
ENDBRANCH  13  16
ENDBRANCH  10  14
ENDBRANCH   1  11
BRANCH   3  26
ATOM     26  C   UNL     1       4.857   4.874  19.142  0.00  0.00    +0.000 C 
BRANCH  26  27
ATOM     27  C   UNL     1       5.976   5.563  18.462  0.00  0.00    +0.000 A 
ATOM     28  C   UNL     1       5.751   6.381  17.338  0.00  0.00    +0.000 A 
ATOM     29  C   UNL     1       6.670   7.360  17.057  0.00  0.00    +0.000 A 
ATOM     30  C   UNL     1       7.712   7.559  17.954  0.00  0.00    +0.000 A 
ATOM     31 CL   UNL     1       8.556   9.046  17.835  0.00  0.00    +0.000 Cl
ATOM     32  C   UNL     1       8.029   6.615  18.946  0.00  0.00    +0.000 A 
ATOM     33  C   UNL     1       7.183   5.552  19.152  0.00  0.00    +0.000 A 
ENDBRANCH  26  27
ENDBRANCH   3  26
TORSDOF 5
ENDMDL
MODEL 6
REMARK VINA RESULT:      -9.4      2.507      4.645
REMARK  Name = 
REMARK  5 active torsions:
REMARK  status: ('A' for Active; 'I' for Inactive)
REMARK    1  A    between atoms: C_2  and  C_23
REMARK    2  A    between atoms: N_3  and  N_4
REMARK    3  A    between atoms: C_5  and  C_6
REMARK    4  A    between atoms: N_8  and  C_9
REMARK    5  A    between atoms: C_9  and  C_10
REMARK                            x       y       z     vdW  Elec       q    Type
REMARK                         _______ _______ _______ _____ _____    ______ ____
ROOT
ATOM      1  C   UNL     1       4.176   6.176  17.819  0.00  0.00    +0.000 A 
ATOM      2  C   UNL     1       4.909   5.109  18.389  0.00  0.00    +0.000 A 
ATOM      3  N   UNL     1       4.595   4.059  17.528  0.00  0.00    +0.000 N 
ATOM      4  C   UNL     1       5.449   4.345  16.513  0.00  0.00    +0.000 A 
ATOM      5  C   UNL     1       5.860   3.535  15.419  0.00  0.00    +0.000 A 
ATOM      6  C   UNL     1       6.642   4.228  14.547  0.00  0.00    +0.000 A 
ATOM      7  C   UNL     1       5.997   5.372  14.118  0.00  0.00    +0.000 A 
ATOM      8  C   UNL     1       5.396   6.233  15.121  0.00  0.00    +0.000 A 
ATOM      9  C   UNL     1       5.025   5.724  16.436  0.00  0.00    +0.000 A 
ENDROOT
BRANCH   1  11
ATOM     10  N   UNL     1       2.431   7.316  19.793  0.00  0.00    +0.000 NA
ATOM     11  C   UNL     1       3.377   6.570  19.165  0.00  0.00    +0.000 C 
BRANCH  10  14
ATOM     12  O   UNL     1       2.111   9.425  17.588  0.00  0.00    +0.000 OA
ATOM     13  C   UNL     1       1.335   9.436  18.528  0.00  0.00    +0.000 C 
ATOM     14  N   UNL     1       1.436   8.435  19.594  0.00  0.00    +0.000 N 
ATOM     15  H   UNL     1       0.668   8.384  20.252  0.00  0.00    +0.000 HD
BRANCH  13  16
ATOM     16  C   UNL     1       0.182  10.562  18.537  0.00  0.00    +0.000 A 
ATOM     17  C   UNL     1       0.250  11.874  19.012  0.00  0.00    +0.000 A 
ATOM     18  N   UNL     1      -1.012  12.451  19.078  0.00  0.00    +0.000 N 
ATOM     19  C   UNL     1      -1.943  11.674  18.439  0.00  0.00    +0.000 A 
ATOM     20  C   UNL     1      -3.341  11.880  18.288  0.00  0.00    +0.000 A 
ATOM     21  C   UNL     1      -4.061  10.980  17.508  0.00  0.00    +0.000 A 
ATOM     22  C   UNL     1      -3.384   9.941  16.882  0.00  0.00    +0.000 A 
ATOM     23  C   UNL     1      -2.000   9.711  17.111  0.00  0.00    +0.000 A 
ATOM     24  C   UNL     1      -1.233  10.552  17.963  0.00  0.00    +0.000 A 
ATOM     25  H   UNL     1      -1.249  13.319  19.547  0.00  0.00    +0.000 HD
ENDBRANCH  13  16
ENDBRANCH  10  14
ENDBRANCH   1  11
BRANCH   3  26
ATOM     26  C   UNL     1       3.320   3.594  16.999  0.00  0.00    +0.000 C 
BRANCH  26  27
ATOM     27  C   UNL     1       2.432   3.002  18.024  0.00  0.00    +0.000 A 
ATOM     28  C   UNL     1       2.811   1.847  18.735  0.00  0.00    +0.000 A 
ATOM     29  C   UNL     1       2.243   1.629  19.964  0.00  0.00    +0.000 A 
ATOM     30  C   UNL     1       1.407   2.610  20.483  0.00  0.00    +0.000 A 
ATOM     31 CL   UNL     1       1.087   2.537  22.166  0.00  0.00    +0.000 Cl
ATOM     32  C   UNL     1       0.887   3.643  19.684  0.00  0.00    +0.000 A 
ATOM     33  C   UNL     1       1.354   3.794  18.401  0.00  0.00    +0.000 A 
ENDBRANCH  26  27
ENDBRANCH   3  26
TORSDOF 5
ENDMDL
MODEL 7
REMARK VINA RESULT:      -9.3      1.884      2.801
REMARK  Name = 
REMARK  5 active torsions:
REMARK  status: ('A' for Active; 'I' for Inactive)
REMARK    1  A    between atoms: C_2  and  C_23
REMARK    2  A    between atoms: N_3  and  N_4
REMARK    3  A    between atoms: C_5  and  C_6
REMARK    4  A    between atoms: N_8  and  C_9
REMARK    5  A    between atoms: C_9  and  C_10
REMARK                            x       y       z     vdW  Elec       q    Type
REMARK                         _______ _______ _______ _____ _____    ______ ____
ROOT
ATOM      1  C   UNL     1       2.534   6.542  18.812  0.00  0.00    +0.000 A 
ATOM      2  C   UNL     1       2.274   5.593  17.796  0.00  0.00    +0.000 A 
ATOM      3  N   UNL     1       3.193   4.590  18.104  0.00  0.00    +0.000 N 
ATOM      4  C   UNL     1       2.516   3.974  19.106  0.00  0.00    +0.000 A 
ATOM      5  C   UNL     1       2.741   2.703  19.703  0.00  0.00    +0.000 A 
ATOM      6  C   UNL     1       1.913   2.493  20.762  0.00  0.00    +0.000 A 
ATOM      7  C   UNL     1       2.033   3.515  21.685  0.00  0.00    +0.000 A 
ATOM      8  C   UNL     1       1.969   4.882  21.199  0.00  0.00    +0.000 A 
ATOM      9  C   UNL     1       2.270   5.211  19.811  0.00  0.00    +0.000 A 
ENDROOT
BRANCH   1  11
ATOM     10  N   UNL     1       2.573   9.088  17.488  0.00  0.00    +0.000 NA
ATOM     11  C   UNL     1       2.788   7.787  17.818  0.00  0.00    +0.000 C 
BRANCH  10  14
ATOM     12  O   UNL     1       0.518   9.639  19.698  0.00  0.00    +0.000 OA
ATOM     13  C   UNL     1       0.820  10.543  18.937  0.00  0.00    +0.000 C 
ATOM     14  N   UNL     1       1.813  10.333  17.880  0.00  0.00    +0.000 N 
ATOM     15  H   UNL     1       2.150  11.155  17.395  0.00  0.00    +0.000 HD
BRANCH  13  16
ATOM     16  C   UNL     1       0.117  11.977  19.159  0.00  0.00    +0.000 A 
ATOM     17  C   UNL     1      -1.187  12.252  19.579  0.00  0.00    +0.000 A 
ATOM     18  N   UNL     1      -1.498  13.594  19.407  0.00  0.00    +0.000 N 
ATOM     19  C   UNL     1      -0.378  14.325  19.104  0.00  0.00    +0.000 A 
ATOM     20  C   UNL     1      -0.251  15.714  18.833  0.00  0.00    +0.000 A 
ATOM     21  C   UNL     1       1.025  16.237  18.640  0.00  0.00    +0.000 A 
ATOM     22  C   UNL     1       2.121  15.392  18.754  0.00  0.00    +0.000 A 
ATOM     23  C   UNL     1       1.965  13.993  18.949  0.00  0.00    +0.000 A 
ATOM     24  C   UNL     1       0.681  13.393  19.072  0.00  0.00    +0.000 A 
ATOM     25  H   UNL     1      -2.422  14.007  19.469  0.00  0.00    +0.000 HD
ENDBRANCH  13  16
ENDBRANCH  10  14
ENDBRANCH   1  11
BRANCH   3  26
ATOM     26  C   UNL     1       4.615   4.647  18.416  0.00  0.00    +0.000 C 
BRANCH  26  27
ATOM     27  C   UNL     1       5.487   4.284  17.277  0.00  0.00    +0.000 A 
ATOM     28  C   UNL     1       4.942   3.844  16.055  0.00  0.00    +0.000 A 
ATOM     29  C   UNL     1       5.695   3.999  14.919  0.00  0.00    +0.000 A 
ATOM     30  C   UNL     1       6.904   4.674  15.021  0.00  0.00    +0.000 A 
ATOM     31 CL   UNL     1       7.589   5.251  13.559  0.00  0.00    +0.000 Cl
ATOM     32  C   UNL     1       7.516   4.921  16.262  0.00  0.00    +0.000 A 
ATOM     33  C   UNL     1       6.822   4.647  17.416  0.00  0.00    +0.000 A 
ENDBRANCH  26  27
ENDBRANCH   3  26
TORSDOF 5
ENDMDL
MODEL 8
REMARK VINA RESULT:      -9.3      2.416      4.547
REMARK  Name = 
REMARK  5 active torsions:
REMARK  status: ('A' for Active; 'I' for Inactive)
REMARK    1  A    between atoms: C_2  and  C_23
REMARK    2  A    between atoms: N_3  and  N_4
REMARK    3  A    between atoms: C_5  and  C_6
REMARK    4  A    between atoms: N_8  and  C_9
REMARK    5  A    between atoms: C_9  and  C_10
REMARK                            x       y       z     vdW  Elec       q    Type
REMARK                         _______ _______ _______ _____ _____    ______ ____
ROOT
ATOM      1  C   UNL     1       3.993   6.433  17.968  0.00  0.00    +0.000 A 
ATOM      2  C   UNL     1       4.715   5.409  18.625  0.00  0.00    +0.000 A 
ATOM      3  N   UNL     1       4.456   4.310  17.807  0.00  0.00    +0.000 N 
ATOM      4  C   UNL     1       5.350   4.558  16.818  0.00  0.00    +0.000 A 
ATOM      5  C   UNL     1       5.821   3.699  15.786  0.00  0.00    +0.000 A 
ATOM      6  C   UNL     1       6.632   4.360  14.915  0.00  0.00    +0.000 A 
ATOM      7  C   UNL     1       5.990   5.469  14.398  0.00  0.00    +0.000 A 
ATOM      8  C   UNL     1       5.332   6.370  15.327  0.00  0.00    +0.000 A 
ATOM      9  C   UNL     1       4.910   5.924  16.649  0.00  0.00    +0.000 A 
ENDROOT
BRANCH   1  11
ATOM     10  N   UNL     1       2.108   7.601  19.790  0.00  0.00    +0.000 NA
ATOM     11  C   UNL     1       3.129   6.882  19.255  0.00  0.00    +0.000 C 
BRANCH  10  14
ATOM     12  O   UNL     1       1.084  10.077  21.284  0.00  0.00    +0.000 OA
ATOM     13  C   UNL     1       0.561   9.770  20.227  0.00  0.00    +0.000 C 
ATOM     14  N   UNL     1       1.030   8.609  19.467  0.00  0.00    +0.000 N 
ATOM     15  H   UNL     1       0.680   8.504  18.523  0.00  0.00    +0.000 HD
BRANCH  13  16
ATOM     16  C   UNL     1      -0.636  10.704  19.684  0.00  0.00    +0.000 A 
ATOM     17  C   UNL     1      -1.107  11.910  20.208  0.00  0.00    +0.000 A 
ATOM     18  N   UNL     1      -2.306  12.283  19.616  0.00  0.00    +0.000 N 
ATOM     19  C   UNL     1      -2.577  11.505  18.520  0.00  0.00    +0.000 A 
ATOM     20  C   UNL     1      -3.697  11.534  17.646  0.00  0.00    +0.000 A 
ATOM     21  C   UNL     1      -3.694  10.690  16.539  0.00  0.00    +0.000 A 
ATOM     22  C   UNL     1      -2.588   9.881  16.314  0.00  0.00    +0.000 A 
ATOM     23  C   UNL     1      -1.514   9.813  17.243  0.00  0.00    +0.000 A 
ATOM     24  C   UNL     1      -1.503  10.594  18.432  0.00  0.00    +0.000 A 
ATOM     25  H   UNL     1      -2.930  13.015  19.938  0.00  0.00    +0.000 HD
ENDBRANCH  13  16
ENDBRANCH  10  14
ENDBRANCH   1  11
BRANCH   3  26
ATOM     26  C   UNL     1       3.213   3.797  17.247  0.00  0.00    +0.000 C 
BRANCH  26  27
ATOM     27  C   UNL     1       2.323   3.172  18.251  0.00  0.00    +0.000 A 
ATOM     28  C   UNL     1       2.670   1.957  18.874  0.00  0.00    +0.000 A 
ATOM     29  C   UNL     1       2.119   1.678  20.099  0.00  0.00    +0.000 A 
ATOM     30  C   UNL     1       1.334   2.653  20.702  0.00  0.00    +0.000 A 
ATOM     31 CL   UNL     1       1.048   2.479  22.383  0.00  0.00    +0.000 Cl
ATOM     32  C   UNL     1       0.841   3.758  19.987  0.00  0.00    +0.000 A 
ATOM     33  C   UNL     1       1.286   3.978  18.706  0.00  0.00    +0.000 A 
ENDBRANCH  26  27
ENDBRANCH   3  26
TORSDOF 5
ENDMDL
MODEL 9
REMARK VINA RESULT:      -9.3      6.562      9.196
REMARK  Name = 
REMARK  5 active torsions:
REMARK  status: ('A' for Active; 'I' for Inactive)
REMARK    1  A    between atoms: C_2  and  C_23
REMARK    2  A    between atoms: N_3  and  N_4
REMARK    3  A    between atoms: C_5  and  C_6
REMARK    4  A    between atoms: N_8  and  C_9
REMARK    5  A    between atoms: C_9  and  C_10
REMARK                            x       y       z     vdW  Elec       q    Type
REMARK                         _______ _______ _______ _____ _____    ______ ____
ROOT
ATOM      1  C   UNL     1       7.643   6.897  17.396  0.00  0.00    +0.000 A 
ATOM      2  C   UNL     1       7.431   5.841  18.314  0.00  0.00    +0.000 A 
ATOM      3  N   UNL     1       6.088   5.539  18.092  0.00  0.00    +0.000 N 
ATOM      4  C   UNL     1       6.215   4.783  16.972  0.00  0.00    +0.000 A 
ATOM      5  C   UNL     1       5.273   3.919  16.350  0.00  0.00    +0.000 A 
ATOM      6  C   UNL     1       5.744   3.428  15.172  0.00  0.00    +0.000 A 
ATOM      7  C   UNL     1       6.120   4.458  14.331  0.00  0.00    +0.000 A 
ATOM      8  C   UNL     1       6.971   5.502  14.871  0.00  0.00    +0.000 A 
ATOM      9  C   UNL     1       7.034   5.768  16.303  0.00  0.00    +0.000 A 
ENDROOT
BRANCH   1  11
ATOM     10  N   UNL     1       8.698   9.183  18.772  0.00  0.00    +0.000 NA
ATOM     11  C   UNL     1       8.212   7.949  18.479  0.00  0.00    +0.000 C 
BRANCH  10  14
ATOM     12  O   UNL     1      10.711  11.321  19.660  0.00  0.00    +0.000 OA
ATOM     13  C   UNL     1      10.069  11.506  18.641  0.00  0.00    +0.000 C 
ATOM     14  N   UNL     1       9.112  10.504  18.165  0.00  0.00    +0.000 N 
ATOM     15  H   UNL     1       8.740  10.628  17.232  0.00  0.00    +0.000 HD
BRANCH  13  16
ATOM     16  C   UNL     1      10.336  12.869  17.823  0.00  0.00    +0.000 A 
ATOM     17  C   UNL     1      11.159  13.071  16.712  0.00  0.00    +0.000 A 
ATOM     18  N   UNL     1      11.324  14.424  16.447  0.00  0.00    +0.000 N 
ATOM     19  C   UNL     1      10.453  15.181  17.187  0.00  0.00    +0.000 A 
ATOM     20  C   UNL     1      10.300  16.592  17.237  0.00  0.00    +0.000 A 
ATOM     21  C   UNL     1       9.268  17.119  18.010  0.00  0.00    +0.000 A 
ATOM     22  C   UNL     1       8.411  16.248  18.670  0.00  0.00    +0.000 A 
ATOM     23  C   UNL     1       8.631  14.844  18.667  0.00  0.00    +0.000 A 
ATOM     24  C   UNL     1       9.717  14.258  17.961  0.00  0.00    +0.000 A 
ATOM     25  H   UNL     1      12.003  14.831  15.813  0.00  0.00    +0.000 HD
ENDBRANCH  13  16
ENDBRANCH  10  14
ENDBRANCH   1  11
BRANCH   3  26
ATOM     26  C   UNL     1       4.911   6.391  17.996  0.00  0.00    +0.000 C 
BRANCH  26  27
ATOM     27  C   UNL     1       3.682   5.770  18.537  0.00  0.00    +0.000 A 
ATOM     28  C   UNL     1       2.494   5.731  17.782  0.00  0.00    +0.000 A 
ATOM     29  C   UNL     1       1.574   4.756  18.075  0.00  0.00    +0.000 A 
ATOM     30  C   UNL     1       1.911   3.801  19.026  0.00  0.00    +0.000 A 
ATOM     31 CL   UNL     1       0.973   2.366  19.040  0.00  0.00    +0.000 Cl
ATOM     32  C   UNL     1       2.998   3.973  19.900  0.00  0.00    +0.000 A 
ATOM     33  C   UNL     1       3.858   5.025  19.698  0.00  0.00    +0.000 A 
ENDBRANCH  26  27
ENDBRANCH   3  26
TORSDOF 5
ENDMDL
