MODEL 1
REMARK VINA RESULT:      -7.9      0.000      0.000
REMARK  Name = 
REMARK  6 active torsions:
REMARK  status: ('A' for Active; 'I' for Inactive)
REMARK    1  A    between atoms: C_1  and  C_2
REMARK    2  A    between atoms: C_2  and  C_3
REMARK    3  A    between atoms: C_3  and  N_4
REMARK    4  A    between atoms: C_5  and  C_7
REMARK    5  A    between atoms: N_10  and  S_11
REMARK    6  A    between atoms: S_11  and  C_14
REMARK                            x       y       z     vdW  Elec       q    Type
REMARK                         _______ _______ _______ _____ _____    ______ ____
ROOT
ATOM      1  C   UNL     1       7.455   6.350  17.524  0.00  0.00    +0.000 C 
ATOM      2  C   UNL     1       7.235   5.851  18.957  0.00  0.00    +0.000 C 
ATOM      3  C   UNL     1       5.842   5.254  19.163  0.00  0.00    +0.000 C 
ATOM      4  N   UNL     1       4.781   6.228  18.768  0.00  0.00    +0.000 NA
ATOM      5  C   UNL     1       4.955   6.719  17.367  0.00  0.00    +0.000 C 
ATOM      6  C   UNL     1       6.338   7.334  17.170  0.00  0.00    +0.000 C 
ENDROOT
BRANCH   1   8
ATOM      7  N   UNL     1       7.121   5.474  15.259  0.00  0.00    +0.000 N 
ATOM      8  C   UNL     1       7.550   5.187  16.535  0.00  0.00    +0.000 C 
ATOM      9  O   UNL     1       7.992   4.085  16.846  0.00  0.00    +0.000 OA
ATOM     10  H   UNL     1       6.841   6.416  15.017  0.00  0.00    +0.000 HD
BRANCH   7  11
ATOM     11  C   UNL     1       7.073   4.454  14.228  0.00  0.00    +0.000 C 
BRANCH  11  13
ATOM     12  C   UNL     1       5.544   3.454  12.465  0.00  0.00    +0.000 C 
ATOM     13  C   UNL     1       5.641   4.068  13.854  0.00  0.00    +0.000 C 
ENDBRANCH  11  13
ENDBRANCH   7  11
ENDBRANCH   1   8
BRANCH   4  14
ATOM     14  S   UNL     1       3.175   5.612  19.008  0.00  0.00    +0.000 S 
ATOM     15  O   UNL     1       2.649   5.231  17.713  0.00  0.00    +0.000 OA
ATOM     16  O   UNL     1       3.237   4.657  20.094  0.00  0.00    +0.000 OA
BRANCH  14  17
ATOM     17  C   UNL     1       2.247   7.027  19.549  0.00  0.00    +0.000 A 
ATOM     18  C   UNL     1       1.678   7.036  20.838  0.00  0.00    +0.000 A 
ATOM     19  C   UNL     1       0.927   8.135  21.264  0.00  0.00    +0.000 A 
ATOM     20  C   UNL     1       0.789   9.210  20.403  0.00  0.00    +0.000 A 
ATOM     21  C   UNL     1       1.360   9.197  19.123  0.00  0.00    +0.000 A 
ATOM     22  C   UNL     1       2.075   8.102  18.668  0.00  0.00    +0.000 A 
ATOM     23  C   UNL     1       1.057  10.473  18.398  0.00  0.00    +0.000 C 
ATOM     24  C   UNL     1       0.675  11.390  19.571  0.00  0.00    +0.000 C 
ATOM     25  C   UNL     1       0.036  10.486  20.634  0.00  0.00    +0.000 C 
ENDBRANCH  14  17
ENDBRANCH   4  14
TORSDOF 5
ENDMDL
MODEL 2
REMARK VINA RESULT:      -7.9      2.139      3.868
REMARK  Name = 
REMARK  6 active torsions:
REMARK  status: ('A' for Active; 'I' for Inactive)
REMARK    1  A    between atoms: C_1  and  C_2
REMARK    2  A    between atoms: C_2  and  C_3
REMARK    3  A    between atoms: C_3  and  N_4
REMARK    4  A    between atoms: C_5  and  C_7
REMARK    5  A    between atoms: N_10  and  S_11
REMARK    6  A    between atoms: S_11  and  C_14
REMARK                            x       y       z     vdW  Elec       q    Type
REMARK                         _______ _______ _______ _____ _____    ______ ____
ROOT
ATOM      1  C   UNL     1       7.666   5.572  18.041  0.00  0.00    +0.000 C 
ATOM      2  C   UNL     1       7.116   4.567  17.022  0.00  0.00    +0.000 C 
ATOM      3  C   UNL     1       5.587   4.512  17.020  0.00  0.00    +0.000 C 
ATOM      4  N   UNL     1       5.062   4.226  18.389  0.00  0.00    +0.000 NA
ATOM      5  C   UNL     1       5.564   5.202  19.404  0.00  0.00    +0.000 C 
ATOM      6  C   UNL     1       7.091   5.239  19.420  0.00  0.00    +0.000 C 
ENDROOT
BRANCH   1   8
ATOM      7  N   UNL     1       8.239   7.953  18.139  0.00  0.00    +0.000 N 
ATOM      8  C   UNL     1       7.380   7.013  17.616  0.00  0.00    +0.000 C 
ATOM      9  O   UNL     1       6.467   7.312  16.851  0.00  0.00    +0.000 OA
ATOM     10  H   UNL     1       9.030   7.663  18.698  0.00  0.00    +0.000 HD
BRANCH   7  11
ATOM     11  C   UNL     1       8.050   9.371  17.895  0.00  0.00    +0.000 C 
BRANCH  11  13
ATOM     12  C   UNL     1       9.720  11.281  17.992  0.00  0.00    +0.000 C 
ATOM     13  C   UNL     1       8.940  10.241  18.784  0.00  0.00    +0.000 C 
ENDBRANCH  11  13
ENDBRANCH   7  11
ENDBRANCH   1   8
BRANCH   4  14
ATOM     14  S   UNL     1       3.329   4.124  18.441  0.00  0.00    +0.000 S 
ATOM     15  O   UNL     1       2.871   3.714  17.129  0.00  0.00    +0.000 OA
ATOM     16  O   UNL     1       2.976   3.364  19.621  0.00  0.00    +0.000 OA
BRANCH  14  17
ATOM     17  C   UNL     1       2.805   5.806  18.671  0.00  0.00    +0.000 A 
ATOM     18  C   UNL     1       3.022   6.750  17.647  0.00  0.00    +0.000 A 
ATOM     19  C   UNL     1       2.635   8.080  17.827  0.00  0.00    +0.000 A 
ATOM     20  C   UNL     1       2.015   8.428  19.014  0.00  0.00    +0.000 A 
ATOM     21  C   UNL     1       1.799   7.485  20.029  0.00  0.00    +0.000 A 
ATOM     22  C   UNL     1       2.210   6.171  19.884  0.00  0.00    +0.000 A 
ATOM     23  C   UNL     1       1.118   8.121  21.203  0.00  0.00    +0.000 C 
ATOM     24  C   UNL     1       0.544   9.390  20.554  0.00  0.00    +0.000 C 
ATOM     25  C   UNL     1       1.518   9.779  19.433  0.00  0.00    +0.000 C 
ENDBRANCH  14  17
ENDBRANCH   4  14
TORSDOF 5
ENDMDL
MODEL 3
REMARK VINA RESULT:      -7.7      0.604      1.481
REMARK  Name = 
REMARK  6 active torsions:
REMARK  status: ('A' for Active; 'I' for Inactive)
REMARK    1  A    between atoms: C_1  and  C_2
REMARK    2  A    between atoms: C_2  and  C_3
REMARK    3  A    between atoms: C_3  and  N_4
REMARK    4  A    between atoms: C_5  and  C_7
REMARK    5  A    between atoms: N_10  and  S_11
REMARK    6  A    between atoms: S_11  and  C_14
REMARK                            x       y       z     vdW  Elec       q    Type
REMARK                         _______ _______ _______ _____ _____    ______ ____
ROOT
ATOM      1  C   UNL     1       7.211   6.063  17.270  0.00  0.00    +0.000 C 
ATOM      2  C   UNL     1       7.022   5.463  18.668  0.00  0.00    +0.000 C 
ATOM      3  C   UNL     1       5.583   5.010  18.921  0.00  0.00    +0.000 C 
ATOM      4  N   UNL     1       4.623   6.131  18.687  0.00  0.00    +0.000 NA
ATOM      5  C   UNL     1       4.768   6.725  17.323  0.00  0.00    +0.000 C 
ATOM      6  C   UNL     1       6.201   7.196  17.080  0.00  0.00    +0.000 C 
ENDROOT
BRANCH   1   8
ATOM      7  N   UNL     1       7.287   5.453  14.897  0.00  0.00    +0.000 N 
ATOM      8  C   UNL     1       7.107   4.993  16.182  0.00  0.00    +0.000 C 
ATOM      9  O   UNL     1       6.898   3.809  16.432  0.00  0.00    +0.000 OA
ATOM     10  H   UNL     1       7.541   6.418  14.735  0.00  0.00    +0.000 HD
BRANCH   7  11
ATOM     11  C   UNL     1       7.139   4.575  13.751  0.00  0.00    +0.000 C 
BRANCH  11  13
ATOM     12  C   UNL     1       5.501   3.301  12.288  0.00  0.00    +0.000 C 
ATOM     13  C   UNL     1       5.707   4.062  13.590  0.00  0.00    +0.000 C 
ENDBRANCH  11  13
ENDBRANCH   7  11
ENDBRANCH   1   8
BRANCH   4  14
ATOM     14  S   UNL     1       2.972   5.680  18.987  0.00  0.00    +0.000 S 
ATOM     15  O   UNL     1       2.407   5.212  17.738  0.00  0.00    +0.000 OA
ATOM     16  O   UNL     1       2.962   4.843  20.168  0.00  0.00    +0.000 OA
BRANCH  14  17
ATOM     17  C   UNL     1       2.171   7.217  19.376  0.00  0.00    +0.000 A 
ATOM     18  C   UNL     1       1.961   8.170  18.359  0.00  0.00    +0.000 A 
ATOM     19  C   UNL     1       1.352   9.392  18.659  0.00  0.00    +0.000 A 
ATOM     20  C   UNL     1       0.942   9.619  19.961  0.00  0.00    +0.000 A 
ATOM     21  C   UNL     1       1.151   8.667  20.968  0.00  0.00    +0.000 A 
ATOM     22  C   UNL     1       1.787   7.467  20.698  0.00  0.00    +0.000 A 
ATOM     23  C   UNL     1       0.621   9.162  22.279  0.00  0.00    +0.000 C 
ATOM     24  C   UNL     1      -0.331  10.272  21.808  0.00  0.00    +0.000 C 
ATOM     25  C   UNL     1       0.276  10.841  20.518  0.00  0.00    +0.000 C 
ENDBRANCH  14  17
ENDBRANCH   4  14
TORSDOF 5
ENDMDL
MODEL 4
REMARK VINA RESULT:      -7.6      2.192      3.699
REMARK  Name = 
REMARK  6 active torsions:
REMARK  status: ('A' for Active; 'I' for Inactive)
REMARK    1  A    between atoms: C_1  and  C_2
REMARK    2  A    between atoms: C_2  and  C_3
REMARK    3  A    between atoms: C_3  and  N_4
REMARK    4  A    between atoms: C_5  and  C_7
REMARK    5  A    between atoms: N_10  and  S_11
REMARK    6  A    between atoms: S_11  and  C_14
REMARK                            x       y       z     vdW  Elec       q    Type
REMARK                         _______ _______ _______ _____ _____    ______ ____
ROOT
ATOM      1  C   UNL     1       7.853   5.715  18.294  0.00  0.00    +0.000 C 
ATOM      2  C   UNL     1       7.538   4.566  17.329  0.00  0.00    +0.000 C 
ATOM      3  C   UNL     1       6.036   4.389  17.100  0.00  0.00    +0.000 C 
ATOM      4  N   UNL     1       5.316   4.210  18.397  0.00  0.00    +0.000 NA
ATOM      5  C   UNL     1       5.586   5.325  19.354  0.00  0.00    +0.000 C 
ATOM      6  C   UNL     1       7.085   5.486  19.598  0.00  0.00    +0.000 C 
ENDROOT
BRANCH   1   8
ATOM      7  N   UNL     1       8.199   8.141  18.245  0.00  0.00    +0.000 N 
ATOM      8  C   UNL     1       7.550   7.075  17.663  0.00  0.00    +0.000 C 
ATOM      9  O   UNL     1       6.802   7.208  16.699  0.00  0.00    +0.000 OA
ATOM     10  H   UNL     1       8.872   7.984  18.983  0.00  0.00    +0.000 HD
BRANCH   7  11
ATOM     11  C   UNL     1       7.953   9.504  17.811  0.00  0.00    +0.000 C 
BRANCH  11  13
ATOM     12  C   UNL     1       8.742  11.914  17.941  0.00  0.00    +0.000 C 
ATOM     13  C   UNL     1       9.085  10.455  18.206  0.00  0.00    +0.000 C 
ENDBRANCH  11  13
ENDBRANCH   7  11
ENDBRANCH   1   8
BRANCH   4  14
ATOM     14  S   UNL     1       3.607   3.975  18.194  0.00  0.00    +0.000 S 
ATOM     15  O   UNL     1       3.336   3.903  16.773  0.00  0.00    +0.000 OA
ATOM     16  O   UNL     1       3.210   2.903  19.082  0.00  0.00    +0.000 OA
BRANCH  14  17
ATOM     17  C   UNL     1       2.892   5.492  18.781  0.00  0.00    +0.000 A 
ATOM     18  C   UNL     1       2.445   5.581  20.115  0.00  0.00    +0.000 A 
ATOM     19  C   UNL     1       1.860   6.762  20.579  0.00  0.00    +0.000 A 
ATOM     20  C   UNL     1       1.764   7.834  19.709  0.00  0.00    +0.000 A 
ATOM     21  C   UNL     1       2.213   7.741  18.385  0.00  0.00    +0.000 A 
ATOM     22  C   UNL     1       2.760   6.567  17.895  0.00  0.00    +0.000 A 
ATOM     23  C   UNL     1       1.988   9.033  17.661  0.00  0.00    +0.000 C 
ATOM     24  C   UNL     1       1.814  10.002  18.841  0.00  0.00    +0.000 C 
ATOM     25  C   UNL     1       1.179   9.188  19.976  0.00  0.00    +0.000 C 
ENDBRANCH  14  17
ENDBRANCH   4  14
TORSDOF 5
ENDMDL
MODEL 5
REMARK VINA RESULT:      -7.4      2.216      3.772
REMARK  Name = 
REMARK  6 active torsions:
REMARK  status: ('A' for Active; 'I' for Inactive)
REMARK    1  A    between atoms: C_1  and  C_2
REMARK    2  A    between atoms: C_2  and  C_3
REMARK    3  A    between atoms: C_3  and  N_4
REMARK    4  A    between atoms: C_5  and  C_7
REMARK    5  A    between atoms: N_10  and  S_11
REMARK    6  A    between atoms: S_11  and  C_14
REMARK                            x       y       z     vdW  Elec       q    Type
REMARK                         _______ _______ _______ _____ _____    ______ ____
ROOT
ATOM      1  C   UNL     1       7.085   5.481  16.664  0.00  0.00    +0.000 C 
ATOM      2  C   UNL     1       6.101   4.936  15.622  0.00  0.00    +0.000 C 
ATOM      3  C   UNL     1       4.707   4.692  16.203  0.00  0.00    +0.000 C 
ATOM      4  N   UNL     1       4.777   3.793  17.394  0.00  0.00    +0.000 NA
ATOM      5  C   UNL     1       5.713   4.308  18.439  0.00  0.00    +0.000 C 
ATOM      6  C   UNL     1       7.109   4.530  17.862  0.00  0.00    +0.000 C 
ENDROOT
BRANCH   1   8
ATOM      7  N   UNL     1       7.827   7.739  17.265  0.00  0.00    +0.000 N 
ATOM      8  C   UNL     1       6.741   6.918  17.060  0.00  0.00    +0.000 C 
ATOM      9  O   UNL     1       5.585   7.319  17.167  0.00  0.00    +0.000 OA
ATOM     10  H   UNL     1       8.762   7.398  17.086  0.00  0.00    +0.000 HD
BRANCH   7  11
ATOM     11  C   UNL     1       7.666   9.106  17.723  0.00  0.00    +0.000 C 
BRANCH  11  13
ATOM     12  C   UNL     1       9.212  11.002  18.402  0.00  0.00    +0.000 C 
ATOM     13  C   UNL     1       8.809   9.554  18.637  0.00  0.00    +0.000 C 
ENDBRANCH  11  13
ENDBRANCH   7  11
ENDBRANCH   1   8
BRANCH   4  14
ATOM     14  S   UNL     1       3.216   3.458  18.080  0.00  0.00    +0.000 S 
ATOM     15  O   UNL     1       2.316   3.134  16.992  0.00  0.00    +0.000 OA
ATOM     16  O   UNL     1       3.416   2.537  19.178  0.00  0.00    +0.000 OA
BRANCH  14  17
ATOM     17  C   UNL     1       2.691   5.022  18.739  0.00  0.00    +0.000 A 
ATOM     18  C   UNL     1       2.442   5.148  20.120  0.00  0.00    +0.000 A 
ATOM     19  C   UNL     1       2.007   6.367  20.645  0.00  0.00    +0.000 A 
ATOM     20  C   UNL     1       1.859   7.439  19.781  0.00  0.00    +0.000 A 
ATOM     21  C   UNL     1       2.111   7.309  18.408  0.00  0.00    +0.000 A 
ATOM     22  C   UNL     1       2.506   6.098  17.864  0.00  0.00    +0.000 A 
ATOM     23  C   UNL     1       1.871   8.609  17.704  0.00  0.00    +0.000 C 
ATOM     24  C   UNL     1       1.928   9.594  18.882  0.00  0.00    +0.000 C 
ATOM     25  C   UNL     1       1.407   8.830  20.107  0.00  0.00    +0.000 C 
ENDBRANCH  14  17
ENDBRANCH   4  14
TORSDOF 5
ENDMDL
MODEL 6
REMARK VINA RESULT:      -7.2      1.994      3.721
REMARK  Name = 
REMARK  6 active torsions:
REMARK  status: ('A' for Active; 'I' for Inactive)
REMARK    1  A    between atoms: C_1  and  C_2
REMARK    2  A    between atoms: C_2  and  C_3
REMARK    3  A    between atoms: C_3  and  N_4
REMARK    4  A    between atoms: C_5  and  C_7
REMARK    5  A    between atoms: N_10  and  S_11
REMARK    6  A    between atoms: S_11  and  C_14
REMARK                            x       y       z     vdW  Elec       q    Type
REMARK                         _______ _______ _______ _____ _____    ______ ____
ROOT
ATOM      1  C   UNL     1       6.734   4.923  16.536  0.00  0.00    +0.000 C 
ATOM      2  C   UNL     1       5.521   4.277  15.855  0.00  0.00    +0.000 C 
ATOM      3  C   UNL     1       4.259   4.350  16.716  0.00  0.00    +0.000 C 
ATOM      4  N   UNL     1       4.497   3.749  18.063  0.00  0.00    +0.000 NA
ATOM      5  C   UNL     1       5.662   4.371  18.763  0.00  0.00    +0.000 C 
ATOM      6  C   UNL     1       6.926   4.279  17.911  0.00  0.00    +0.000 C 
ENDROOT
BRANCH   1   8
ATOM      7  N   UNL     1       7.603   7.090  17.283  0.00  0.00    +0.000 N 
ATOM      8  C   UNL     1       6.589   6.443  16.613  0.00  0.00    +0.000 C 
ATOM      9  O   UNL     1       5.652   7.048  16.100  0.00  0.00    +0.000 OA
ATOM     10  H   UNL     1       8.401   6.568  17.620  0.00  0.00    +0.000 HD
BRANCH   7  11
ATOM     11  C   UNL     1       7.568   8.522  17.510  0.00  0.00    +0.000 C 
BRANCH  11  13
ATOM     12  C   UNL     1       8.899  10.474  18.439  0.00  0.00    +0.000 C 
ATOM     13  C   UNL     1       8.624   8.980  18.518  0.00  0.00    +0.000 C 
ENDBRANCH  11  13
ENDBRANCH   7  11
ENDBRANCH   1   8
BRANCH   4  14
ATOM     14  S   UNL     1       3.085   3.779  19.075  0.00  0.00    +0.000 S 
ATOM     15  O   UNL     1       2.026   3.080  18.377  0.00  0.00    +0.000 OA
ATOM     16  O   UNL     1       3.497   3.370  20.401  0.00  0.00    +0.000 OA
BRANCH  14  17
ATOM     17  C   UNL     1       2.629   5.494  19.127  0.00  0.00    +0.000 A 
ATOM     18  C   UNL     1       2.847   6.308  17.997  0.00  0.00    +0.000 A 
ATOM     19  C   UNL     1       2.512   7.664  18.035  0.00  0.00    +0.000 A 
ATOM     20  C   UNL     1       1.941   8.167  19.191  0.00  0.00    +0.000 A 
ATOM     21  C   UNL     1       1.724   7.353  20.312  0.00  0.00    +0.000 A 
ATOM     22  C   UNL     1       2.084   6.016  20.306  0.00  0.00    +0.000 A 
ATOM     23  C   UNL     1       1.103   8.142  21.424  0.00  0.00    +0.000 C 
ATOM     24  C   UNL     1       0.554   9.352  20.651  0.00  0.00    +0.000 C 
ATOM     25  C   UNL     1       1.505   9.574  19.467  0.00  0.00    +0.000 C 
ENDBRANCH  14  17
ENDBRANCH   4  14
TORSDOF 5
ENDMDL
MODEL 7
REMARK VINA RESULT:      -7.1      1.025      1.777
REMARK  Name = 
REMARK  6 active torsions:
REMARK  status: ('A' for Active; 'I' for Inactive)
REMARK    1  A    between atoms: C_1  and  C_2
REMARK    2  A    between atoms: C_2  and  C_3
REMARK    3  A    between atoms: C_3  and  N_4
REMARK    4  A    between atoms: C_5  and  C_7
REMARK    5  A    between atoms: N_10  and  S_11
REMARK    6  A    between atoms: S_11  and  C_14
REMARK                            x       y       z     vdW  Elec       q    Type
REMARK                         _______ _______ _______ _____ _____    ______ ____
ROOT
ATOM      1  C   UNL     1       7.063   5.764  17.114  0.00  0.00    +0.000 C 
ATOM      2  C   UNL     1       6.907   5.127  18.500  0.00  0.00    +0.000 C 
ATOM      3  C   UNL     1       5.453   4.779  18.824  0.00  0.00    +0.000 C 
ATOM      4  N   UNL     1       4.574   5.979  18.686  0.00  0.00    +0.000 NA
ATOM      5  C   UNL     1       4.687   6.612  17.337  0.00  0.00    +0.000 C 
ATOM      6  C   UNL     1       6.137   6.979  17.024  0.00  0.00    +0.000 C 
ENDROOT
BRANCH   1   8
ATOM      7  N   UNL     1       7.197   5.158  14.742  0.00  0.00    +0.000 N 
ATOM      8  C   UNL     1       6.810   4.748  15.999  0.00  0.00    +0.000 C 
ATOM      9  O   UNL     1       6.320   3.642  16.206  0.00  0.00    +0.000 OA
ATOM     10  H   UNL     1       7.674   6.041  14.621  0.00  0.00    +0.000 HD
BRANCH   7  11
ATOM     11  C   UNL     1       6.950   4.340  13.570  0.00  0.00    +0.000 C 
BRANCH  11  13
ATOM     12  C   UNL     1       8.595   6.012  12.600  0.00  0.00    +0.000 C 
ATOM     13  C   UNL     1       7.558   4.940  12.300  0.00  0.00    +0.000 C 
ENDBRANCH  11  13
ENDBRANCH   7  11
ENDBRANCH   1   8
BRANCH   4  14
ATOM     14  S   UNL     1       2.912   5.647  19.070  0.00  0.00    +0.000 S 
ATOM     15  O   UNL     1       2.305   5.027  17.910  0.00  0.00    +0.000 OA
ATOM     16  O   UNL     1       2.891   4.991  20.361  0.00  0.00    +0.000 OA
BRANCH  14  17
ATOM     17  C   UNL     1       2.181   7.257  19.240  0.00  0.00    +0.000 A 
ATOM     18  C   UNL     1       2.094   8.105  18.117  0.00  0.00    +0.000 A 
ATOM     19  C   UNL     1       1.541   9.381  18.245  0.00  0.00    +0.000 A 
ATOM     20  C   UNL     1       1.062   9.768  19.485  0.00  0.00    +0.000 A 
ATOM     21  C   UNL     1       1.148   8.920  20.598  0.00  0.00    +0.000 A 
ATOM     22  C   UNL     1       1.727   7.666  20.499  0.00  0.00    +0.000 A 
ATOM     23  C   UNL     1       0.564   9.580  21.809  0.00  0.00    +0.000 C 
ATOM     24  C   UNL     1      -0.287  10.682  21.159  0.00  0.00    +0.000 C 
ATOM     25  C   UNL     1       0.434  11.076  19.864  0.00  0.00    +0.000 C 
ENDBRANCH  14  17
ENDBRANCH   4  14
TORSDOF 5
ENDMDL
MODEL 8
REMARK VINA RESULT:      -7.1      2.820      7.045
REMARK  Name = 
REMARK  6 active torsions:
REMARK  status: ('A' for Active; 'I' for Inactive)
REMARK    1  A    between atoms: C_1  and  C_2
REMARK    2  A    between atoms: C_2  and  C_3
REMARK    3  A    between atoms: C_3  and  N_4
REMARK    4  A    between atoms: C_5  and  C_7
REMARK    5  A    between atoms: N_10  and  S_11
REMARK    6  A    between atoms: S_11  and  C_14
REMARK                            x       y       z     vdW  Elec       q    Type
REMARK                         _______ _______ _______ _____ _____    ______ ____
ROOT
ATOM      1  C   UNL     1       2.179   5.950  18.791  0.00  0.00    +0.000 C 
ATOM      2  C   UNL     1       2.787   6.842  17.702  0.00  0.00    +0.000 C 
ATOM      3  C   UNL     1       4.182   6.379  17.277  0.00  0.00    +0.000 C 
ATOM      4  N   UNL     1       5.093   6.279  18.456  0.00  0.00    +0.000 NA
ATOM      5  C   UNL     1       4.538   5.399  19.529  0.00  0.00    +0.000 C 
ATOM      6  C   UNL     1       3.155   5.876  19.968  0.00  0.00    +0.000 C 
ENDROOT
BRANCH   1   8
ATOM      7  N   UNL     1       2.073   3.520  19.095  0.00  0.00    +0.000 N 
ATOM      8  C   UNL     1       1.812   4.570  18.244  0.00  0.00    +0.000 C 
ATOM      9  O   UNL     1       1.304   4.407  17.138  0.00  0.00    +0.000 OA
ATOM     10  H   UNL     1       2.413   3.698  20.031  0.00  0.00    +0.000 HD
BRANCH   7  11
ATOM     11  C   UNL     1       1.854   2.144  18.690  0.00  0.00    +0.000 C 
BRANCH  11  13
ATOM     12  C   UNL     1       4.274   1.669  19.294  0.00  0.00    +0.000 C 
ATOM     13  C   UNL     1       3.152   1.439  18.291  0.00  0.00    +0.000 C 
ENDBRANCH  11  13
ENDBRANCH   7  11
ENDBRANCH   1   8
BRANCH   4  14
ATOM     14  S   UNL     1       6.702   5.784  18.027  0.00  0.00    +0.000 S 
ATOM     15  O   UNL     1       7.499   6.980  17.844  0.00  0.00    +0.000 OA
ATOM     16  O   UNL     1       7.104   4.761  18.968  0.00  0.00    +0.000 OA
BRANCH  14  17
ATOM     17  C   UNL     1       6.510   5.039  16.426  0.00  0.00    +0.000 A 
ATOM     18  C   UNL     1       5.559   4.015  16.244  0.00  0.00    +0.000 A 
ATOM     19  C   UNL     1       5.416   3.406  14.994  0.00  0.00    +0.000 A 
ATOM     20  C   UNL     1       6.206   3.856  13.951  0.00  0.00    +0.000 A 
ATOM     21  C   UNL     1       7.149   4.876  14.136  0.00  0.00    +0.000 A 
ATOM     22  C   UNL     1       7.332   5.465  15.377  0.00  0.00    +0.000 A 
ATOM     23  C   UNL     1       7.870   5.167  12.856  0.00  0.00    +0.000 C 
ATOM     24  C   UNL     1       6.906   4.548  11.832  0.00  0.00    +0.000 C 
ATOM     25  C   UNL     1       6.234   3.361  12.536  0.00  0.00    +0.000 C 
ENDBRANCH  14  17
ENDBRANCH   4  14
TORSDOF 5
ENDMDL
MODEL 9
REMARK VINA RESULT:      -7.0      1.977      3.746
REMARK  Name = 
REMARK  6 active torsions:
REMARK  status: ('A' for Active; 'I' for Inactive)
REMARK    1  A    between atoms: C_1  and  C_2
REMARK    2  A    between atoms: C_2  and  C_3
REMARK    3  A    between atoms: C_3  and  N_4
REMARK    4  A    between atoms: C_5  and  C_7
REMARK    5  A    between atoms: N_10  and  S_11
REMARK    6  A    between atoms: S_11  and  C_14
REMARK                            x       y       z     vdW  Elec       q    Type
REMARK                         _______ _______ _______ _____ _____    ______ ____
ROOT
ATOM      1  C   UNL     1       6.943   6.008  16.566  0.00  0.00    +0.000 C 
ATOM      2  C   UNL     1       5.649   6.703  16.127  0.00  0.00    +0.000 C 
ATOM      3  C   UNL     1       4.525   6.555  17.154  0.00  0.00    +0.000 C 
ATOM      4  N   UNL     1       4.278   5.115  17.469  0.00  0.00    +0.000 NA
ATOM      5  C   UNL     1       5.517   4.413  17.921  0.00  0.00    +0.000 C 
ATOM      6  C   UNL     1       6.631   4.544  16.884  0.00  0.00    +0.000 C 
ENDROOT
BRANCH   1   8
ATOM      7  N   UNL     1       7.816   8.083  17.538  0.00  0.00    +0.000 N 
ATOM      8  C   UNL     1       7.599   6.738  17.740  0.00  0.00    +0.000 C 
ATOM      9  O   UNL     1       7.893   6.176  18.791  0.00  0.00    +0.000 OA
ATOM     10  H   UNL     1       7.484   8.529  16.693  0.00  0.00    +0.000 HD
BRANCH   7  11
ATOM     11  C   UNL     1       8.502   8.895  18.525  0.00  0.00    +0.000 C 
BRANCH  11  13
ATOM     12  C   UNL     1       9.808  11.039  18.900  0.00  0.00    +0.000 C 
ATOM     13  C   UNL     1       8.830  10.295  18.002  0.00  0.00    +0.000 C 
ENDBRANCH  11  13
ENDBRANCH   7  11
ENDBRANCH   1   8
BRANCH   4  14
ATOM     14  S   UNL     1       2.990   4.885  18.612  0.00  0.00    +0.000 S 
ATOM     15  O   UNL     1       1.940   4.139  17.950  0.00  0.00    +0.000 OA
ATOM     16  O   UNL     1       3.584   4.402  19.840  0.00  0.00    +0.000 OA
BRANCH  14  17
ATOM     17  C   UNL     1       2.365   6.524  18.891  0.00  0.00    +0.000 A 
ATOM     18  C   UNL     1       2.170   7.392  17.797  0.00  0.00    +0.000 A 
ATOM     19  C   UNL     1       1.700   8.690  18.008  0.00  0.00    +0.000 A 
ATOM     20  C   UNL     1       1.409   9.081  19.304  0.00  0.00    +0.000 A 
ATOM     21  C   UNL     1       1.602   8.213  20.388  0.00  0.00    +0.000 A 
ATOM     22  C   UNL     1       2.102   6.936  20.202  0.00  0.00    +0.000 A 
ATOM     23  C   UNL     1       1.216   8.882  21.672  0.00  0.00    +0.000 C 
ATOM     24  C   UNL     1       0.340  10.031  21.151  0.00  0.00    +0.000 C 
ATOM     25  C   UNL     1       0.901  10.410  19.774  0.00  0.00    +0.000 C 
ENDBRANCH  14  17
ENDBRANCH   4  14
TORSDOF 5
ENDMDL
