MODEL 1
REMARK VINA RESULT:      -6.0      0.000      0.000
REMARK  Name = 
REMARK  5 active torsions:
REMARK  status: ('A' for Active; 'I' for Inactive)
REMARK    1  A    between atoms: C_1  and  O_2
REMARK    2  A    between atoms: O_2  and  C_3
REMARK    3  A    between atoms: C_3  and  N_4
REMARK    4  A    between atoms: N_11  and  C_12
REMARK    5  A    between atoms: N_13  and  C_14
REMARK                            x       y       z     vdW  Elec       q    Type
REMARK                         _______ _______ _______ _____ _____    ______ ____
ROOT
ATOM      1  N   UNL     1       5.228   4.993  18.336  0.00  0.00    +0.000 N 
ATOM      2  C   UNL     1       4.620   4.072  19.197  0.00  0.00    +0.000 A 
ATOM      3  O   UNL     1       5.039   2.951  19.446  0.00  0.00    +0.000 OA
ATOM      4  C   UNL     1       3.393   4.556  19.738  0.00  0.00    +0.000 A 
ATOM      5  C   UNL     1       2.821   5.731  19.372  0.00  0.00    +0.000 A 
ATOM      6  N   UNL     1       1.643   5.947  20.023  0.00  0.00    +0.000 NA
ATOM      7  C   UNL     1       1.502   4.893  20.803  0.00  0.00    +0.000 A 
ATOM      8  N   UNL     1       2.545   4.018  20.665  0.00  0.00    +0.000 N 
ATOM      9  C   UNL     1       2.727   2.776  21.374  0.00  0.00    +0.000 C 
ATOM     10  N   UNL     1       3.406   6.545  18.430  0.00  0.00    +0.000 N 
ATOM     11  C   UNL     1       2.794   7.782  17.991  0.00  0.00    +0.000 C 
ATOM     12  C   UNL     1       4.628   6.170  17.867  0.00  0.00    +0.000 A 
ATOM     13  O   UNL     1       5.134   6.841  16.958  0.00  0.00    +0.000 OA
ENDROOT
BRANCH   1  14
ATOM     14  C   UNL     1       6.462   4.617  17.680  0.00  0.00    +0.000 C 
BRANCH  14  16
ATOM     15  C   UNL     1       7.898   5.911  19.034  0.00  0.00    +0.000 C 
ATOM     16  O   UNL     1       7.538   4.595  18.620  0.00  0.00    +0.000 OA
ENDBRANCH  14  16
ENDBRANCH   1  14
TORSDOF 2
ENDMDL
MODEL 2
REMARK VINA RESULT:      -5.9      2.327      3.375
REMARK  Name = 
REMARK  5 active torsions:
REMARK  status: ('A' for Active; 'I' for Inactive)
REMARK    1  A    between atoms: C_1  and  O_2
REMARK    2  A    between atoms: O_2  and  C_3
REMARK    3  A    between atoms: C_3  and  N_4
REMARK    4  A    between atoms: N_11  and  C_12
REMARK    5  A    between atoms: N_13  and  C_14
REMARK                            x       y       z     vdW  Elec       q    Type
REMARK                         _______ _______ _______ _____ _____    ______ ____
ROOT
ATOM      1  N   UNL     1       6.626   5.877  17.451  0.00  0.00    +0.000 N 
ATOM      2  C   UNL     1       5.780   5.404  18.461  0.00  0.00    +0.000 A 
ATOM      3  O   UNL     1       5.888   5.654  19.652  0.00  0.00    +0.000 OA
ATOM      4  C   UNL     1       4.771   4.528  17.963  0.00  0.00    +0.000 A 
ATOM      5  C   UNL     1       4.708   4.109  16.673  0.00  0.00    +0.000 A 
ATOM      6  N   UNL     1       3.662   3.259  16.466  0.00  0.00    +0.000 NA
ATOM      7  C   UNL     1       3.075   3.169  17.643  0.00  0.00    +0.000 A 
ATOM      8  N   UNL     1       3.716   3.925  18.588  0.00  0.00    +0.000 N 
ATOM      9  C   UNL     1       3.338   4.076  19.971  0.00  0.00    +0.000 C 
ATOM     10  N   UNL     1       5.639   4.515  15.746  0.00  0.00    +0.000 N 
ATOM     11  C   UNL     1       5.619   4.049  14.376  0.00  0.00    +0.000 C 
ATOM     12  C   UNL     1       6.647   5.401  16.133  0.00  0.00    +0.000 A 
ATOM     13  O   UNL     1       7.545   5.717  15.342  0.00  0.00    +0.000 OA
ENDROOT
BRANCH   1  14
ATOM     14  C   UNL     1       7.723   6.746  17.820  0.00  0.00    +0.000 C 
BRANCH  14  16
ATOM     15  C   UNL     1       8.261   9.033  18.048  0.00  0.00    +0.000 C 
ATOM     16  O   UNL     1       7.500   8.068  17.325  0.00  0.00    +0.000 OA
ENDBRANCH  14  16
ENDBRANCH   1  14
TORSDOF 2
ENDMDL
MODEL 3
REMARK VINA RESULT:      -5.8      0.947      1.274
REMARK  Name = 
REMARK  5 active torsions:
REMARK  status: ('A' for Active; 'I' for Inactive)
REMARK    1  A    between atoms: C_1  and  O_2
REMARK    2  A    between atoms: O_2  and  C_3
REMARK    3  A    between atoms: C_3  and  N_4
REMARK    4  A    between atoms: N_11  and  C_12
REMARK    5  A    between atoms: N_13  and  C_14
REMARK                            x       y       z     vdW  Elec       q    Type
REMARK                         _______ _______ _______ _____ _____    ______ ____
ROOT
ATOM      1  N   UNL     1       5.242   5.055  18.205  0.00  0.00    +0.000 N 
ATOM      2  C   UNL     1       4.671   4.114  19.069  0.00  0.00    +0.000 A 
ATOM      3  O   UNL     1       5.102   2.991  19.280  0.00  0.00    +0.000 OA
ATOM      4  C   UNL     1       3.464   4.583  19.667  0.00  0.00    +0.000 A 
ATOM      5  C   UNL     1       2.874   5.762  19.346  0.00  0.00    +0.000 A 
ATOM      6  N   UNL     1       1.720   5.959  20.045  0.00  0.00    +0.000 NA
ATOM      7  C   UNL     1       1.613   4.890  20.809  0.00  0.00    +0.000 A 
ATOM      8  N   UNL     1       2.653   4.022  20.613  0.00  0.00    +0.000 N 
ATOM      9  C   UNL     1       2.866   2.767  21.290  0.00  0.00    +0.000 C 
ATOM     10  N   UNL     1       3.419   6.598  18.400  0.00  0.00    +0.000 N 
ATOM     11  C   UNL     1       2.787   7.840  18.009  0.00  0.00    +0.000 C 
ATOM     12  C   UNL     1       4.620   6.239  17.783  0.00  0.00    +0.000 A 
ATOM     13  O   UNL     1       5.090   6.930  16.870  0.00  0.00    +0.000 OA
ENDROOT
BRANCH   1  14
ATOM     14  C   UNL     1       6.452   4.697  17.496  0.00  0.00    +0.000 C 
BRANCH  14  16
ATOM     15  C   UNL     1       6.854   4.469  15.181  0.00  0.00    +0.000 C 
ATOM     16  O   UNL     1       6.135   3.970  16.307  0.00  0.00    +0.000 OA
ENDBRANCH  14  16
ENDBRANCH   1  14
TORSDOF 2
ENDMDL
MODEL 4
REMARK VINA RESULT:      -5.7      2.254      3.850
REMARK  Name = 
REMARK  5 active torsions:
REMARK  status: ('A' for Active; 'I' for Inactive)
REMARK    1  A    between atoms: C_1  and  O_2
REMARK    2  A    between atoms: O_2  and  C_3
REMARK    3  A    between atoms: C_3  and  N_4
REMARK    4  A    between atoms: N_11  and  C_12
REMARK    5  A    between atoms: N_13  and  C_14
REMARK                            x       y       z     vdW  Elec       q    Type
REMARK                         _______ _______ _______ _____ _____    ______ ____
ROOT
ATOM      1  N   UNL     1       3.096   6.273  18.227  0.00  0.00    +0.000 N 
ATOM      2  C   UNL     1       2.490   5.417  19.154  0.00  0.00    +0.000 A 
ATOM      3  O   UNL     1       1.836   5.771  20.124  0.00  0.00    +0.000 OA
ATOM      4  C   UNL     1       2.757   4.043  18.886  0.00  0.00    +0.000 A 
ATOM      5  C   UNL     1       3.598   3.617  17.909  0.00  0.00    +0.000 A 
ATOM      6  N   UNL     1       3.693   2.257  17.879  0.00  0.00    +0.000 NA
ATOM      7  C   UNL     1       2.891   1.850  18.843  0.00  0.00    +0.000 A 
ATOM      8  N   UNL     1       2.297   2.904  19.486  0.00  0.00    +0.000 N 
ATOM      9  C   UNL     1       1.353   2.829  20.572  0.00  0.00    +0.000 C 
ATOM     10  N   UNL     1       4.260   4.509  17.100  0.00  0.00    +0.000 N 
ATOM     11  C   UNL     1       5.195   4.081  16.080  0.00  0.00    +0.000 C 
ATOM     12  C   UNL     1       4.037   5.878  17.265  0.00  0.00    +0.000 A 
ATOM     13  O   UNL     1       4.681   6.705  16.608  0.00  0.00    +0.000 OA
ENDROOT
BRANCH   1  14
ATOM     14  C   UNL     1       2.943   7.701  18.402  0.00  0.00    +0.000 C 
BRANCH  14  16
ATOM     15  C   UNL     1       1.526   9.539  17.966  0.00  0.00    +0.000 C 
ATOM     16  O   UNL     1       1.814   8.175  17.664  0.00  0.00    +0.000 OA
ENDBRANCH  14  16
ENDBRANCH   1  14
TORSDOF 2
ENDMDL
MODEL 5
REMARK VINA RESULT:      -5.6      1.798      4.235
REMARK  Name = 
REMARK  5 active torsions:
REMARK  status: ('A' for Active; 'I' for Inactive)
REMARK    1  A    between atoms: C_1  and  O_2
REMARK    2  A    between atoms: O_2  and  C_3
REMARK    3  A    between atoms: C_3  and  N_4
REMARK    4  A    between atoms: N_11  and  C_12
REMARK    5  A    between atoms: N_13  and  C_14
REMARK                            x       y       z     vdW  Elec       q    Type
REMARK                         _______ _______ _______ _____ _____    ______ ____
ROOT
ATOM      1  N   UNL     1       3.433   4.403  19.545  0.00  0.00    +0.000 N 
ATOM      2  C   UNL     1       4.757   4.224  19.129  0.00  0.00    +0.000 A 
ATOM      3  O   UNL     1       5.493   3.313  19.477  0.00  0.00    +0.000 OA
ATOM      4  C   UNL     1       5.206   5.269  18.268  0.00  0.00    +0.000 A 
ATOM      5  C   UNL     1       4.470   6.372  17.978  0.00  0.00    +0.000 A 
ATOM      6  N   UNL     1       5.140   7.225  17.151  0.00  0.00    +0.000 NA
ATOM      7  C   UNL     1       6.293   6.627  16.928  0.00  0.00    +0.000 A 
ATOM      8  N   UNL     1       6.380   5.431  17.588  0.00  0.00    +0.000 N 
ATOM      9  C   UNL     1       7.486   4.508  17.556  0.00  0.00    +0.000 C 
ATOM     10  N   UNL     1       3.215   6.553  18.511  0.00  0.00    +0.000 N 
ATOM     11  C   UNL     1       2.429   7.740  18.250  0.00  0.00    +0.000 C 
ATOM     12  C   UNL     1       2.676   5.566  19.339  0.00  0.00    +0.000 A 
ATOM     13  O   UNL     1       1.586   5.739  19.898  0.00  0.00    +0.000 OA
ENDROOT
BRANCH   1  14
ATOM     14  C   UNL     1       2.858   3.437  20.457  0.00  0.00    +0.000 C 
BRANCH  14  16
ATOM     15  C   UNL     1       1.201   2.302  19.217  0.00  0.00    +0.000 C 
ATOM     16  O   UNL     1       2.517   2.236  19.760  0.00  0.00    +0.000 OA
ENDBRANCH  14  16
ENDBRANCH   1  14
TORSDOF 2
ENDMDL
MODEL 6
REMARK VINA RESULT:      -5.6      2.352      4.384
REMARK  Name = 
REMARK  5 active torsions:
REMARK  status: ('A' for Active; 'I' for Inactive)
REMARK    1  A    between atoms: C_1  and  O_2
REMARK    2  A    between atoms: O_2  and  C_3
REMARK    3  A    between atoms: C_3  and  N_4
REMARK    4  A    between atoms: N_11  and  C_12
REMARK    5  A    between atoms: N_13  and  C_14
REMARK                            x       y       z     vdW  Elec       q    Type
REMARK                         _______ _______ _______ _____ _____    ______ ____
ROOT
ATOM      1  N   UNL     1       2.547   3.886  18.709  0.00  0.00    +0.000 N 
ATOM      2  C   UNL     1       3.602   3.580  17.842  0.00  0.00    +0.000 A 
ATOM      3  O   UNL     1       4.050   2.462  17.635  0.00  0.00    +0.000 OA
ATOM      4  C   UNL     1       4.166   4.742  17.237  0.00  0.00    +0.000 A 
ATOM      5  C   UNL     1       3.797   6.009  17.553  0.00  0.00    +0.000 A 
ATOM      6  N   UNL     1       4.505   6.935  16.846  0.00  0.00    +0.000 NA
ATOM      7  C   UNL     1       5.309   6.221  16.083  0.00  0.00    +0.000 A 
ATOM      8  N   UNL     1       5.138   4.878  16.286  0.00  0.00    +0.000 N 
ATOM      9  C   UNL     1       5.833   3.810  15.612  0.00  0.00    +0.000 C 
ATOM     10  N   UNL     1       2.832   6.255  18.501  0.00  0.00    +0.000 N 
ATOM     11  C   UNL     1       2.451   7.597  18.887  0.00  0.00    +0.000 C 
ATOM     12  C   UNL     1       2.198   5.178  19.126  0.00  0.00    +0.000 A 
ATOM     13  O   UNL     1       1.387   5.369  20.041  0.00  0.00    +0.000 OA
ENDROOT
BRANCH   1  14
ATOM     14  C   UNL     1       1.906   2.803  19.426  0.00  0.00    +0.000 C 
BRANCH  14  16
ATOM     15  C   UNL     1       1.766   2.516  21.764  0.00  0.00    +0.000 C 
ATOM     16  O   UNL     1       2.624   2.508  20.626  0.00  0.00    +0.000 OA
ENDBRANCH  14  16
ENDBRANCH   1  14
TORSDOF 2
ENDMDL
MODEL 7
REMARK VINA RESULT:      -5.5      1.817      2.126
REMARK  Name = 
REMARK  5 active torsions:
REMARK  status: ('A' for Active; 'I' for Inactive)
REMARK    1  A    between atoms: C_1  and  O_2
REMARK    2  A    between atoms: O_2  and  C_3
REMARK    3  A    between atoms: C_3  and  N_4
REMARK    4  A    between atoms: N_11  and  C_12
REMARK    5  A    between atoms: N_13  and  C_14
REMARK                            x       y       z     vdW  Elec       q    Type
REMARK                         _______ _______ _______ _____ _____    ______ ____
ROOT
ATOM      1  N   UNL     1       4.391   5.792  17.211  0.00  0.00    +0.000 N 
ATOM      2  C   UNL     1       4.271   4.402  17.329  0.00  0.00    +0.000 A 
ATOM      3  O   UNL     1       4.744   3.581  16.557  0.00  0.00    +0.000 OA
ATOM      4  C   UNL     1       3.471   4.015  18.444  0.00  0.00    +0.000 A 
ATOM      5  C   UNL     1       2.807   4.896  19.235  0.00  0.00    +0.000 A 
ATOM      6  N   UNL     1       2.100   4.264  20.215  0.00  0.00    +0.000 NA
ATOM      7  C   UNL     1       2.346   2.983  20.023  0.00  0.00    +0.000 A 
ATOM      8  N   UNL     1       3.178   2.782  18.955  0.00  0.00    +0.000 N 
ATOM      9  C   UNL     1       3.669   1.515  18.472  0.00  0.00    +0.000 C 
ATOM     10  N   UNL     1       2.867   6.249  19.001  0.00  0.00    +0.000 N 
ATOM     11  C   UNL     1       2.133   7.205  19.803  0.00  0.00    +0.000 C 
ATOM     12  C   UNL     1       3.653   6.727  17.949  0.00  0.00    +0.000 A 
ATOM     13  O   UNL     1       3.659   7.931  17.664  0.00  0.00    +0.000 OA
ENDROOT
BRANCH   1  14
ATOM     14  C   UNL     1       5.143   6.328  16.096  0.00  0.00    +0.000 C 
BRANCH  14  16
ATOM     15  C   UNL     1       7.071   6.985  17.289  0.00  0.00    +0.000 C 
ATOM     16  O   UNL     1       6.542   6.115  16.291  0.00  0.00    +0.000 OA
ENDBRANCH  14  16
ENDBRANCH   1  14
TORSDOF 2
ENDMDL
MODEL 8
REMARK VINA RESULT:      -5.5      2.121      4.409
REMARK  Name = 
REMARK  5 active torsions:
REMARK  status: ('A' for Active; 'I' for Inactive)
REMARK    1  A    between atoms: C_1  and  O_2
REMARK    2  A    between atoms: O_2  and  C_3
REMARK    3  A    between atoms: C_3  and  N_4
REMARK    4  A    between atoms: N_11  and  C_12
REMARK    5  A    between atoms: N_13  and  C_14
REMARK                            x       y       z     vdW  Elec       q    Type
REMARK                         _______ _______ _______ _____ _____    ______ ____
ROOT
ATOM      1  N   UNL     1       2.715   4.214  19.523  0.00  0.00    +0.000 N 
ATOM      2  C   UNL     1       3.729   3.909  18.608  0.00  0.00    +0.000 A 
ATOM      3  O   UNL     1       4.287   2.827  18.504  0.00  0.00    +0.000 OA
ATOM      4  C   UNL     1       4.104   5.031  17.813  0.00  0.00    +0.000 A 
ATOM      5  C   UNL     1       3.614   6.283  18.000  0.00  0.00    +0.000 A 
ATOM      6  N   UNL     1       4.153   7.175  17.120  0.00  0.00    +0.000 NA
ATOM      7  C   UNL     1       4.973   6.453  16.382  0.00  0.00    +0.000 A 
ATOM      8  N   UNL     1       4.977   5.139  16.767  0.00  0.00    +0.000 N 
ATOM      9  C   UNL     1       5.739   4.070  16.172  0.00  0.00    +0.000 C 
ATOM     10  N   UNL     1       2.703   6.550  18.995  0.00  0.00    +0.000 N 
ATOM     11  C   UNL     1       2.199   7.885  19.241  0.00  0.00    +0.000 C 
ATOM     12  C   UNL     1       2.250   5.507  19.805  0.00  0.00    +0.000 A 
ATOM     13  O   UNL     1       1.496   5.733  20.759  0.00  0.00    +0.000 OA
ENDROOT
BRANCH   1  14
ATOM     14  C   UNL     1       2.263   3.177  20.427  0.00  0.00    +0.000 C 
BRANCH  14  16
ATOM     15  C   UNL     1       0.774   2.248  18.848  0.00  0.00    +0.000 C 
ATOM     16  O   UNL     1       0.907   2.827  20.144  0.00  0.00    +0.000 OA
ENDBRANCH  14  16
ENDBRANCH   1  14
TORSDOF 2
ENDMDL
MODEL 9
REMARK VINA RESULT:      -5.5      1.805      1.932
REMARK  Name = 
REMARK  5 active torsions:
REMARK  status: ('A' for Active; 'I' for Inactive)
REMARK    1  A    between atoms: C_1  and  O_2
REMARK    2  A    between atoms: O_2  and  C_3
REMARK    3  A    between atoms: C_3  and  N_4
REMARK    4  A    between atoms: N_11  and  C_12
REMARK    5  A    between atoms: N_13  and  C_14
REMARK                            x       y       z     vdW  Elec       q    Type
REMARK                         _______ _______ _______ _____ _____    ______ ____
ROOT
ATOM      1  N   UNL     1       3.944   5.528  17.565  0.00  0.00    +0.000 N 
ATOM      2  C   UNL     1       3.488   4.231  17.828  0.00  0.00    +0.000 A 
ATOM      3  O   UNL     1       3.778   3.234  17.185  0.00  0.00    +0.000 OA
ATOM      4  C   UNL     1       2.578   4.184  18.925  0.00  0.00    +0.000 A 
ATOM      5  C   UNL     1       2.117   5.286  19.568  0.00  0.00    +0.000 A 
ATOM      6  N   UNL     1       1.242   4.964  20.563  0.00  0.00    +0.000 NA
ATOM      7  C   UNL     1       1.180   3.648  20.531  0.00  0.00    +0.000 A 
ATOM      8  N   UNL     1       1.978   3.127  19.548  0.00  0.00    +0.000 N 
ATOM      9  C   UNL     1       2.166   1.731  19.243  0.00  0.00    +0.000 C 
ATOM     10  N   UNL     1       2.509   6.549  19.189  0.00  0.00    +0.000 N 
ATOM     11  C   UNL     1       1.998   7.742  19.831  0.00  0.00    +0.000 C 
ATOM     12  C   UNL     1       3.425   6.695  18.145  0.00  0.00    +0.000 A 
ATOM     13  O   UNL     1       3.732   7.819  17.729  0.00  0.00    +0.000 OA
ENDROOT
BRANCH   1  14
ATOM     14  C   UNL     1       4.843   5.732  16.449  0.00  0.00    +0.000 C 
BRANCH  14  16
ATOM     15  C   UNL     1       6.918   4.700  15.997  0.00  0.00    +0.000 C 
ATOM     16  O   UNL     1       6.200   5.571  16.868  0.00  0.00    +0.000 OA
ENDBRANCH  14  16
ENDBRANCH   1  14
TORSDOF 2
ENDMDL
