MODEL 1
REMARK VINA RESULT:      -6.6      0.000      0.000
REMARK  Name = 
REMARK  3 active torsions:
REMARK  status: ('A' for Active; 'I' for Inactive)
REMARK    1  A    between atoms: C_1  and  C_2
REMARK    2  A    between atoms: C_2  and  N_3
REMARK    3  A    between atoms: N_7  and  C_8
REMARK                            x       y       z     vdW  Elec       q    Type
REMARK                         _______ _______ _______ _____ _____    ______ ____
ROOT
ATOM      1  N   UNL     1       5.791   4.270  16.337  0.00  0.00    +0.000 N 
ATOM      2  S   UNL     1       7.072   4.913  17.217  0.00  0.00    +0.000 S 
ATOM      3  C   UNL     1       6.151   4.822  18.720  0.00  0.00    +0.000 A 
ATOM      4  O   UNL     1       6.666   5.150  19.776  0.00  0.00    +0.000 OA
ATOM      5  N   UNL     1       4.894   4.301  18.457  0.00  0.00    +0.000 N 
ATOM      6  C   UNL     1       4.677   3.971  17.112  0.00  0.00    +0.000 A 
ATOM      7  O   UNL     1       3.656   3.509  16.610  0.00  0.00    +0.000 OA
ENDROOT
BRANCH   5   8
ATOM      8  C   UNL     1       3.913   4.093  19.485  0.00  0.00    +0.000 A 
ATOM      9  C   UNL     1       3.752   2.842  20.106  0.00  0.00    +0.000 A 
ATOM     10  C   UNL     1       2.784   2.633  21.095  0.00  0.00    +0.000 A 
ATOM     11  C   UNL     1       1.947   3.671  21.484  0.00  0.00    +0.000 A 
ATOM     12  C   UNL     1       2.087   4.919  20.893  0.00  0.00    +0.000 A 
ATOM     13  C   UNL     1       3.060   5.127  19.910  0.00  0.00    +0.000 A 
ENDBRANCH   5   8
BRANCH   1  15
ATOM     14  C   UNL     1       7.000   4.821  14.263  0.00  0.00    +0.000 C 
ATOM     15  C   UNL     1       5.882   4.023  14.914  0.00  0.00    +0.000 C 
ENDBRANCH   1  15
TORSDOF 2
ENDMDL
MODEL 2
REMARK VINA RESULT:      -6.6      0.038      1.238
REMARK  Name = 
REMARK  3 active torsions:
REMARK  status: ('A' for Active; 'I' for Inactive)
REMARK    1  A    between atoms: C_1  and  C_2
REMARK    2  A    between atoms: C_2  and  N_3
REMARK    3  A    between atoms: N_7  and  C_8
REMARK                            x       y       z     vdW  Elec       q    Type
REMARK                         _______ _______ _______ _____ _____    ______ ____
ROOT
ATOM      1  N   UNL     1       5.825   4.264  16.361  0.00  0.00    +0.000 N 
ATOM      2  S   UNL     1       7.093   4.904  17.262  0.00  0.00    +0.000 S 
ATOM      3  C   UNL     1       6.146   4.814  18.749  0.00  0.00    +0.000 A 
ATOM      4  O   UNL     1       6.644   5.141  19.814  0.00  0.00    +0.000 OA
ATOM      5  N   UNL     1       4.893   4.297  18.465  0.00  0.00    +0.000 N 
ATOM      6  C   UNL     1       4.697   3.968  17.116  0.00  0.00    +0.000 A 
ATOM      7  O   UNL     1       3.684   3.508  16.597  0.00  0.00    +0.000 OA
ENDROOT
BRANCH   5   8
ATOM      8  C   UNL     1       3.893   4.092  19.476  0.00  0.00    +0.000 A 
ATOM      9  C   UNL     1       3.043   5.133  19.889  0.00  0.00    +0.000 A 
ATOM     10  C   UNL     1       2.080   4.941  20.887  0.00  0.00    +0.000 A 
ATOM     11  C   UNL     1       1.948   3.703  21.502  0.00  0.00    +0.000 A 
ATOM     12  C   UNL     1       2.770   2.655  21.110  0.00  0.00    +0.000 A 
ATOM     13  C   UNL     1       3.727   2.848  20.107  0.00  0.00    +0.000 A 
ENDBRANCH   5   8
BRANCH   1  15
ATOM     14  C   UNL     1       7.016   4.873  14.292  0.00  0.00    +0.000 C 
ATOM     15  C   UNL     1       5.940   4.016  14.939  0.00  0.00    +0.000 C 
ENDBRANCH   1  15
TORSDOF 2
ENDMDL
MODEL 3
REMARK VINA RESULT:      -6.4      2.101      3.339
REMARK  Name = 
REMARK  3 active torsions:
REMARK  status: ('A' for Active; 'I' for Inactive)
REMARK    1  A    between atoms: C_1  and  C_2
REMARK    2  A    between atoms: C_2  and  N_3
REMARK    3  A    between atoms: N_7  and  C_8
REMARK                            x       y       z     vdW  Elec       q    Type
REMARK                         _______ _______ _______ _____ _____    ______ ____
ROOT
ATOM      1  N   UNL     1       6.878   5.762  17.817  0.00  0.00    +0.000 N 
ATOM      2  S   UNL     1       7.009   5.397  16.180  0.00  0.00    +0.000 S 
ATOM      3  C   UNL     1       5.504   4.474  16.215  0.00  0.00    +0.000 A 
ATOM      4  O   UNL     1       5.064   3.980  15.190  0.00  0.00    +0.000 OA
ATOM      5  N   UNL     1       4.983   4.494  17.498  0.00  0.00    +0.000 N 
ATOM      6  C   UNL     1       5.743   5.230  18.418  0.00  0.00    +0.000 A 
ATOM      7  O   UNL     1       5.516   5.397  19.613  0.00  0.00    +0.000 OA
ENDROOT
BRANCH   5   8
ATOM      8  C   UNL     1       3.753   3.837  17.844  0.00  0.00    +0.000 A 
ATOM      9  C   UNL     1       2.521   4.511  17.792  0.00  0.00    +0.000 A 
ATOM     10  C   UNL     1       1.323   3.878  18.146  0.00  0.00    +0.000 A 
ATOM     11  C   UNL     1       1.330   2.554  18.566  0.00  0.00    +0.000 A 
ATOM     12  C   UNL     1       2.532   1.862  18.621  0.00  0.00    +0.000 A 
ATOM     13  C   UNL     1       3.726   2.495  18.260  0.00  0.00    +0.000 A 
ENDBRANCH   5   8
BRANCH   1  15
ATOM     14  C   UNL     1       7.955   7.975  17.887  0.00  0.00    +0.000 C 
ATOM     15  C   UNL     1       7.849   6.589  18.501  0.00  0.00    +0.000 C 
ENDBRANCH   1  15
TORSDOF 2
ENDMDL
MODEL 4
REMARK VINA RESULT:      -6.4      2.094      3.109
REMARK  Name = 
REMARK  3 active torsions:
REMARK  status: ('A' for Active; 'I' for Inactive)
REMARK    1  A    between atoms: C_1  and  C_2
REMARK    2  A    between atoms: C_2  and  N_3
REMARK    3  A    between atoms: N_7  and  C_8
REMARK                            x       y       z     vdW  Elec       q    Type
REMARK                         _______ _______ _______ _____ _____    ______ ____
ROOT
ATOM      1  N   UNL     1       6.903   5.782  17.844  0.00  0.00    +0.000 N 
ATOM      2  S   UNL     1       7.027   5.405  16.210  0.00  0.00    +0.000 S 
ATOM      3  C   UNL     1       5.520   4.485  16.257  0.00  0.00    +0.000 A 
ATOM      4  O   UNL     1       5.075   3.985  15.238  0.00  0.00    +0.000 OA
ATOM      5  N   UNL     1       5.004   4.516  17.543  0.00  0.00    +0.000 N 
ATOM      6  C   UNL     1       5.769   5.257  18.454  0.00  0.00    +0.000 A 
ATOM      7  O   UNL     1       5.548   5.434  19.649  0.00  0.00    +0.000 OA
ENDROOT
BRANCH   5   8
ATOM      8  C   UNL     1       3.774   3.864  17.897  0.00  0.00    +0.000 A 
ATOM      9  C   UNL     1       3.752   2.535  18.352  0.00  0.00    +0.000 A 
ATOM     10  C   UNL     1       2.553   1.891  18.681  0.00  0.00    +0.000 A 
ATOM     11  C   UNL     1       1.344   2.562  18.558  0.00  0.00    +0.000 A 
ATOM     12  C   UNL     1       1.335   3.879  18.117  0.00  0.00    +0.000 A 
ATOM     13  C   UNL     1       2.536   4.521  17.795  0.00  0.00    +0.000 A 
ENDBRANCH   5   8
BRANCH   1  15
ATOM     14  C   UNL     1       7.977   7.997  17.902  0.00  0.00    +0.000 C 
ATOM     15  C   UNL     1       7.879   6.612  18.519  0.00  0.00    +0.000 C 
ENDBRANCH   1  15
TORSDOF 2
ENDMDL
MODEL 5
REMARK VINA RESULT:      -6.3      1.520      2.766
REMARK  Name = 
REMARK  3 active torsions:
REMARK  status: ('A' for Active; 'I' for Inactive)
REMARK    1  A    between atoms: C_1  and  C_2
REMARK    2  A    between atoms: C_2  and  N_3
REMARK    3  A    between atoms: N_7  and  C_8
REMARK                            x       y       z     vdW  Elec       q    Type
REMARK                         _______ _______ _______ _____ _____    ______ ____
ROOT
ATOM      1  N   UNL     1       6.145   4.746  17.578  0.00  0.00    +0.000 N 
ATOM      2  S   UNL     1       5.320   4.232  16.205  0.00  0.00    +0.000 S 
ATOM      3  C   UNL     1       3.934   3.717  17.171  0.00  0.00    +0.000 A 
ATOM      4  O   UNL     1       2.939   3.268  16.625  0.00  0.00    +0.000 OA
ATOM      5  N   UNL     1       4.189   3.967  18.509  0.00  0.00    +0.000 N 
ATOM      6  C   UNL     1       5.434   4.561  18.758  0.00  0.00    +0.000 A 
ATOM      7  O   UNL     1       5.912   4.874  19.845  0.00  0.00    +0.000 OA
ENDROOT
BRANCH   5   8
ATOM      8  C   UNL     1       3.242   3.665  19.546  0.00  0.00    +0.000 A 
ATOM      9  C   UNL     1       2.032   4.369  19.663  0.00  0.00    +0.000 A 
ATOM     10  C   UNL     1       1.116   4.089  20.684  0.00  0.00    +0.000 A 
ATOM     11  C   UNL     1       1.391   3.100  21.618  0.00  0.00    +0.000 A 
ATOM     12  C   UNL     1       2.577   2.383  21.524  0.00  0.00    +0.000 A 
ATOM     13  C   UNL     1       3.487   2.660  20.498  0.00  0.00    +0.000 A 
ENDBRANCH   5   8
BRANCH   1  15
ATOM     14  C   UNL     1       7.376   6.872  17.413  0.00  0.00    +0.000 C 
ATOM     15  C   UNL     1       7.455   5.358  17.504  0.00  0.00    +0.000 C 
ENDBRANCH   1  15
TORSDOF 2
ENDMDL
MODEL 6
REMARK VINA RESULT:      -6.3      1.462      2.494
REMARK  Name = 
REMARK  3 active torsions:
REMARK  status: ('A' for Active; 'I' for Inactive)
REMARK    1  A    between atoms: C_1  and  C_2
REMARK    2  A    between atoms: C_2  and  N_3
REMARK    3  A    between atoms: N_7  and  C_8
REMARK                            x       y       z     vdW  Elec       q    Type
REMARK                         _______ _______ _______ _____ _____    ______ ____
ROOT
ATOM      1  N   UNL     1       6.203   4.901  17.567  0.00  0.00    +0.000 N 
ATOM      2  S   UNL     1       5.385   4.374  16.195  0.00  0.00    +0.000 S 
ATOM      3  C   UNL     1       4.005   3.843  17.162  0.00  0.00    +0.000 A 
ATOM      4  O   UNL     1       3.017   3.381  16.618  0.00  0.00    +0.000 OA
ATOM      5  N   UNL     1       4.257   4.100  18.500  0.00  0.00    +0.000 N 
ATOM      6  C   UNL     1       5.494   4.710  18.747  0.00  0.00    +0.000 A 
ATOM      7  O   UNL     1       5.968   5.031  19.834  0.00  0.00    +0.000 OA
ENDROOT
BRANCH   5   8
ATOM      8  C   UNL     1       3.314   3.789  19.538  0.00  0.00    +0.000 A 
ATOM      9  C   UNL     1       3.490   2.678  20.381  0.00  0.00    +0.000 A 
ATOM     10  C   UNL     1       2.562   2.362  21.381  0.00  0.00    +0.000 A 
ATOM     11  C   UNL     1       1.431   3.148  21.558  0.00  0.00    +0.000 A 
ATOM     12  C   UNL     1       1.234   4.254  20.744  0.00  0.00    +0.000 A 
ATOM     13  C   UNL     1       2.167   4.572  19.750  0.00  0.00    +0.000 A 
ENDBRANCH   5   8
BRANCH   1  15
ATOM     14  C   UNL     1       7.408   7.043  17.412  0.00  0.00    +0.000 C 
ATOM     15  C   UNL     1       7.505   5.529  17.492  0.00  0.00    +0.000 C 
ENDBRANCH   1  15
TORSDOF 2
ENDMDL
MODEL 7
REMARK VINA RESULT:      -6.3      2.363      5.197
REMARK  Name = 
REMARK  3 active torsions:
REMARK  status: ('A' for Active; 'I' for Inactive)
REMARK    1  A    between atoms: C_1  and  C_2
REMARK    2  A    between atoms: C_2  and  N_3
REMARK    3  A    between atoms: N_7  and  C_8
REMARK                            x       y       z     vdW  Elec       q    Type
REMARK                         _______ _______ _______ _____ _____    ______ ____
ROOT
ATOM      1  N   UNL     1       2.258   4.013  19.144  0.00  0.00    +0.000 N 
ATOM      2  S   UNL     1       2.467   2.953  17.855  0.00  0.00    +0.000 S 
ATOM      3  C   UNL     1       4.018   3.686  17.439  0.00  0.00    +0.000 A 
ATOM      4  O   UNL     1       4.685   3.233  16.523  0.00  0.00    +0.000 OA
ATOM      5  N   UNL     1       4.289   4.720  18.321  0.00  0.00    +0.000 N 
ATOM      6  C   UNL     1       3.306   4.912  19.303  0.00  0.00    +0.000 A 
ATOM      7  O   UNL     1       3.291   5.759  20.192  0.00  0.00    +0.000 OA
ENDROOT
BRANCH   5   8
ATOM      8  C   UNL     1       5.489   5.505  18.247  0.00  0.00    +0.000 A 
ATOM      9  C   UNL     1       6.578   5.264  19.102  0.00  0.00    +0.000 A 
ATOM     10  C   UNL     1       7.742   6.040  19.044  0.00  0.00    +0.000 A 
ATOM     11  C   UNL     1       7.842   7.082  18.132  0.00  0.00    +0.000 A 
ATOM     12  C   UNL     1       6.784   7.340  17.271  0.00  0.00    +0.000 A 
ATOM     13  C   UNL     1       5.625   6.558  17.327  0.00  0.00    +0.000 A 
ENDBRANCH   5   8
BRANCH   1  15
ATOM     14  C   UNL     1       1.277   2.915  21.118  0.00  0.00    +0.000 C 
ATOM     15  C   UNL     1       1.104   3.946  20.016  0.00  0.00    +0.000 C 
ENDBRANCH   1  15
TORSDOF 2
ENDMDL
MODEL 8
REMARK VINA RESULT:      -6.2      2.401      5.292
REMARK  Name = 
REMARK  3 active torsions:
REMARK  status: ('A' for Active; 'I' for Inactive)
REMARK    1  A    between atoms: C_1  and  C_2
REMARK    2  A    between atoms: C_2  and  N_3
REMARK    3  A    between atoms: N_7  and  C_8
REMARK                            x       y       z     vdW  Elec       q    Type
REMARK                         _______ _______ _______ _____ _____    ______ ____
ROOT
ATOM      1  N   UNL     1       2.225   3.819  19.250  0.00  0.00    +0.000 N 
ATOM      2  S   UNL     1       2.476   2.728  17.995  0.00  0.00    +0.000 S 
ATOM      3  C   UNL     1       4.002   3.503  17.560  0.00  0.00    +0.000 A 
ATOM      4  O   UNL     1       4.687   3.046  16.660  0.00  0.00    +0.000 OA
ATOM      5  N   UNL     1       4.232   4.572  18.411  0.00  0.00    +0.000 N 
ATOM      6  C   UNL     1       3.240   4.759  19.384  0.00  0.00    +0.000 A 
ATOM      7  O   UNL     1       3.192   5.632  20.247  0.00  0.00    +0.000 OA
ENDROOT
BRANCH   5   8
ATOM      8  C   UNL     1       5.404   5.397  18.316  0.00  0.00    +0.000 A 
ATOM      9  C   UNL     1       5.494   6.438  17.376  0.00  0.00    +0.000 A 
ATOM     10  C   UNL     1       6.643   7.232  17.269  0.00  0.00    +0.000 A 
ATOM     11  C   UNL     1       7.732   7.000  18.097  0.00  0.00    +0.000 A 
ATOM     12  C   UNL     1       7.669   5.981  19.039  0.00  0.00    +0.000 A 
ATOM     13  C   UNL     1       6.518   5.194  19.148  0.00  0.00    +0.000 A 
ENDBRANCH   5   8
BRANCH   1  15
ATOM     14  C   UNL     1       1.332   2.866  21.338  0.00  0.00    +0.000 C 
ATOM     15  C   UNL     1       1.071   3.738  20.121  0.00  0.00    +0.000 C 
ENDBRANCH   1  15
TORSDOF 2
ENDMDL
MODEL 9
REMARK VINA RESULT:      -6.2      2.156      2.770
REMARK  Name = 
REMARK  3 active torsions:
REMARK  status: ('A' for Active; 'I' for Inactive)
REMARK    1  A    between atoms: C_1  and  C_2
REMARK    2  A    between atoms: C_2  and  N_3
REMARK    3  A    between atoms: N_7  and  C_8
REMARK                            x       y       z     vdW  Elec       q    Type
REMARK                         _______ _______ _______ _____ _____    ______ ____
ROOT
ATOM      1  N   UNL     1       5.850   5.961  17.850  0.00  0.00    +0.000 N 
ATOM      2  S   UNL     1       4.736   7.026  17.175  0.00  0.00    +0.000 S 
ATOM      3  C   UNL     1       3.390   6.185  17.949  0.00  0.00    +0.000 A 
ATOM      4  O   UNL     1       2.251   6.603  17.821  0.00  0.00    +0.000 OA
ATOM      5  N   UNL     1       3.878   5.119  18.687  0.00  0.00    +0.000 N 
ATOM      6  C   UNL     1       5.273   4.984  18.652  0.00  0.00    +0.000 A 
ATOM      7  O   UNL     1       5.956   4.124  19.202  0.00  0.00    +0.000 OA
ENDROOT
BRANCH   5   8
ATOM      8  C   UNL     1       3.023   4.247  19.443  0.00  0.00    +0.000 A 
ATOM      9  C   UNL     1       2.374   3.154  18.844  0.00  0.00    +0.000 A 
ATOM     10  C   UNL     1       1.526   2.313  19.575  0.00  0.00    +0.000 A 
ATOM     11  C   UNL     1       1.302   2.549  20.925  0.00  0.00    +0.000 A 
ATOM     12  C   UNL     1       1.934   3.618  21.545  0.00  0.00    +0.000 A 
ATOM     13  C   UNL     1       2.787   4.452  20.813  0.00  0.00    +0.000 A 
ENDBRANCH   5   8
BRANCH   1  15
ATOM     14  C   UNL     1       7.712   7.554  17.596  0.00  0.00    +0.000 C 
ATOM     15  C   UNL     1       7.275   6.099  17.633  0.00  0.00    +0.000 C 
ENDBRANCH   1  15
TORSDOF 2
ENDMDL
