MODEL 1
REMARK VINA RESULT:      -7.2      0.000      0.000
REMARK  Name = 
REMARK  3 active torsions:
REMARK  status: ('A' for Active; 'I' for Inactive)
REMARK    1  A    between atoms: C_2  and  C_10
REMARK    2  A    between atoms: N_3  and  N_4
REMARK    3  A    between atoms: C_17  and  O_18
REMARK                            x       y       z     vdW  Elec       q    Type
REMARK                         _______ _______ _______ _____ _____    ______ ____
ROOT
ATOM      1  O   UNL     1       7.059   4.489  17.267  0.00  0.00    +0.000 OA
ATOM      2  C   UNL     1       6.073   5.102  16.868  0.00  0.00    +0.000 C 
ATOM      3  N   UNL     1       5.935   5.654  15.608  0.00  0.00    +0.000 N 
ATOM      4  H   UNL     1       5.074   6.145  15.389  0.00  0.00    +0.000 HD
ENDROOT
BRANCH   2   5
ATOM      5  C   UNL     1       4.903   5.286  17.790  0.00  0.00    +0.000 A 
ATOM      6  C   UNL     1       4.164   6.470  17.649  0.00  0.00    +0.000 A 
ATOM      7  C   UNL     1       3.072   6.734  18.478  0.00  0.00    +0.000 A 
ATOM      8 CL   UNL     1       2.185   8.195  18.285  0.00  0.00    +0.000 Cl
ATOM      9  C   UNL     1       2.697   5.828  19.464  0.00  0.00    +0.000 A 
ATOM     10  C   UNL     1       3.427   4.653  19.617  0.00  0.00    +0.000 A 
ATOM     11 CL   UNL     1       2.966   3.536  20.851  0.00  0.00    +0.000 Cl
ATOM     12  C   UNL     1       4.525   4.376  18.789  0.00  0.00    +0.000 A 
BRANCH  12  13
ATOM     13  O   UNL     1       5.231   3.208  18.976  0.00  0.00    +0.000 OA
ATOM     14  H   UNL     1       5.905   3.385  19.665  0.00  0.00    +0.000 HD
ENDBRANCH  12  13
ENDBRANCH   2   5
BRANCH   3  15
ATOM     15  N   UNL     1       6.879   5.458  14.646  0.00  0.00    +0.000 NA
ATOM     16  C   UNL     1       6.582   4.640  13.687  0.00  0.00    +0.000 C 
ATOM     17  C   UNL     1       7.571   4.353  12.585  0.00  0.00    +0.000 C 
ATOM     18  C   UNL     1       6.912   3.179  11.873  0.00  0.00    +0.000 C 
ATOM     19  C   UNL     1       5.418   3.400  12.071  0.00  0.00    +0.000 C 
ATOM     20  C   UNL     1       5.294   3.877  13.511  0.00  0.00    +0.000 C 
ENDBRANCH   3  15
TORSDOF 3
ENDMDL
MODEL 2
REMARK VINA RESULT:      -7.0      1.716      2.616
REMARK  Name = 
REMARK  3 active torsions:
REMARK  status: ('A' for Active; 'I' for Inactive)
REMARK    1  A    between atoms: C_2  and  C_10
REMARK    2  A    between atoms: N_3  and  N_4
REMARK    3  A    between atoms: C_17  and  O_18
REMARK                            x       y       z     vdW  Elec       q    Type
REMARK                         _______ _______ _______ _____ _____    ______ ____
ROOT
ATOM      1  O   UNL     1       4.898   6.931  15.647  0.00  0.00    +0.000 OA
ATOM      2  C   UNL     1       5.270   5.991  16.344  0.00  0.00    +0.000 C 
ATOM      3  N   UNL     1       6.337   5.161  16.056  0.00  0.00    +0.000 N 
ATOM      4  H   UNL     1       6.552   4.409  16.704  0.00  0.00    +0.000 HD
ENDROOT
BRANCH   2   5
ATOM      5  C   UNL     1       4.537   5.688  17.618  0.00  0.00    +0.000 A 
ATOM      6  C   UNL     1       4.742   4.421  18.183  0.00  0.00    +0.000 A 
ATOM      7  C   UNL     1       4.085   4.046  19.356  0.00  0.00    +0.000 A 
ATOM      8 CL   UNL     1       4.352   2.485  20.026  0.00  0.00    +0.000 Cl
ATOM      9  C   UNL     1       3.208   4.923  19.987  0.00  0.00    +0.000 A 
ATOM     10  C   UNL     1       2.993   6.180  19.432  0.00  0.00    +0.000 A 
ATOM     11 CL   UNL     1       1.894   7.262  20.212  0.00  0.00    +0.000 Cl
ATOM     12  C   UNL     1       3.649   6.569  18.254  0.00  0.00    +0.000 A 
BRANCH  12  13
ATOM     13  O   UNL     1       3.402   7.817  17.728  0.00  0.00    +0.000 OA
ATOM     14  H   UNL     1       2.450   8.006  17.864  0.00  0.00    +0.000 HD
ENDBRANCH  12  13
ENDBRANCH   2   5
BRANCH   3  15
ATOM     15  N   UNL     1       7.148   5.400  14.989  0.00  0.00    +0.000 NA
ATOM     16  C   UNL     1       6.905   4.739  13.902  0.00  0.00    +0.000 C 
ATOM     17  C   UNL     1       7.760   4.931  12.675  0.00  0.00    +0.000 C 
ATOM     18  C   UNL     1       7.282   3.793  11.781  0.00  0.00    +0.000 C 
ATOM     19  C   UNL     1       5.821   3.592  12.166  0.00  0.00    +0.000 C 
ATOM     20  C   UNL     1       5.806   3.729  13.681  0.00  0.00    +0.000 C 
ENDBRANCH   3  15
TORSDOF 3
ENDMDL
MODEL 3
REMARK VINA RESULT:      -7.0      1.236      1.273
REMARK  Name = 
REMARK  3 active torsions:
REMARK  status: ('A' for Active; 'I' for Inactive)
REMARK    1  A    between atoms: C_2  and  C_10
REMARK    2  A    between atoms: N_3  and  N_4
REMARK    3  A    between atoms: C_17  and  O_18
REMARK                            x       y       z     vdW  Elec       q    Type
REMARK                         _______ _______ _______ _____ _____    ______ ____
ROOT
ATOM      1  O   UNL     1       4.805   6.968  15.878  0.00  0.00    +0.000 OA
ATOM      2  C   UNL     1       5.136   5.973  16.517  0.00  0.00    +0.000 C 
ATOM      3  N   UNL     1       6.189   5.137  16.195  0.00  0.00    +0.000 N 
ATOM      4  H   UNL     1       6.368   4.337  16.795  0.00  0.00    +0.000 HD
ENDROOT
BRANCH   2   5
ATOM      5  C   UNL     1       4.365   5.603  17.749  0.00  0.00    +0.000 A 
ATOM      6  C   UNL     1       3.578   6.608  18.331  0.00  0.00    +0.000 A 
ATOM      7  C   UNL     1       2.843   6.359  19.492  0.00  0.00    +0.000 A 
ATOM      8 CL   UNL     1       1.890   7.611  20.187  0.00  0.00    +0.000 Cl
ATOM      9  C   UNL     1       2.880   5.108  20.097  0.00  0.00    +0.000 A 
ATOM     10  C   UNL     1       3.661   4.104  19.531  0.00  0.00    +0.000 A 
ATOM     11 CL   UNL     1       3.712   2.555  20.292  0.00  0.00    +0.000 Cl
ATOM     12  C   UNL     1       4.402   4.343  18.364  0.00  0.00    +0.000 A 
BRANCH  12  13
ATOM     13  O   UNL     1       5.173   3.329  17.839  0.00  0.00    +0.000 OA
ATOM     14  H   UNL     1       5.184   2.603  18.497  0.00  0.00    +0.000 HD
ENDBRANCH  12  13
ENDBRANCH   2   5
BRANCH   3  15
ATOM     15  N   UNL     1       7.032   5.427  15.166  0.00  0.00    +0.000 NA
ATOM     16  C   UNL     1       6.852   4.784  14.056  0.00  0.00    +0.000 C 
ATOM     17  C   UNL     1       7.746   5.032  12.868  0.00  0.00    +0.000 C 
ATOM     18  C   UNL     1       7.340   3.901  11.931  0.00  0.00    +0.000 C 
ATOM     19  C   UNL     1       5.874   3.644  12.255  0.00  0.00    +0.000 C 
ATOM     20  C   UNL     1       5.797   3.745  13.770  0.00  0.00    +0.000 C 
ENDBRANCH   3  15
TORSDOF 3
ENDMDL
MODEL 4
REMARK VINA RESULT:      -6.8      1.103      2.428
REMARK  Name = 
REMARK  3 active torsions:
REMARK  status: ('A' for Active; 'I' for Inactive)
REMARK    1  A    between atoms: C_2  and  C_10
REMARK    2  A    between atoms: N_3  and  N_4
REMARK    3  A    between atoms: C_17  and  O_18
REMARK                            x       y       z     vdW  Elec       q    Type
REMARK                         _______ _______ _______ _____ _____    ______ ____
ROOT
ATOM      1  O   UNL     1       7.415   4.472  17.088  0.00  0.00    +0.000 OA
ATOM      2  C   UNL     1       6.346   5.012  16.814  0.00  0.00    +0.000 C 
ATOM      3  N   UNL     1       6.050   5.618  15.607  0.00  0.00    +0.000 N 
ATOM      4  H   UNL     1       5.132   6.038  15.493  0.00  0.00    +0.000 HD
ENDROOT
BRANCH   2   5
ATOM      5  C   UNL     1       5.252   5.034  17.840  0.00  0.00    +0.000 A 
ATOM      6  C   UNL     1       5.073   3.871  18.602  0.00  0.00    +0.000 A 
ATOM      7  C   UNL     1       4.065   3.795  19.566  0.00  0.00    +0.000 A 
ATOM      8 CL   UNL     1       3.865   2.355  20.484  0.00  0.00    +0.000 Cl
ATOM      9  C   UNL     1       3.215   4.874  19.786  0.00  0.00    +0.000 A 
ATOM     10  C   UNL     1       3.380   6.031  19.031  0.00  0.00    +0.000 A 
ATOM     11 CL   UNL     1       2.314   7.364  19.299  0.00  0.00    +0.000 Cl
ATOM     12  C   UNL     1       4.390   6.119  18.061  0.00  0.00    +0.000 A 
BRANCH  12  13
ATOM     13  O   UNL     1       4.516   7.276  17.325  0.00  0.00    +0.000 OA
ATOM     14  H   UNL     1       3.611   7.597  17.133  0.00  0.00    +0.000 HD
ENDBRANCH  12  13
ENDBRANCH   2   5
BRANCH   3  15
ATOM     15  N   UNL     1       6.917   5.565  14.559  0.00  0.00    +0.000 NA
ATOM     16  C   UNL     1       6.659   4.709  13.622  0.00  0.00    +0.000 C 
ATOM     17  C   UNL     1       7.571   4.573  12.430  0.00  0.00    +0.000 C 
ATOM     18  C   UNL     1       7.033   3.311  11.768  0.00  0.00    +0.000 C 
ATOM     19  C   UNL     1       5.548   3.304  12.107  0.00  0.00    +0.000 C 
ATOM     20  C   UNL     1       5.489   3.760  13.558  0.00  0.00    +0.000 C 
ENDBRANCH   3  15
TORSDOF 3
ENDMDL
MODEL 5
REMARK VINA RESULT:      -6.7      3.358      6.486
REMARK  Name = 
REMARK  3 active torsions:
REMARK  status: ('A' for Active; 'I' for Inactive)
REMARK    1  A    between atoms: C_2  and  C_10
REMARK    2  A    between atoms: N_3  and  N_4
REMARK    3  A    between atoms: C_17  and  O_18
REMARK                            x       y       z     vdW  Elec       q    Type
REMARK                         _______ _______ _______ _____ _____    ______ ____
ROOT
ATOM      1  O   UNL     1       3.888   2.337  17.370  0.00  0.00    +0.000 OA
ATOM      2  C   UNL     1       3.790   3.550  17.206  0.00  0.00    +0.000 C 
ATOM      3  N   UNL     1       2.682   4.309  17.534  0.00  0.00    +0.000 N 
ATOM      4  H   UNL     1       2.711   5.307  17.349  0.00  0.00    +0.000 HD
ENDROOT
BRANCH   2   5
ATOM      5  C   UNL     1       4.941   4.303  16.609  0.00  0.00    +0.000 A 
ATOM      6  C   UNL     1       5.319   3.956  15.304  0.00  0.00    +0.000 A 
ATOM      7  C   UNL     1       6.393   4.590  14.677  0.00  0.00    +0.000 A 
ATOM      8 CL   UNL     1       6.837   4.142  13.077  0.00  0.00    +0.000 Cl
ATOM      9  C   UNL     1       7.113   5.580  15.337  0.00  0.00    +0.000 A 
ATOM     10  C   UNL     1       6.751   5.930  16.634  0.00  0.00    +0.000 A 
ATOM     11 CL   UNL     1       7.655   7.151  17.456  0.00  0.00    +0.000 Cl
ATOM     12  C   UNL     1       5.672   5.299  17.274  0.00  0.00    +0.000 A 
BRANCH  12  13
ATOM     13  O   UNL     1       5.350   5.663  18.563  0.00  0.00    +0.000 OA
ATOM     14  H   UNL     1       4.596   6.287  18.507  0.00  0.00    +0.000 HD
ENDBRANCH  12  13
ENDBRANCH   2   5
BRANCH   3  15
ATOM     15  N   UNL     1       1.618   3.761  18.184  0.00  0.00    +0.000 NA
ATOM     16  C   UNL     1       1.729   3.600  19.465  0.00  0.00    +0.000 C 
ATOM     17  C   UNL     1       0.606   2.990  20.264  0.00  0.00    +0.000 C 
ATOM     18  C   UNL     1       1.273   2.764  21.615  0.00  0.00    +0.000 C 
ATOM     19  C   UNL     1       2.311   3.874  21.720  0.00  0.00    +0.000 C 
ATOM     20  C   UNL     1       2.913   3.963  20.326  0.00  0.00    +0.000 C 
ENDBRANCH   3  15
TORSDOF 3
ENDMDL
MODEL 6
REMARK VINA RESULT:      -6.7      1.211      1.490
REMARK  Name = 
REMARK  3 active torsions:
REMARK  status: ('A' for Active; 'I' for Inactive)
REMARK    1  A    between atoms: C_2  and  C_10
REMARK    2  A    between atoms: N_3  and  N_4
REMARK    3  A    between atoms: C_17  and  O_18
REMARK                            x       y       z     vdW  Elec       q    Type
REMARK                         _______ _______ _______ _____ _____    ______ ____
ROOT
ATOM      1  O   UNL     1       6.450   4.350  18.509  0.00  0.00    +0.000 OA
ATOM      2  C   UNL     1       5.484   5.028  18.171  0.00  0.00    +0.000 C 
ATOM      3  N   UNL     1       5.426   5.821  17.040  0.00  0.00    +0.000 N 
ATOM      4  H   UNL     1       4.574   6.345  16.863  0.00  0.00    +0.000 HD
ENDROOT
BRANCH   2   5
ATOM      5  C   UNL     1       4.250   5.022  19.025  0.00  0.00    +0.000 A 
ATOM      6  C   UNL     1       3.588   6.247  19.194  0.00  0.00    +0.000 A 
ATOM      7  C   UNL     1       2.444   6.338  19.988  0.00  0.00    +0.000 A 
ATOM      8 CL   UNL     1       1.654   7.854  20.181  0.00  0.00    +0.000 Cl
ATOM      9  C   UNL     1       1.938   5.214  20.632  0.00  0.00    +0.000 A 
ATOM     10  C   UNL     1       2.590   3.994  20.476  0.00  0.00    +0.000 A 
ATOM     11 CL   UNL     1       1.966   2.602  21.287  0.00  0.00    +0.000 Cl
ATOM     12  C   UNL     1       3.740   3.890  19.679  0.00  0.00    +0.000 A 
BRANCH  12  13
ATOM     13  O   UNL     1       4.365   2.669  19.557  0.00  0.00    +0.000 OA
ATOM     14  H   UNL     1       3.662   1.989  19.496  0.00  0.00    +0.000 HD
ENDBRANCH  12  13
ENDBRANCH   2   5
BRANCH   3  15
ATOM     15  N   UNL     1       6.437   5.825  16.129  0.00  0.00    +0.000 NA
ATOM     16  C   UNL     1       6.274   5.105  15.064  0.00  0.00    +0.000 C 
ATOM     17  C   UNL     1       7.347   5.039  14.007  0.00  0.00    +0.000 C 
ATOM     18  C   UNL     1       6.843   3.906  13.122  0.00  0.00    +0.000 C 
ATOM     19  C   UNL     1       5.326   3.973  13.242  0.00  0.00    +0.000 C 
ATOM     20  C   UNL     1       5.075   4.261  14.714  0.00  0.00    +0.000 C 
ENDBRANCH   3  15
TORSDOF 3
ENDMDL
MODEL 7
REMARK VINA RESULT:      -6.6      5.193      6.724
REMARK  Name = 
REMARK  3 active torsions:
REMARK  status: ('A' for Active; 'I' for Inactive)
REMARK    1  A    between atoms: C_2  and  C_10
REMARK    2  A    between atoms: N_3  and  N_4
REMARK    3  A    between atoms: C_17  and  O_18
REMARK                            x       y       z     vdW  Elec       q    Type
REMARK                         _______ _______ _______ _____ _____    ______ ____
ROOT
ATOM      1  O   UNL     1       2.564   7.495  18.010  0.00  0.00    +0.000 OA
ATOM      2  C   UNL     1       2.254   7.481  19.198  0.00  0.00    +0.000 C 
ATOM      3  N   UNL     1       2.535   6.455  20.081  0.00  0.00    +0.000 N 
ATOM      4  H   UNL     1       2.225   6.549  21.044  0.00  0.00    +0.000 HD
ENDROOT
BRANCH   2   5
ATOM      5  C   UNL     1       1.514   8.651  19.776  0.00  0.00    +0.000 A 
ATOM      6  C   UNL     1       1.158   8.571  21.130  0.00  0.00    +0.000 A 
ATOM      7  C   UNL     1       0.449   9.605  21.746  0.00  0.00    +0.000 A 
ATOM      8 CL   UNL     1       0.022   9.479  23.408  0.00  0.00    +0.000 Cl
ATOM      9  C   UNL     1       0.079  10.735  21.026  0.00  0.00    +0.000 A 
ATOM     10  C   UNL     1       0.422  10.823  19.680  0.00  0.00    +0.000 A 
ATOM     11 CL   UNL     1      -0.050  12.223  18.786  0.00  0.00    +0.000 Cl
ATOM     12  C   UNL     1       1.135   9.791  19.051  0.00  0.00    +0.000 A 
BRANCH  12  13
ATOM     13  O   UNL     1       1.447   9.908  17.715  0.00  0.00    +0.000 OA
ATOM     14  H   UNL     1       2.342   9.527  17.592  0.00  0.00    +0.000 HD
ENDBRANCH  12  13
ENDBRANCH   2   5
BRANCH   3  15
ATOM     15  N   UNL     1       3.298   5.391  19.706  0.00  0.00    +0.000 NA
ATOM     16  C   UNL     1       2.683   4.270  19.494  0.00  0.00    +0.000 C 
ATOM     17  C   UNL     1       3.448   3.037  19.087  0.00  0.00    +0.000 C 
ATOM     18  C   UNL     1       2.384   1.954  19.215  0.00  0.00    +0.000 C 
ATOM     19  C   UNL     1       1.074   2.667  18.909  0.00  0.00    +0.000 C 
ATOM     20  C   UNL     1       1.202   4.012  19.609  0.00  0.00    +0.000 C 
ENDBRANCH   3  15
TORSDOF 3
ENDMDL
MODEL 8
REMARK VINA RESULT:      -6.6      3.538      6.511
REMARK  Name = 
REMARK  3 active torsions:
REMARK  status: ('A' for Active; 'I' for Inactive)
REMARK    1  A    between atoms: C_2  and  C_10
REMARK    2  A    between atoms: N_3  and  N_4
REMARK    3  A    between atoms: C_17  and  O_18
REMARK                            x       y       z     vdW  Elec       q    Type
REMARK                         _______ _______ _______ _____ _____    ______ ____
ROOT
ATOM      1  O   UNL     1       6.054   4.049  17.420  0.00  0.00    +0.000 OA
ATOM      2  C   UNL     1       5.382   4.480  16.487  0.00  0.00    +0.000 C 
ATOM      3  N   UNL     1       4.104   4.995  16.601  0.00  0.00    +0.000 N 
ATOM      4  H   UNL     1       3.639   5.319  15.757  0.00  0.00    +0.000 HD
ENDROOT
BRANCH   2   5
ATOM      5  C   UNL     1       5.957   4.466  15.102  0.00  0.00    +0.000 A 
ATOM      6  C   UNL     1       5.331   3.632  14.163  0.00  0.00    +0.000 A 
ATOM      7  C   UNL     1       5.811   3.541  12.855  0.00  0.00    +0.000 A 
ATOM      8 CL   UNL     1       5.027   2.508  11.725  0.00  0.00    +0.000 Cl
ATOM      9  C   UNL     1       6.925   4.273  12.458  0.00  0.00    +0.000 A 
ATOM     10  C   UNL     1       7.557   5.099  13.382  0.00  0.00    +0.000 A 
ATOM     11 CL   UNL     1       8.947   5.998  12.888  0.00  0.00    +0.000 Cl
ATOM     12  C   UNL     1       7.082   5.200  14.699  0.00  0.00    +0.000 A 
BRANCH  12  13
ATOM     13  O   UNL     1       7.741   6.019  15.590  0.00  0.00    +0.000 OA
ATOM     14  H   UNL     1       8.196   6.710  15.065  0.00  0.00    +0.000 HD
ENDBRANCH  12  13
ENDBRANCH   2   5
BRANCH   3  15
ATOM     15  N   UNL     1       3.517   5.164  17.817  0.00  0.00    +0.000 NA
ATOM     16  C   UNL     1       2.704   4.237  18.214  0.00  0.00    +0.000 C 
ATOM     17  C   UNL     1       1.999   4.348  19.543  0.00  0.00    +0.000 C 
ATOM     18  C   UNL     1       0.988   3.211  19.454  0.00  0.00    +0.000 C 
ATOM     19  C   UNL     1       1.663   2.166  18.575  0.00  0.00    +0.000 C 
ATOM     20  C   UNL     1       2.337   2.974  17.476  0.00  0.00    +0.000 C 
ENDBRANCH   3  15
TORSDOF 3
ENDMDL
MODEL 9
REMARK VINA RESULT:      -6.6      4.414      5.800
REMARK  Name = 
REMARK  3 active torsions:
REMARK  status: ('A' for Active; 'I' for Inactive)
REMARK    1  A    between atoms: C_2  and  C_10
REMARK    2  A    between atoms: N_3  and  N_4
REMARK    3  A    between atoms: C_17  and  O_18
REMARK                            x       y       z     vdW  Elec       q    Type
REMARK                         _______ _______ _______ _____ _____    ______ ____
ROOT
ATOM      1  O   UNL     1       2.812   8.659  17.264  0.00  0.00    +0.000 OA
ATOM      2  C   UNL     1       2.223   8.115  18.194  0.00  0.00    +0.000 C 
ATOM      3  N   UNL     1       2.331   6.778  18.530  0.00  0.00    +0.000 N 
ATOM      4  H   UNL     1       1.791   6.435  19.319  0.00  0.00    +0.000 HD
ENDROOT
BRANCH   2   5
ATOM      5  C   UNL     1       1.306   8.930  19.057  0.00  0.00    +0.000 A 
ATOM      6  C   UNL     1       0.548   9.922  18.418  0.00  0.00    +0.000 A 
ATOM      7  C   UNL     1      -0.316  10.742  19.147  0.00  0.00    +0.000 A 
ATOM      8 CL   UNL     1      -1.232  11.953  18.338  0.00  0.00    +0.000 Cl
ATOM      9  C   UNL     1      -0.439  10.594  20.524  0.00  0.00    +0.000 A 
ATOM     10  C   UNL     1       0.313   9.616  21.169  0.00  0.00    +0.000 A 
ATOM     11 CL   UNL     1       0.166   9.443  22.882  0.00  0.00    +0.000 Cl
ATOM     12  C   UNL     1       1.183   8.785  20.447  0.00  0.00    +0.000 A 
BRANCH  12  13
ATOM     13  O   UNL     1       1.920   7.837  21.121  0.00  0.00    +0.000 OA
ATOM     14  H   UNL     1       1.424   6.993  21.069  0.00  0.00    +0.000 HD
ENDBRANCH  12  13
ENDBRANCH   2   5
BRANCH   3  15
ATOM     15  N   UNL     1       3.215   5.960  17.894  0.00  0.00    +0.000 NA
ATOM     16  C   UNL     1       2.988   4.686  17.954  0.00  0.00    +0.000 C 
ATOM     17  C   UNL     1       3.920   3.705  17.290  0.00  0.00    +0.000 C 
ATOM     18  C   UNL     1       3.417   2.376  17.840  0.00  0.00    +0.000 C 
ATOM     19  C   UNL     1       1.927   2.597  18.071  0.00  0.00    +0.000 C 
ATOM     20  C   UNL     1       1.838   4.001  18.650  0.00  0.00    +0.000 C 
ENDBRANCH   3  15
TORSDOF 3
ENDMDL
