MODEL 1
REMARK VINA RESULT:      -6.1      0.000      0.000
REMARK  Name = 
REMARK  6 active torsions:
REMARK  status: ('A' for Active; 'I' for Inactive)
REMARK    1  A    between atoms: C_1  and  C_2
REMARK    2  A    between atoms: C_2  and  C_3
REMARK    3  A    between atoms: C_2  and  C_4
REMARK    4  A    between atoms: N_6  and  C_7
REMARK    5  A    between atoms: C_7  and  C_8
REMARK    6  A    between atoms: C_8  and  C_9
REMARK                            x       y       z     vdW  Elec       q    Type
REMARK                         _______ _______ _______ _____ _____    ______ ____
ROOT
ATOM      1  C   UNL     1       3.900   5.713  17.477  0.00  0.00    +0.000 C 
ENDROOT
BRANCH   1   4
ATOM      2  C   UNL     1       6.174   6.503  16.940  0.00  0.00    +0.000 C 
ATOM      3  O   UNL     1       5.912   6.571  15.741  0.00  0.00    +0.000 OA
ATOM      4  N   UNL     1       5.242   6.103  17.872  0.00  0.00    +0.000 N 
ATOM      5  H   UNL     1       5.497   6.049  18.850  0.00  0.00    +0.000 HD
BRANCH   2   7
ATOM      6  C   UNL     1       7.727   8.320  17.704  0.00  0.00    +0.000 C 
ATOM      7  C   UNL     1       7.557   6.813  17.509  0.00  0.00    +0.000 C 
ATOM      8  C   UNL     1       7.792   6.088  18.833  0.00  0.00    +0.000 C 
ENDBRANCH   2   7
ENDBRANCH   1   4
BRANCH   1   9
ATOM      9  C   UNL     1       3.790   4.223  17.144  0.00  0.00    +0.000 C 
BRANCH   9  10
ATOM     10  C   UNL     1       2.978   3.491  18.173  0.00  0.00    +0.000 A 
ATOM     11  C   UNL     1       2.144   2.401  17.985  0.00  0.00    +0.000 A 
ATOM     12  C   UNL     1       1.529   1.974  19.200  0.00  0.00    +0.000 A 
ATOM     13  C   UNL     1       1.924   2.756  20.255  0.00  0.00    +0.000 A 
ATOM     14 CL   UNL     1       1.422   2.600  21.890  0.00  0.00    +0.000 Cl
ATOM     15  S   UNL     1       3.014   3.973  19.820  0.00  0.00    +0.000 S 
ENDBRANCH   9  10
ENDBRANCH   1   9
TORSDOF 4
ENDMDL
MODEL 2
REMARK VINA RESULT:      -5.8      3.688      6.101
REMARK  Name = 
REMARK  6 active torsions:
REMARK  status: ('A' for Active; 'I' for Inactive)
REMARK    1  A    between atoms: C_1  and  C_2
REMARK    2  A    between atoms: C_2  and  C_3
REMARK    3  A    between atoms: C_2  and  C_4
REMARK    4  A    between atoms: N_6  and  C_7
REMARK    5  A    between atoms: C_7  and  C_8
REMARK    6  A    between atoms: C_8  and  C_9
REMARK                            x       y       z     vdW  Elec       q    Type
REMARK                         _______ _______ _______ _____ _____    ______ ____
ROOT
ATOM      1  C   UNL     1       4.061   3.186  17.582  0.00  0.00    +0.000 C 
ENDROOT
BRANCH   1   4
ATOM      2  C   UNL     1       3.273   3.165  19.919  0.00  0.00    +0.000 C 
ATOM      3  O   UNL     1       4.185   2.416  20.263  0.00  0.00    +0.000 OA
ATOM      4  N   UNL     1       3.139   3.608  18.621  0.00  0.00    +0.000 N 
ATOM      5  H   UNL     1       2.369   4.216  18.372  0.00  0.00    +0.000 HD
BRANCH   2   7
ATOM      6  C   UNL     1       0.961   4.126  20.093  0.00  0.00    +0.000 C 
ATOM      7  C   UNL     1       2.183   3.645  20.876  0.00  0.00    +0.000 C 
ATOM      8  C   UNL     1       1.774   2.545  21.853  0.00  0.00    +0.000 C 
ENDBRANCH   2   7
ENDBRANCH   1   4
BRANCH   1   9
ATOM      9  C   UNL     1       4.457   4.327  16.642  0.00  0.00    +0.000 C 
BRANCH   9  10
ATOM     10  C   UNL     1       5.633   5.093  17.177  0.00  0.00    +0.000 A 
ATOM     11  C   UNL     1       6.682   4.618  17.946  0.00  0.00    +0.000 A 
ATOM     12  C   UNL     1       7.620   5.642  18.276  0.00  0.00    +0.000 A 
ATOM     13  C   UNL     1       7.242   6.847  17.742  0.00  0.00    +0.000 A 
ATOM     14 CL   UNL     1       8.073   8.342  17.898  0.00  0.00    +0.000 Cl
ATOM     15  S   UNL     1       5.805   6.770  16.854  0.00  0.00    +0.000 S 
ENDBRANCH   9  10
ENDBRANCH   1   9
TORSDOF 4
ENDMDL
MODEL 3
REMARK VINA RESULT:      -5.8      3.715      6.015
REMARK  Name = 
REMARK  6 active torsions:
REMARK  status: ('A' for Active; 'I' for Inactive)
REMARK    1  A    between atoms: C_1  and  C_2
REMARK    2  A    between atoms: C_2  and  C_3
REMARK    3  A    between atoms: C_2  and  C_4
REMARK    4  A    between atoms: N_6  and  C_7
REMARK    5  A    between atoms: C_7  and  C_8
REMARK    6  A    between atoms: C_8  and  C_9
REMARK                            x       y       z     vdW  Elec       q    Type
REMARK                         _______ _______ _______ _____ _____    ______ ____
ROOT
ATOM      1  C   UNL     1       2.990   3.867  17.098  0.00  0.00    +0.000 C 
ENDROOT
BRANCH   1   4
ATOM      2  C   UNL     1       1.438   3.441  18.967  0.00  0.00    +0.000 C 
ATOM      3  O   UNL     1       0.850   2.567  18.334  0.00  0.00    +0.000 OA
ATOM      4  N   UNL     1       2.514   4.126  18.445  0.00  0.00    +0.000 N 
ATOM      5  H   UNL     1       2.967   4.846  18.992  0.00  0.00    +0.000 HD
BRANCH   2   7
ATOM      6  C   UNL     1       1.362   2.795  21.391  0.00  0.00    +0.000 C 
ATOM      7  C   UNL     1       1.019   3.879  20.369  0.00  0.00    +0.000 C 
ATOM      8  C   UNL     1       1.684   5.196  20.765  0.00  0.00    +0.000 C 
ENDBRANCH   2   7
ENDBRANCH   1   4
BRANCH   1   9
ATOM      9  C   UNL     1       4.441   3.380  17.066  0.00  0.00    +0.000 C 
BRANCH   9  10
ATOM     10  C   UNL     1       5.381   4.427  17.591  0.00  0.00    +0.000 A 
ATOM     11  C   UNL     1       5.902   4.542  18.869  0.00  0.00    +0.000 A 
ATOM     12  C   UNL     1       6.761   5.674  19.004  0.00  0.00    +0.000 A 
ATOM     13  C   UNL     1       6.855   6.365  17.823  0.00  0.00    +0.000 A 
ATOM     14 CL   UNL     1       7.772   7.790  17.541  0.00  0.00    +0.000 Cl
ATOM     15  S   UNL     1       5.949   5.683  16.569  0.00  0.00    +0.000 S 
ENDBRANCH   9  10
ENDBRANCH   1   9
TORSDOF 4
ENDMDL
MODEL 4
REMARK VINA RESULT:      -5.8      2.271      3.187
REMARK  Name = 
REMARK  6 active torsions:
REMARK  status: ('A' for Active; 'I' for Inactive)
REMARK    1  A    between atoms: C_1  and  C_2
REMARK    2  A    between atoms: C_2  and  C_3
REMARK    3  A    between atoms: C_2  and  C_4
REMARK    4  A    between atoms: N_6  and  C_7
REMARK    5  A    between atoms: C_7  and  C_8
REMARK    6  A    between atoms: C_8  and  C_9
REMARK                            x       y       z     vdW  Elec       q    Type
REMARK                         _______ _______ _______ _____ _____    ______ ____
ROOT
ATOM      1  C   UNL     1       6.568   4.617  18.490  0.00  0.00    +0.000 C 
ENDROOT
BRANCH   1   4
ATOM      2  C   UNL     1       6.949   4.910  16.071  0.00  0.00    +0.000 C 
ATOM      3  O   UNL     1       7.505   5.992  16.248  0.00  0.00    +0.000 OA
ATOM      4  N   UNL     1       6.467   4.154  17.117  0.00  0.00    +0.000 N 
ATOM      5  H   UNL     1       6.006   3.273  16.933  0.00  0.00    +0.000 HD
BRANCH   2   7
ATOM      6  C   UNL     1       5.210   4.327  14.357  0.00  0.00    +0.000 C 
ATOM      7  C   UNL     1       6.703   4.316  14.685  0.00  0.00    +0.000 C 
ATOM      8  C   UNL     1       7.477   5.074  13.608  0.00  0.00    +0.000 C 
ENDBRANCH   2   7
ENDBRANCH   1   4
BRANCH   1   9
ATOM      9  C   UNL     1       5.414   5.539  18.892  0.00  0.00    +0.000 C 
BRANCH   9  10
ATOM     10  C   UNL     1       4.083   4.907  18.602  0.00  0.00    +0.000 A 
ATOM     11  C   UNL     1       3.086   5.367  17.759  0.00  0.00    +0.000 A 
ATOM     12  C   UNL     1       1.950   4.502  17.740  0.00  0.00    +0.000 A 
ATOM     13  C   UNL     1       2.137   3.425  18.568  0.00  0.00    +0.000 A 
ATOM     14 CL   UNL     1       1.025   2.148  18.853  0.00  0.00    +0.000 Cl
ATOM     15  S   UNL     1       3.636   3.429  19.351  0.00  0.00    +0.000 S 
ENDBRANCH   9  10
ENDBRANCH   1   9
TORSDOF 4
ENDMDL
MODEL 5
REMARK VINA RESULT:      -5.8      3.498      6.018
REMARK  Name = 
REMARK  6 active torsions:
REMARK  status: ('A' for Active; 'I' for Inactive)
REMARK    1  A    between atoms: C_1  and  C_2
REMARK    2  A    between atoms: C_2  and  C_3
REMARK    3  A    between atoms: C_2  and  C_4
REMARK    4  A    between atoms: N_6  and  C_7
REMARK    5  A    between atoms: C_7  and  C_8
REMARK    6  A    between atoms: C_8  and  C_9
REMARK                            x       y       z     vdW  Elec       q    Type
REMARK                         _______ _______ _______ _____ _____    ______ ____
ROOT
ATOM      1  C   UNL     1       4.218   5.785  19.195  0.00  0.00    +0.000 C 
ENDROOT
BRANCH   1   4
ATOM      2  C   UNL     1       2.042   4.636  19.023  0.00  0.00    +0.000 C 
ATOM      3  O   UNL     1       1.834   5.110  17.908  0.00  0.00    +0.000 OA
ATOM      4  N   UNL     1       3.196   4.902  19.728  0.00  0.00    +0.000 N 
ATOM      5  H   UNL     1       3.328   4.502  20.648  0.00  0.00    +0.000 HD
BRANCH   2   7
ATOM      6  C   UNL     1       0.769   2.475  18.942  0.00  0.00    +0.000 C 
ATOM      7  C   UNL     1       1.037   3.745  19.750  0.00  0.00    +0.000 C 
ATOM      8  C   UNL     1       1.528   3.377  21.149  0.00  0.00    +0.000 C 
ENDBRANCH   2   7
ENDBRANCH   1   4
BRANCH   1   9
ATOM      9  C   UNL     1       5.608   5.142  19.182  0.00  0.00    +0.000 C 
BRANCH   9  10
ATOM     10  C   UNL     1       6.080   4.891  17.779  0.00  0.00    +0.000 A 
ATOM     11  C   UNL     1       7.346   5.094  17.256  0.00  0.00    +0.000 A 
ATOM     12  C   UNL     1       7.423   4.748  15.873  0.00  0.00    +0.000 A 
ATOM     13  C   UNL     1       6.214   4.296  15.410  0.00  0.00    +0.000 A 
ATOM     14 CL   UNL     1       5.858   3.783  13.810  0.00  0.00    +0.000 Cl
ATOM     15  S   UNL     1       5.005   4.272  16.592  0.00  0.00    +0.000 S 
ENDBRANCH   9  10
ENDBRANCH   1   9
TORSDOF 4
ENDMDL
MODEL 6
REMARK VINA RESULT:      -5.8      1.016      1.194
REMARK  Name = 
REMARK  6 active torsions:
REMARK  status: ('A' for Active; 'I' for Inactive)
REMARK    1  A    between atoms: C_1  and  C_2
REMARK    2  A    between atoms: C_2  and  C_3
REMARK    3  A    between atoms: C_2  and  C_4
REMARK    4  A    between atoms: N_6  and  C_7
REMARK    5  A    between atoms: C_7  and  C_8
REMARK    6  A    between atoms: C_8  and  C_9
REMARK                            x       y       z     vdW  Elec       q    Type
REMARK                         _______ _______ _______ _____ _____    ______ ____
ROOT
ATOM      1  C   UNL     1       3.913   6.103  17.216  0.00  0.00    +0.000 C 
ENDROOT
BRANCH   1   4
ATOM      2  C   UNL     1       6.365   6.205  16.961  0.00  0.00    +0.000 C 
ATOM      3  O   UNL     1       6.322   5.578  15.904  0.00  0.00    +0.000 OA
ATOM      4  N   UNL     1       5.228   6.522  17.671  0.00  0.00    +0.000 N 
ATOM      5  H   UNL     1       5.302   7.031  18.543  0.00  0.00    +0.000 HD
BRANCH   2   7
ATOM      6  C   UNL     1       7.738   8.184  17.664  0.00  0.00    +0.000 C 
ATOM      7  C   UNL     1       7.672   6.658  17.608  0.00  0.00    +0.000 C 
ATOM      8  C   UNL     1       7.829   6.079  19.013  0.00  0.00    +0.000 C 
ENDBRANCH   2   7
ENDBRANCH   1   4
BRANCH   1   9
ATOM      9  C   UNL     1       2.806   6.431  18.221  0.00  0.00    +0.000 C 
BRANCH   9  10
ATOM     10  C   UNL     1       2.243   5.183  18.840  0.00  0.00    +0.000 A 
ATOM     11  C   UNL     1       1.555   4.157  18.216  0.00  0.00    +0.000 A 
ATOM     12  C   UNL     1       1.164   3.132  19.128  0.00  0.00    +0.000 A 
ATOM     13  C   UNL     1       1.575   3.424  20.403  0.00  0.00    +0.000 A 
ATOM     14 CL   UNL     1       1.312   2.472  21.808  0.00  0.00    +0.000 Cl
ATOM     15  S   UNL     1       2.419   4.885  20.522  0.00  0.00    +0.000 S 
ENDBRANCH   9  10
ENDBRANCH   1   9
TORSDOF 4
ENDMDL
MODEL 7
REMARK VINA RESULT:      -5.7      3.906      6.276
REMARK  Name = 
REMARK  6 active torsions:
REMARK  status: ('A' for Active; 'I' for Inactive)
REMARK    1  A    between atoms: C_1  and  C_2
REMARK    2  A    between atoms: C_2  and  C_3
REMARK    3  A    between atoms: C_2  and  C_4
REMARK    4  A    between atoms: N_6  and  C_7
REMARK    5  A    between atoms: C_7  and  C_8
REMARK    6  A    between atoms: C_8  and  C_9
REMARK                            x       y       z     vdW  Elec       q    Type
REMARK                         _______ _______ _______ _____ _____    ______ ____
ROOT
ATOM      1  C   UNL     1       3.258   5.869  18.602  0.00  0.00    +0.000 C 
ENDROOT
BRANCH   1   4
ATOM      2  C   UNL     1       1.645   4.737  20.086  0.00  0.00    +0.000 C 
ATOM      3  O   UNL     1       1.594   5.707  20.839  0.00  0.00    +0.000 OA
ATOM      4  N   UNL     1       2.428   4.730  18.952  0.00  0.00    +0.000 N 
ATOM      5  H   UNL     1       2.452   3.909  18.361  0.00  0.00    +0.000 HD
BRANCH   2   7
ATOM      6  C   UNL     1       0.860   2.572  19.089  0.00  0.00    +0.000 C 
ATOM      7  C   UNL     1       0.886   3.438  20.349  0.00  0.00    +0.000 C 
ATOM      8  C   UNL     1       1.502   2.655  21.506  0.00  0.00    +0.000 C 
ENDBRANCH   2   7
ENDBRANCH   1   4
BRANCH   1   9
ATOM      9  C   UNL     1       4.700   5.725  19.097  0.00  0.00    +0.000 C 
BRANCH   9  10
ATOM     10  C   UNL     1       5.624   5.332  17.981  0.00  0.00    +0.000 A 
ATOM     11  C   UNL     1       6.891   4.780  18.076  0.00  0.00    +0.000 A 
ATOM     12  C   UNL     1       7.477   4.543  16.797  0.00  0.00    +0.000 A 
ATOM     13  C   UNL     1       6.630   4.925  15.788  0.00  0.00    +0.000 A 
ATOM     14 CL   UNL     1       6.936   4.825  14.101  0.00  0.00    +0.000 Cl
ATOM     15  S   UNL     1       5.158   5.546  16.343  0.00  0.00    +0.000 S 
ENDBRANCH   9  10
ENDBRANCH   1   9
TORSDOF 4
ENDMDL
MODEL 8
REMARK VINA RESULT:      -5.7      3.605      6.026
REMARK  Name = 
REMARK  6 active torsions:
REMARK  status: ('A' for Active; 'I' for Inactive)
REMARK    1  A    between atoms: C_1  and  C_2
REMARK    2  A    between atoms: C_2  and  C_3
REMARK    3  A    between atoms: C_2  and  C_4
REMARK    4  A    between atoms: N_6  and  C_7
REMARK    5  A    between atoms: C_7  and  C_8
REMARK    6  A    between atoms: C_8  and  C_9
REMARK                            x       y       z     vdW  Elec       q    Type
REMARK                         _______ _______ _______ _____ _____    ______ ____
ROOT
ATOM      1  C   UNL     1       3.891   2.648  17.919  0.00  0.00    +0.000 C 
ENDROOT
BRANCH   1   4
ATOM      2  C   UNL     1       1.823   2.852  19.249  0.00  0.00    +0.000 C 
ATOM      3  O   UNL     1       1.233   2.047  18.530  0.00  0.00    +0.000 OA
ATOM      4  N   UNL     1       3.139   3.199  19.033  0.00  0.00    +0.000 N 
ATOM      5  H   UNL     1       3.589   3.873  19.639  0.00  0.00    +0.000 HD
BRANCH   2   7
ATOM      6  C   UNL     1       1.338   2.773  21.709  0.00  0.00    +0.000 C 
ATOM      7  C   UNL     1       1.154   3.570  20.419  0.00  0.00    +0.000 C 
ATOM      8  C   UNL     1       1.707   4.983  20.596  0.00  0.00    +0.000 C 
ENDBRANCH   2   7
ENDBRANCH   1   4
BRANCH   1   9
ATOM      9  C   UNL     1       3.920   3.579  16.705  0.00  0.00    +0.000 C 
BRANCH   9  10
ATOM     10  C   UNL     1       4.624   4.868  17.020  0.00  0.00    +0.000 A 
ATOM     11  C   UNL     1       4.063   6.114  17.243  0.00  0.00    +0.000 A 
ATOM     12  C   UNL     1       5.048   7.112  17.510  0.00  0.00    +0.000 A 
ATOM     13  C   UNL     1       6.311   6.579  17.478  0.00  0.00    +0.000 A 
ATOM     14 CL   UNL     1       7.785   7.422  17.734  0.00  0.00    +0.000 Cl
ATOM     15  S   UNL     1       6.335   4.921  17.148  0.00  0.00    +0.000 S 
ENDBRANCH   9  10
ENDBRANCH   1   9
TORSDOF 4
ENDMDL
MODEL 9
REMARK VINA RESULT:      -5.7      2.645      3.025
REMARK  Name = 
REMARK  6 active torsions:
REMARK  status: ('A' for Active; 'I' for Inactive)
REMARK    1  A    between atoms: C_1  and  C_2
REMARK    2  A    between atoms: C_2  and  C_3
REMARK    3  A    between atoms: C_2  and  C_4
REMARK    4  A    between atoms: N_6  and  C_7
REMARK    5  A    between atoms: C_7  and  C_8
REMARK    6  A    between atoms: C_8  and  C_9
REMARK                            x       y       z     vdW  Elec       q    Type
REMARK                         _______ _______ _______ _____ _____    ______ ____
ROOT
ATOM      1  C   UNL     1       4.061   2.958  17.699  0.00  0.00    +0.000 C 
ENDROOT
BRANCH   1   4
ATOM      2  C   UNL     1       6.050   4.372  18.062  0.00  0.00    +0.000 C 
ATOM      3  O   UNL     1       5.819   4.460  19.266  0.00  0.00    +0.000 OA
ATOM      4  N   UNL     1       5.247   3.642  17.213  0.00  0.00    +0.000 N 
ATOM      5  H   UNL     1       5.463   3.600  16.226  0.00  0.00    +0.000 HD
BRANCH   2   7
ATOM      6  C   UNL     1       6.949   5.242  15.887  0.00  0.00    +0.000 C 
ATOM      7  C   UNL     1       7.217   5.086  17.384  0.00  0.00    +0.000 C 
ATOM      8  C   UNL     1       7.474   6.455  18.011  0.00  0.00    +0.000 C 
ENDBRANCH   2   7
ENDBRANCH   1   4
BRANCH   1   9
ATOM      9  C   UNL     1       2.771   3.729  17.409  0.00  0.00    +0.000 C 
BRANCH   9  10
ATOM     10  C   UNL     1       2.365   4.577  18.581  0.00  0.00    +0.000 A 
ATOM     11  C   UNL     1       1.819   4.163  19.784  0.00  0.00    +0.000 A 
ATOM     12  C   UNL     1       1.553   5.256  20.663  0.00  0.00    +0.000 A 
ATOM     13  C   UNL     1       1.911   6.448  20.089  0.00  0.00    +0.000 A 
ATOM     14 CL   UNL     1       1.757   8.009  20.789  0.00  0.00    +0.000 Cl
ATOM     15  S   UNL     1       2.561   6.281  18.536  0.00  0.00    +0.000 S 
ENDBRANCH   9  10
ENDBRANCH   1   9
TORSDOF 4
ENDMDL
