MODEL 1
REMARK VINA RESULT:      -7.3      0.000      0.000
REMARK  Name = 
REMARK  8 active torsions:
REMARK  status: ('A' for Active; 'I' for Inactive)
REMARK    1  A    between atoms: C_1  and  C_2
REMARK    2  A    between atoms: C_2  and  C_3
REMARK    3  A    between atoms: C_2  and  O_4
REMARK    4  A    between atoms: C_2  and  C_12
REMARK    5  A    between atoms: O_4  and  C_5
REMARK    6  A    between atoms: N_14  and  C_15
REMARK    7  A    between atoms: C_22  and  S_23
REMARK    8  A    between atoms: S_23  and  N_24
REMARK                            x       y       z     vdW  Elec       q    Type
REMARK                         _______ _______ _______ _____ _____    ______ ____
ROOT
ATOM      1  C   UNL     1       3.404   6.871  19.123  0.00  0.00    +0.000 C 
ATOM      2  C   UNL     1       4.179   5.677  19.730  0.00  0.00    +0.000 C 
ATOM      3  C   UNL     1       3.281   4.424  19.732  0.00  0.00    +0.000 C 
ATOM      4  C   UNL     1       2.867   4.060  18.299  0.00  0.00    +0.000 C 
ATOM      5  C   UNL     1       2.111   5.238  17.658  0.00  0.00    +0.000 C 
ATOM      6  C   UNL     1       2.990   6.501  17.669  0.00  0.00    +0.000 C 
ATOM      7  C   UNL     1       4.254   6.184  16.819  0.00  0.00    +0.000 C 
ATOM      8  C   UNL     1       5.043   5.004  17.439  0.00  0.00    +0.000 C 
ATOM      9  C   UNL     1       4.136   3.755  17.489  0.00  0.00    +0.000 C 
ATOM     10  C   UNL     1       5.435   5.405  18.879  0.00  0.00    +0.000 C 
ENDROOT
BRANCH   1  13
ATOM     11  C   UNL     1       1.657   8.497  19.870  0.00  0.00    +0.000 C 
ATOM     12  O   UNL     1       1.972   9.262  18.955  0.00  0.00    +0.000 OA
ATOM     13  N   UNL     1       2.272   7.258  19.986  0.00  0.00    +0.000 N 
ATOM     14  H   UNL     1       2.074   6.699  20.802  0.00  0.00    +0.000 HD
BRANCH  11  16
ATOM     15  C   UNL     1       1.419   9.065  22.316  0.00  0.00    +0.000 C 
ATOM     16  C   UNL     1       0.623   8.925  20.990  0.00  0.00    +0.000 C 
ATOM     17  C   UNL     1      -0.405   7.812  21.260  0.00  0.00    +0.000 C 
BRANCH  16  18
ATOM     18  O   UNL     1       0.010  10.215  20.877  0.00  0.00    +0.000 OA
BRANCH  18  19
ATOM     19  C   UNL     1      -0.567  10.668  19.730  0.00  0.00    +0.000 A 
ATOM     20  C   UNL     1      -1.508   9.939  19.002  0.00  0.00    +0.000 A 
ATOM     21  C   UNL     1      -2.110  10.485  17.865  0.00  0.00    +0.000 A 
ATOM     22  C   UNL     1      -1.809  11.785  17.470  0.00  0.00    +0.000 A 
ATOM     23  C   UNL     1      -0.910  12.543  18.218  0.00  0.00    +0.000 A 
ATOM     24  C   UNL     1      -0.296  11.990  19.345  0.00  0.00    +0.000 A 
ATOM     25 CL   UNL     1       0.800  12.983  20.242  0.00  0.00    +0.000 Cl
ENDBRANCH  18  19
ENDBRANCH  16  18
ENDBRANCH  11  16
ENDBRANCH   1  13
BRANCH   8  26
ATOM     26  S   UNL     1       6.569   4.643  16.499  0.00  0.00    +0.000 S 
ATOM     27  O   UNL     1       6.338   3.528  15.605  0.00  0.00    +0.000 OA
ATOM     28  O   UNL     1       7.170   5.878  16.041  0.00  0.00    +0.000 OA
BRANCH  26  29
ATOM     29  N   UNL     1       7.622   4.054  17.664  0.00  0.00    +0.000 NA
ATOM     30  H   UNL     1       8.559   3.975  17.257  0.00  0.00    +0.000 HD
ATOM     31  H   UNL     1       7.282   3.158  18.019  0.00  0.00    +0.000 HD
ENDBRANCH  26  29
ENDBRANCH   8  26
TORSDOF 6
ENDMDL
MODEL 2
REMARK VINA RESULT:      -7.3      1.576      1.892
REMARK  Name = 
REMARK  8 active torsions:
REMARK  status: ('A' for Active; 'I' for Inactive)
REMARK    1  A    between atoms: C_1  and  C_2
REMARK    2  A    between atoms: C_2  and  C_3
REMARK    3  A    between atoms: C_2  and  O_4
REMARK    4  A    between atoms: C_2  and  C_12
REMARK    5  A    between atoms: O_4  and  C_5
REMARK    6  A    between atoms: N_14  and  C_15
REMARK    7  A    between atoms: C_22  and  S_23
REMARK    8  A    between atoms: S_23  and  N_24
REMARK                            x       y       z     vdW  Elec       q    Type
REMARK                         _______ _______ _______ _____ _____    ______ ____
ROOT
ATOM      1  C   UNL     1       3.283   6.987  19.283  0.00  0.00    +0.000 C 
ATOM      2  C   UNL     1       3.947   5.700  19.830  0.00  0.00    +0.000 C 
ATOM      3  C   UNL     1       2.922   4.549  19.834  0.00  0.00    +0.000 C 
ATOM      4  C   UNL     1       2.421   4.274  18.408  0.00  0.00    +0.000 C 
ATOM      5  C   UNL     1       1.773   5.543  17.826  0.00  0.00    +0.000 C 
ATOM      6  C   UNL     1       2.783   6.706  17.837  0.00  0.00    +0.000 C 
ATOM      7  C   UNL     1       3.976   6.283  16.932  0.00  0.00    +0.000 C 
ATOM      8  C   UNL     1       4.655   5.008  17.491  0.00  0.00    +0.000 C 
ATOM      9  C   UNL     1       3.622   3.861  17.543  0.00  0.00    +0.000 C 
ATOM     10  C   UNL     1       5.137   5.322  18.925  0.00  0.00    +0.000 C 
ENDROOT
BRANCH   1  13
ATOM     11  C   UNL     1       1.585   8.678  19.997  0.00  0.00    +0.000 C 
ATOM     12  O   UNL     1       1.801   9.332  18.973  0.00  0.00    +0.000 OA
ATOM     13  N   UNL     1       2.230   7.465  20.198  0.00  0.00    +0.000 N 
ATOM     14  H   UNL     1       2.119   7.005  21.089  0.00  0.00    +0.000 HD
BRANCH  11  16
ATOM     15  C   UNL     1       1.378   8.951  22.495  0.00  0.00    +0.000 C 
ATOM     16  C   UNL     1       0.652   9.228  21.151  0.00  0.00    +0.000 C 
ATOM     17  C   UNL     1      -0.662   8.432  21.238  0.00  0.00    +0.000 C 
BRANCH  16  18
ATOM     18  O   UNL     1       0.436  10.643  21.220  0.00  0.00    +0.000 OA
BRANCH  18  19
ATOM     19  C   UNL     1      -0.752  11.199  21.585  0.00  0.00    +0.000 A 
ATOM     20  C   UNL     1      -1.190  11.276  22.908  0.00  0.00    +0.000 A 
ATOM     21  C   UNL     1      -2.391  11.914  23.226  0.00  0.00    +0.000 A 
ATOM     22  C   UNL     1      -3.146  12.522  22.228  0.00  0.00    +0.000 A 
ATOM     23  C   UNL     1      -2.694  12.499  20.910  0.00  0.00    +0.000 A 
ATOM     24  C   UNL     1      -1.500  11.845  20.591  0.00  0.00    +0.000 A 
ATOM     25 CL   UNL     1      -0.982  11.861  18.941  0.00  0.00    +0.000 Cl
ENDBRANCH  18  19
ENDBRANCH  16  18
ENDBRANCH  11  16
ENDBRANCH   1  13
BRANCH   8  26
ATOM     26  S   UNL     1       6.100   4.516  16.485  0.00  0.00    +0.000 S 
ATOM     27  O   UNL     1       5.819   3.269  15.807  0.00  0.00    +0.000 OA
ATOM     28  O   UNL     1       6.627   5.667  15.783  0.00  0.00    +0.000 OA
BRANCH  26  29
ATOM     29  N   UNL     1       7.268   4.135  17.629  0.00  0.00    +0.000 NA
ATOM     30  H   UNL     1       6.993   4.537  18.531  0.00  0.00    +0.000 HD
ATOM     31  H   UNL     1       8.180   4.475  17.319  0.00  0.00    +0.000 HD
ENDBRANCH  26  29
ENDBRANCH   8  26
TORSDOF 6
ENDMDL
MODEL 3
REMARK VINA RESULT:      -7.2      1.202      1.347
REMARK  Name = 
REMARK  8 active torsions:
REMARK  status: ('A' for Active; 'I' for Inactive)
REMARK    1  A    between atoms: C_1  and  C_2
REMARK    2  A    between atoms: C_2  and  C_3
REMARK    3  A    between atoms: C_2  and  O_4
REMARK    4  A    between atoms: C_2  and  C_12
REMARK    5  A    between atoms: O_4  and  C_5
REMARK    6  A    between atoms: N_14  and  C_15
REMARK    7  A    between atoms: C_22  and  S_23
REMARK    8  A    between atoms: S_23  and  N_24
REMARK                            x       y       z     vdW  Elec       q    Type
REMARK                         _______ _______ _______ _____ _____    ______ ____
ROOT
ATOM      1  C   UNL     1       3.350   6.834  19.127  0.00  0.00    +0.000 C 
ATOM      2  C   UNL     1       4.119   5.644  19.752  0.00  0.00    +0.000 C 
ATOM      3  C   UNL     1       3.184   4.424  19.866  0.00  0.00    +0.000 C 
ATOM      4  C   UNL     1       2.680   4.006  18.476  0.00  0.00    +0.000 C 
ATOM      5  C   UNL     1       1.927   5.176  17.819  0.00  0.00    +0.000 C 
ATOM      6  C   UNL     1       2.845   6.408  17.719  0.00  0.00    +0.000 C 
ATOM      7  C   UNL     1       4.050   6.007  16.819  0.00  0.00    +0.000 C 
ATOM      8  C   UNL     1       4.834   4.832  17.454  0.00  0.00    +0.000 C 
ATOM      9  C   UNL     1       3.892   3.619  17.616  0.00  0.00    +0.000 C 
ATOM     10  C   UNL     1       5.317   5.288  18.849  0.00  0.00    +0.000 C 
ENDROOT
BRANCH   1  13
ATOM     11  C   UNL     1       1.679   8.541  19.867  0.00  0.00    +0.000 C 
ATOM     12  O   UNL     1       1.949   9.235  18.884  0.00  0.00    +0.000 OA
ATOM     13  N   UNL     1       2.281   7.300  20.030  0.00  0.00    +0.000 N 
ATOM     14  H   UNL     1       2.126   6.802  20.893  0.00  0.00    +0.000 HD
BRANCH  11  16
ATOM     15  C   UNL     1       1.506   8.939  22.351  0.00  0.00    +0.000 C 
ATOM     16  C   UNL     1       0.724   9.064  21.016  0.00  0.00    +0.000 C 
ATOM     17  C   UNL     1      -0.502   8.150  21.187  0.00  0.00    +0.000 C 
BRANCH  16  18
ATOM     18  O   UNL     1       0.370  10.452  21.011  0.00  0.00    +0.000 OA
BRANCH  18  19
ATOM     19  C   UNL     1      -0.680  10.952  20.303  0.00  0.00    +0.000 A 
ATOM     20  C   UNL     1      -0.999  10.543  19.008  0.00  0.00    +0.000 A 
ATOM     21  C   UNL     1      -2.127  11.049  18.356  0.00  0.00    +0.000 A 
ATOM     22  C   UNL     1      -2.973  11.938  19.012  0.00  0.00    +0.000 A 
ATOM     23  C   UNL     1      -2.695  12.315  20.325  0.00  0.00    +0.000 A 
ATOM     24  C   UNL     1      -1.557  11.821  20.969  0.00  0.00    +0.000 A 
ATOM     25 CL   UNL     1      -1.272  12.312  22.602  0.00  0.00    +0.000 Cl
ENDBRANCH  18  19
ENDBRANCH  16  18
ENDBRANCH  11  16
ENDBRANCH   1  13
BRANCH   8  26
ATOM     26  S   UNL     1       6.293   4.373  16.453  0.00  0.00    +0.000 S 
ATOM     27  O   UNL     1       7.472   4.351  17.291  0.00  0.00    +0.000 OA
ATOM     28  O   UNL     1       5.961   3.275  15.571  0.00  0.00    +0.000 OA
BRANCH  26  29
ATOM     29  N   UNL     1       6.507   5.693  15.438  0.00  0.00    +0.000 NA
ATOM     30  H   UNL     1       7.047   5.398  14.619  0.00  0.00    +0.000 HD
ATOM     31  H   UNL     1       6.965   6.451  15.947  0.00  0.00    +0.000 HD
ENDBRANCH  26  29
ENDBRANCH   8  26
TORSDOF 6
ENDMDL
MODEL 4
REMARK VINA RESULT:      -7.2      8.793     10.832
REMARK  Name = 
REMARK  8 active torsions:
REMARK  status: ('A' for Active; 'I' for Inactive)
REMARK    1  A    between atoms: C_1  and  C_2
REMARK    2  A    between atoms: C_2  and  C_3
REMARK    3  A    between atoms: C_2  and  O_4
REMARK    4  A    between atoms: C_2  and  C_12
REMARK    5  A    between atoms: O_4  and  C_5
REMARK    6  A    between atoms: N_14  and  C_15
REMARK    7  A    between atoms: C_22  and  S_23
REMARK    8  A    between atoms: S_23  and  N_24
REMARK                            x       y       z     vdW  Elec       q    Type
REMARK                         _______ _______ _______ _____ _____    ______ ____
ROOT
ATOM      1  C   UNL     1       6.490  13.318  23.148  0.00  0.00    +0.000 C 
ATOM      2  C   UNL     1       6.938  11.865  23.438  0.00  0.00    +0.000 C 
ATOM      3  C   UNL     1       8.357  11.870  24.040  0.00  0.00    +0.000 C 
ATOM      4  C   UNL     1       8.376  12.660  25.357  0.00  0.00    +0.000 C 
ATOM      5  C   UNL     1       7.914  14.107  25.107  0.00  0.00    +0.000 C 
ATOM      6  C   UNL     1       6.505  14.113  24.486  0.00  0.00    +0.000 C 
ATOM      7  C   UNL     1       5.549  13.444  25.515  0.00  0.00    +0.000 C 
ATOM      8  C   UNL     1       5.983  11.983  25.788  0.00  0.00    +0.000 C 
ATOM      9  C   UNL     1       7.422  11.974  26.348  0.00  0.00    +0.000 C 
ATOM     10  C   UNL     1       5.958  11.225  24.442  0.00  0.00    +0.000 C 
ENDROOT
BRANCH   1  13
ATOM     11  C   UNL     1       6.755  14.705  21.085  0.00  0.00    +0.000 C 
ATOM     12  O   UNL     1       5.562  15.011  21.133  0.00  0.00    +0.000 OA
ATOM     13  N   UNL     1       7.315  13.920  22.085  0.00  0.00    +0.000 N 
ATOM     14  H   UNL     1       8.262  13.596  21.966  0.00  0.00    +0.000 HD
BRANCH  11  16
ATOM     15  C   UNL     1       7.711  16.655  19.802  0.00  0.00    +0.000 C 
ATOM     16  C   UNL     1       7.665  15.104  19.852  0.00  0.00    +0.000 C 
ATOM     17  C   UNL     1       7.022  14.682  18.519  0.00  0.00    +0.000 C 
BRANCH  16  18
ATOM     18  O   UNL     1       9.057  14.771  19.913  0.00  0.00    +0.000 OA
BRANCH  18  19
ATOM     19  C   UNL     1       9.597  13.701  19.267  0.00  0.00    +0.000 A 
ATOM     20  C   UNL     1       9.386  12.378  19.660  0.00  0.00    +0.000 A 
ATOM     21  C   UNL     1       9.918  11.320  18.919  0.00  0.00    +0.000 A 
ATOM     22  C   UNL     1      10.631  11.572  17.751  0.00  0.00    +0.000 A 
ATOM     23  C   UNL     1      10.805  12.886  17.319  0.00  0.00    +0.000 A 
ATOM     24  C   UNL     1      10.287  13.945  18.070  0.00  0.00    +0.000 A 
ATOM     25 CL   UNL     1      10.522  15.552  17.477  0.00  0.00    +0.000 Cl
ENDBRANCH  18  19
ENDBRANCH  16  18
ENDBRANCH  11  16
ENDBRANCH   1  13
BRANCH   8  26
ATOM     26  S   UNL     1       4.846  11.146  26.949  0.00  0.00    +0.000 S 
ATOM     27  O   UNL     1       5.608  10.365  27.900  0.00  0.00    +0.000 OA
ATOM     28  O   UNL     1       3.808  12.063  27.370  0.00  0.00    +0.000 OA
BRANCH  26  29
ATOM     29  N   UNL     1       4.061  10.015  25.989  0.00  0.00    +0.000 NA
ATOM     30  H   UNL     1       3.982   9.135  26.509  0.00  0.00    +0.000 HD
ATOM     31  H   UNL     1       4.567   9.897  25.109  0.00  0.00    +0.000 HD
ENDBRANCH  26  29
ENDBRANCH   8  26
TORSDOF 6
ENDMDL
MODEL 5
REMARK VINA RESULT:      -7.2      1.634      2.197
REMARK  Name = 
REMARK  8 active torsions:
REMARK  status: ('A' for Active; 'I' for Inactive)
REMARK    1  A    between atoms: C_1  and  C_2
REMARK    2  A    between atoms: C_2  and  C_3
REMARK    3  A    between atoms: C_2  and  O_4
REMARK    4  A    between atoms: C_2  and  C_12
REMARK    5  A    between atoms: O_4  and  C_5
REMARK    6  A    between atoms: N_14  and  C_15
REMARK    7  A    between atoms: C_22  and  S_23
REMARK    8  A    between atoms: S_23  and  N_24
REMARK                            x       y       z     vdW  Elec       q    Type
REMARK                         _______ _______ _______ _____ _____    ______ ____
ROOT
ATOM      1  C   UNL     1       3.377   7.025  18.914  0.00  0.00    +0.000 C 
ATOM      2  C   UNL     1       4.127   5.943  19.729  0.00  0.00    +0.000 C 
ATOM      3  C   UNL     1       3.250   4.681  19.846  0.00  0.00    +0.000 C 
ATOM      4  C   UNL     1       2.938   4.116  18.453  0.00  0.00    +0.000 C 
ATOM      5  C   UNL     1       2.209   5.177  17.609  0.00  0.00    +0.000 C 
ATOM      6  C   UNL     1       3.068   6.451  17.502  0.00  0.00    +0.000 C 
ATOM      7  C   UNL     1       4.390   6.051  16.787  0.00  0.00    +0.000 C 
ATOM      8  C   UNL     1       5.153   4.985  17.612  0.00  0.00    +0.000 C 
ATOM      9  C   UNL     1       4.263   3.734  17.775  0.00  0.00    +0.000 C 
ATOM     10  C   UNL     1       5.442   5.588  19.005  0.00  0.00    +0.000 C 
ENDROOT
BRANCH   1  13
ATOM     11  C   UNL     1       1.633   8.750  19.400  0.00  0.00    +0.000 C 
ATOM     12  O   UNL     1       2.064   9.450  18.480  0.00  0.00    +0.000 OA
ATOM     13  N   UNL     1       2.186   7.499  19.642  0.00  0.00    +0.000 N 
ATOM     14  H   UNL     1       1.889   6.995  20.464  0.00  0.00    +0.000 HD
BRANCH  11  16
ATOM     15  C   UNL     1       0.034   8.059  21.223  0.00  0.00    +0.000 C 
ATOM     16  C   UNL     1       0.516   9.277  20.390  0.00  0.00    +0.000 C 
ATOM     17  C   UNL     1      -0.732   9.753  19.626  0.00  0.00    +0.000 C 
BRANCH  16  18
ATOM     18  O   UNL     1       0.910  10.197  21.414  0.00  0.00    +0.000 OA
BRANCH  18  19
ATOM     19  C   UNL     1       0.149  11.261  21.794  0.00  0.00    +0.000 A 
ATOM     20  C   UNL     1      -0.862  11.180  22.752  0.00  0.00    +0.000 A 
ATOM     21  C   UNL     1      -1.567  12.321  23.145  0.00  0.00    +0.000 A 
ATOM     22  C   UNL     1      -1.237  13.564  22.614  0.00  0.00    +0.000 A 
ATOM     23  C   UNL     1      -0.194  13.667  21.695  0.00  0.00    +0.000 A 
ATOM     24  C   UNL     1       0.499  12.522  21.291  0.00  0.00    +0.000 A 
ATOM     25 CL   UNL     1       1.793  12.714  20.160  0.00  0.00    +0.000 Cl
ENDBRANCH  18  19
ENDBRANCH  16  18
ENDBRANCH  11  16
ENDBRANCH   1  13
BRANCH   8  26
ATOM     26  S   UNL     1       6.743   4.535  16.831  0.00  0.00    +0.000 S 
ATOM     27  O   UNL     1       7.723   4.242  17.854  0.00  0.00    +0.000 OA
ATOM     28  O   UNL     1       6.509   3.641  15.717  0.00  0.00    +0.000 OA
BRANCH  26  29
ATOM     29  N   UNL     1       7.260   5.971  16.132  0.00  0.00    +0.000 NA
ATOM     30  H   UNL     1       6.486   6.379  15.598  0.00  0.00    +0.000 HD
ATOM     31  H   UNL     1       8.080   5.796  15.547  0.00  0.00    +0.000 HD
ENDBRANCH  26  29
ENDBRANCH   8  26
TORSDOF 6
ENDMDL
MODEL 6
REMARK VINA RESULT:      -7.1      8.835     10.953
REMARK  Name = 
REMARK  8 active torsions:
REMARK  status: ('A' for Active; 'I' for Inactive)
REMARK    1  A    between atoms: C_1  and  C_2
REMARK    2  A    between atoms: C_2  and  C_3
REMARK    3  A    between atoms: C_2  and  O_4
REMARK    4  A    between atoms: C_2  and  C_12
REMARK    5  A    between atoms: O_4  and  C_5
REMARK    6  A    between atoms: N_14  and  C_15
REMARK    7  A    between atoms: C_22  and  S_23
REMARK    8  A    between atoms: S_23  and  N_24
REMARK                            x       y       z     vdW  Elec       q    Type
REMARK                         _______ _______ _______ _____ _____    ______ ____
ROOT
ATOM      1  C   UNL     1       6.400  13.334  23.561  0.00  0.00    +0.000 C 
ATOM      2  C   UNL     1       6.815  11.873  23.858  0.00  0.00    +0.000 C 
ATOM      3  C   UNL     1       8.213  11.853  24.508  0.00  0.00    +0.000 C 
ATOM      4  C   UNL     1       8.199  12.636  25.829  0.00  0.00    +0.000 C 
ATOM      5  C   UNL     1       7.768  14.091  25.571  0.00  0.00    +0.000 C 
ATOM      6  C   UNL     1       6.382  14.123  24.902  0.00  0.00    +0.000 C 
ATOM      7  C   UNL     1       5.381  13.464  25.894  0.00  0.00    +0.000 C 
ATOM      8  C   UNL     1       5.783  11.995  26.175  0.00  0.00    +0.000 C 
ATOM      9  C   UNL     1       7.201  11.961  26.784  0.00  0.00    +0.000 C 
ATOM     10  C   UNL     1       5.792  11.244  24.825  0.00  0.00    +0.000 C 
ENDROOT
BRANCH   1  13
ATOM     11  C   UNL     1       6.747  14.506  21.379  0.00  0.00    +0.000 C 
ATOM     12  O   UNL     1       5.528  14.638  21.252  0.00  0.00    +0.000 OA
ATOM     13  N   UNL     1       7.270  13.928  22.529  0.00  0.00    +0.000 N 
ATOM     14  H   UNL     1       8.259  13.735  22.561  0.00  0.00    +0.000 HD
BRANCH  11  16
ATOM     15  C   UNL     1       7.979  16.427  20.305  0.00  0.00    +0.000 C 
ATOM     16  C   UNL     1       7.750  14.894  20.217  0.00  0.00    +0.000 C 
ATOM     17  C   UNL     1       7.119  14.666  18.832  0.00  0.00    +0.000 C 
BRANCH  16  18
ATOM     18  O   UNL     1       9.089  14.392  20.293  0.00  0.00    +0.000 OA
BRANCH  18  19
ATOM     19  C   UNL     1       9.643  13.597  19.338  0.00  0.00    +0.000 A 
ATOM     20  C   UNL     1      10.241  14.091  18.177  0.00  0.00    +0.000 A 
ATOM     21  C   UNL     1      10.847  13.226  17.262  0.00  0.00    +0.000 A 
ATOM     22  C   UNL     1      10.901  11.860  17.521  0.00  0.00    +0.000 A 
ATOM     23  C   UNL     1      10.355  11.359  18.701  0.00  0.00    +0.000 A 
ATOM     24  C   UNL     1       9.733  12.223  19.607  0.00  0.00    +0.000 A 
ATOM     25 CL   UNL     1       9.086  11.546  21.061  0.00  0.00    +0.000 Cl
ENDBRANCH  18  19
ENDBRANCH  16  18
ENDBRANCH  11  16
ENDBRANCH   1  13
BRANCH   8  26
ATOM     26  S   UNL     1       4.593  11.171  27.292  0.00  0.00    +0.000 S 
ATOM     27  O   UNL     1       5.310  10.386  28.274  0.00  0.00    +0.000 OA
ATOM     28  O   UNL     1       3.547  12.098  27.669  0.00  0.00    +0.000 OA
BRANCH  26  29
ATOM     29  N   UNL     1       3.837  10.044  26.304  0.00  0.00    +0.000 NA
ATOM     30  H   UNL     1       3.153   9.521  26.859  0.00  0.00    +0.000 HD
ATOM     31  H   UNL     1       4.536   9.431  25.879  0.00  0.00    +0.000 HD
ENDBRANCH  26  29
ENDBRANCH   8  26
TORSDOF 6
ENDMDL
MODEL 7
REMARK VINA RESULT:      -7.1      3.643      8.261
REMARK  Name = 
REMARK  8 active torsions:
REMARK  status: ('A' for Active; 'I' for Inactive)
REMARK    1  A    between atoms: C_1  and  C_2
REMARK    2  A    between atoms: C_2  and  C_3
REMARK    3  A    between atoms: C_2  and  O_4
REMARK    4  A    between atoms: C_2  and  C_12
REMARK    5  A    between atoms: O_4  and  C_5
REMARK    6  A    between atoms: N_14  and  C_15
REMARK    7  A    between atoms: C_22  and  S_23
REMARK    8  A    between atoms: S_23  and  N_24
REMARK                            x       y       z     vdW  Elec       q    Type
REMARK                         _______ _______ _______ _____ _____    ______ ____
ROOT
ATOM      1  C   UNL     1       1.239   9.049  19.984  0.00  0.00    +0.000 C 
ATOM      2  C   UNL     1      -0.302   8.984  20.118  0.00  0.00    +0.000 C 
ATOM      3  C   UNL     1      -0.679   8.398  21.493  0.00  0.00    +0.000 C 
ATOM      4  C   UNL     1      -0.126   9.283  22.621  0.00  0.00    +0.000 C 
ATOM      5  C   UNL     1       1.405   9.385  22.503  0.00  0.00    +0.000 C 
ATOM      6  C   UNL     1       1.794   9.950  21.125  0.00  0.00    +0.000 C 
ATOM      7  C   UNL     1       1.179  11.376  21.026  0.00  0.00    +0.000 C 
ATOM      8  C   UNL     1      -0.365  11.310  21.137  0.00  0.00    +0.000 C 
ATOM      9  C   UNL     1      -0.751  10.680  22.493  0.00  0.00    +0.000 C 
ATOM     10  C   UNL     1      -0.880  10.408  19.993  0.00  0.00    +0.000 C 
ENDROOT
BRANCH   1  13
ATOM     11  C   UNL     1       2.430   7.188  18.813  0.00  0.00    +0.000 C 
ATOM     12  O   UNL     1       2.600   7.912  17.829  0.00  0.00    +0.000 OA
ATOM     13  N   UNL     1       1.821   7.695  19.954  0.00  0.00    +0.000 N 
ATOM     14  H   UNL     1       1.598   7.056  20.702  0.00  0.00    +0.000 HD
BRANCH  11  16
ATOM     15  C   UNL     1       1.630   4.907  18.094  0.00  0.00    +0.000 C 
ATOM     16  C   UNL     1       2.804   5.650  18.787  0.00  0.00    +0.000 C 
ATOM     17  C   UNL     1       2.864   5.063  20.208  0.00  0.00    +0.000 C 
BRANCH  16  18
ATOM     18  O   UNL     1       3.921   5.248  17.986  0.00  0.00    +0.000 OA
BRANCH  18  19
ATOM     19  C   UNL     1       5.193   5.678  18.208  0.00  0.00    +0.000 A 
ATOM     20  C   UNL     1       5.952   5.297  19.316  0.00  0.00    +0.000 A 
ATOM     21  C   UNL     1       7.274   5.724  19.458  0.00  0.00    +0.000 A 
ATOM     22  C   UNL     1       7.867   6.503  18.469  0.00  0.00    +0.000 A 
ATOM     23  C   UNL     1       7.138   6.848  17.332  0.00  0.00    +0.000 A 
ATOM     24  C   UNL     1       5.810   6.434  17.200  0.00  0.00    +0.000 A 
ATOM     25 CL   UNL     1       4.959   6.880  15.761  0.00  0.00    +0.000 Cl
ENDBRANCH  18  19
ENDBRANCH  16  18
ENDBRANCH  11  16
ENDBRANCH   1  13
BRANCH   8  26
ATOM     26  S   UNL     1      -1.125  12.963  20.965  0.00  0.00    +0.000 S 
ATOM     27  O   UNL     1      -2.329  13.031  21.765  0.00  0.00    +0.000 OA
ATOM     28  O   UNL     1      -0.104  13.986  21.032  0.00  0.00    +0.000 OA
BRANCH  26  29
ATOM     29  N   UNL     1      -1.660  12.989  19.374  0.00  0.00    +0.000 NA
ATOM     30  H   UNL     1      -0.867  13.198  18.760  0.00  0.00    +0.000 HD
ATOM     31  H   UNL     1      -2.415  13.670  19.273  0.00  0.00    +0.000 HD
ENDBRANCH  26  29
ENDBRANCH   8  26
TORSDOF 6
ENDMDL
MODEL 8
REMARK VINA RESULT:      -7.1      4.056      8.461
REMARK  Name = 
REMARK  8 active torsions:
REMARK  status: ('A' for Active; 'I' for Inactive)
REMARK    1  A    between atoms: C_1  and  C_2
REMARK    2  A    between atoms: C_2  and  C_3
REMARK    3  A    between atoms: C_2  and  O_4
REMARK    4  A    between atoms: C_2  and  C_12
REMARK    5  A    between atoms: O_4  and  C_5
REMARK    6  A    between atoms: N_14  and  C_15
REMARK    7  A    between atoms: C_22  and  S_23
REMARK    8  A    between atoms: S_23  and  N_24
REMARK                            x       y       z     vdW  Elec       q    Type
REMARK                         _______ _______ _______ _____ _____    ______ ____
ROOT
ATOM      1  C   UNL     1       0.950   9.632  19.877  0.00  0.00    +0.000 C 
ATOM      2  C   UNL     1      -0.529   9.270  20.157  0.00  0.00    +0.000 C 
ATOM      3  C   UNL     1      -0.638   8.542  21.511  0.00  0.00    +0.000 C 
ATOM      4  C   UNL     1      -0.132   9.444  22.646  0.00  0.00    +0.000 C 
ATOM      5  C   UNL     1       1.333   9.840  22.387  0.00  0.00    +0.000 C 
ATOM      6  C   UNL     1       1.457  10.551  21.026  0.00  0.00    +0.000 C 
ATOM      7  C   UNL     1       0.587  11.838  21.103  0.00  0.00    +0.000 C 
ATOM      8  C   UNL     1      -0.897  11.476  21.360  0.00  0.00    +0.000 C 
ATOM      9  C   UNL     1      -1.010  10.704  22.693  0.00  0.00    +0.000 C 
ATOM     10  C   UNL     1      -1.365  10.565  20.204  0.00  0.00    +0.000 C 
ENDROOT
BRANCH   1  13
ATOM     11  C   UNL     1       2.311   8.097  18.447  0.00  0.00    +0.000 C 
ATOM     12  O   UNL     1       2.228   8.893  17.509  0.00  0.00    +0.000 OA
ATOM     13  N   UNL     1       1.760   8.415  19.682  0.00  0.00    +0.000 N 
ATOM     14  H   UNL     1       1.747   7.705  20.398  0.00  0.00    +0.000 HD
BRANCH  11  16
ATOM     15  C   UNL     1       4.077   6.797  17.202  0.00  0.00    +0.000 C 
ATOM     16  C   UNL     1       2.952   6.661  18.263  0.00  0.00    +0.000 C 
ATOM     17  C   UNL     1       1.945   5.671  17.651  0.00  0.00    +0.000 C 
BRANCH  16  18
ATOM     18  O   UNL     1       3.660   6.099  19.373  0.00  0.00    +0.000 OA
BRANCH  18  19
ATOM     19  C   UNL     1       3.267   4.962  20.010  0.00  0.00    +0.000 A 
ATOM     20  C   UNL     1       2.166   4.901  20.867  0.00  0.00    +0.000 A 
ATOM     21  C   UNL     1       1.776   3.689  21.443  0.00  0.00    +0.000 A 
ATOM     22  C   UNL     1       2.458   2.516  21.134  0.00  0.00    +0.000 A 
ATOM     23  C   UNL     1       3.527   2.553  20.240  0.00  0.00    +0.000 A 
ATOM     24  C   UNL     1       3.926   3.769  19.677  0.00  0.00    +0.000 A 
ATOM     25 CL   UNL     1       5.249   3.752  18.564  0.00  0.00    +0.000 Cl
ENDBRANCH  18  19
ENDBRANCH  16  18
ENDBRANCH  11  16
ENDBRANCH   1  13
BRANCH   8  26
ATOM     26  S   UNL     1      -1.958  12.964  21.397  0.00  0.00    +0.000 S 
ATOM     27  O   UNL     1      -3.308  12.591  21.760  0.00  0.00    +0.000 OA
ATOM     28  O   UNL     1      -1.263  14.051  22.053  0.00  0.00    +0.000 OA
BRANCH  26  29
ATOM     29  N   UNL     1      -2.053  13.422  19.785  0.00  0.00    +0.000 NA
ATOM     30  H   UNL     1      -3.032  13.377  19.483  0.00  0.00    +0.000 HD
ATOM     31  H   UNL     1      -1.449  12.824  19.218  0.00  0.00    +0.000 HD
ENDBRANCH  26  29
ENDBRANCH   8  26
TORSDOF 6
ENDMDL
MODEL 9
REMARK VINA RESULT:      -7.0      1.587      2.217
REMARK  Name = 
REMARK  8 active torsions:
REMARK  status: ('A' for Active; 'I' for Inactive)
REMARK    1  A    between atoms: C_1  and  C_2
REMARK    2  A    between atoms: C_2  and  C_3
REMARK    3  A    between atoms: C_2  and  O_4
REMARK    4  A    between atoms: C_2  and  C_12
REMARK    5  A    between atoms: O_4  and  C_5
REMARK    6  A    between atoms: N_14  and  C_15
REMARK    7  A    between atoms: C_22  and  S_23
REMARK    8  A    between atoms: S_23  and  N_24
REMARK                            x       y       z     vdW  Elec       q    Type
REMARK                         _______ _______ _______ _____ _____    ______ ____
ROOT
ATOM      1  C   UNL     1       3.347   7.053  18.987  0.00  0.00    +0.000 C 
ATOM      2  C   UNL     1       4.044   5.909  19.763  0.00  0.00    +0.000 C 
ATOM      3  C   UNL     1       3.114   4.681  19.822  0.00  0.00    +0.000 C 
ATOM      4  C   UNL     1       2.792   4.185  18.405  0.00  0.00    +0.000 C 
ATOM      5  C   UNL     1       2.117   5.308  17.598  0.00  0.00    +0.000 C 
ATOM      6  C   UNL     1       3.028   6.549  17.550  0.00  0.00    +0.000 C 
ATOM      7  C   UNL     1       4.340   6.123  16.830  0.00  0.00    +0.000 C 
ATOM      8  C   UNL     1       5.050   4.994  17.619  0.00  0.00    +0.000 C 
ATOM      9  C   UNL     1       4.107   3.775  17.724  0.00  0.00    +0.000 C 
ATOM     10  C   UNL     1       5.349   5.528  19.037  0.00  0.00    +0.000 C 
ENDROOT
BRANCH   1  13
ATOM     11  C   UNL     1       1.593   8.777  19.438  0.00  0.00    +0.000 C 
ATOM     12  O   UNL     1       1.990   9.438  18.475  0.00  0.00    +0.000 OA
ATOM     13  N   UNL     1       2.169   7.546  19.724  0.00  0.00    +0.000 N 
ATOM     14  H   UNL     1       1.901   7.078  20.576  0.00  0.00    +0.000 HD
BRANCH  11  16
ATOM     15  C   UNL     1       0.059   8.156  21.340  0.00  0.00    +0.000 C 
ATOM     16  C   UNL     1       0.495   9.337  20.431  0.00  0.00    +0.000 C 
ATOM     17  C   UNL     1      -0.782   9.753  19.680  0.00  0.00    +0.000 C 
BRANCH  16  18
ATOM     18  O   UNL     1       0.902  10.316  21.395  0.00  0.00    +0.000 OA
BRANCH  18  19
ATOM     19  C   UNL     1       0.650  11.646  21.259  0.00  0.00    +0.000 A 
ATOM     20  C   UNL     1       1.293  12.459  20.323  0.00  0.00    +0.000 A 
ATOM     21  C   UNL     1       0.946  13.806  20.190  0.00  0.00    +0.000 A 
ATOM     22  C   UNL     1      -0.078  14.344  20.963  0.00  0.00    +0.000 A 
ATOM     23  C   UNL     1      -0.763  13.532  21.864  0.00  0.00    +0.000 A 
ATOM     24  C   UNL     1      -0.404  12.189  22.008  0.00  0.00    +0.000 A 
ATOM     25 CL   UNL     1      -1.299  11.225  23.131  0.00  0.00    +0.000 Cl
ENDBRANCH  18  19
ENDBRANCH  16  18
ENDBRANCH  11  16
ENDBRANCH   1  13
BRANCH   8  26
ATOM     26  S   UNL     1       6.627   4.510  16.832  0.00  0.00    +0.000 S 
ATOM     27  O   UNL     1       7.613   4.225  17.853  0.00  0.00    +0.000 OA
ATOM     28  O   UNL     1       6.374   3.597  15.738  0.00  0.00    +0.000 OA
BRANCH  26  29
ATOM     29  N   UNL     1       7.156   5.926  16.102  0.00  0.00    +0.000 NA
ATOM     30  H   UNL     1       6.342   6.500  15.862  0.00  0.00    +0.000 HD
ATOM     31  H   UNL     1       7.723   5.702  15.281  0.00  0.00    +0.000 HD
ENDBRANCH  26  29
ENDBRANCH   8  26
TORSDOF 6
ENDMDL
