MODEL 1
REMARK VINA RESULT:      -8.5      0.000      0.000
REMARK  Name = 
REMARK  3 active torsions:
REMARK  status: ('A' for Active; 'I' for Inactive)
REMARK    1  A    between atoms: C_5  and  N_6
REMARK    2  A    between atoms: C_8  and  C_9
REMARK    3  A    between atoms: C_9  and  N_10
REMARK                            x       y       z     vdW  Elec       q    Type
REMARK                         _______ _______ _______ _____ _____    ______ ____
ROOT
ATOM      1  N   UNL     1       2.890   6.345  19.196  0.00  0.00    +0.000 N 
ATOM      2  C   UNL     1       4.112   6.174  18.572  0.00  0.00    +0.000 A 
ATOM      3  C   UNL     1       4.603   4.913  18.845  0.00  0.00    +0.000 A 
ATOM      4  C   UNL     1       3.592   4.239  19.595  0.00  0.00    +0.000 A 
ATOM      5  C   UNL     1       3.485   2.928  20.111  0.00  0.00    +0.000 A 
ATOM      6  C   UNL     1       2.326   2.532  20.784  0.00  0.00    +0.000 A 
ATOM      7  C   UNL     1       1.275   3.421  20.952  0.00  0.00    +0.000 A 
ATOM      8  C   UNL     1       1.357   4.727  20.460  0.00  0.00    +0.000 A 
ATOM      9  C   UNL     1       2.534   5.138  19.801  0.00  0.00    +0.000 A 
ENDROOT
BRANCH   1  14
ATOM     10  F   UNL     1       0.100  11.149  19.198  0.00  0.00    +0.000 F 
ATOM     11  C   UNL     1       0.774   9.991  19.200  0.00  0.00    +0.000 A 
ATOM     12  C   UNL     1       1.309   9.507  18.013  0.00  0.00    +0.000 A 
ATOM     13  C   UNL     1       2.016   8.304  18.013  0.00  0.00    +0.000 A 
ATOM     14  C   UNL     1       2.166   7.576  19.205  0.00  0.00    +0.000 A 
ATOM     15  C   UNL     1       1.633   8.085  20.398  0.00  0.00    +0.000 A 
ATOM     16  C   UNL     1       0.935   9.295  20.392  0.00  0.00    +0.000 A 
ENDBRANCH   1  14
BRANCH   3  17
ATOM     17  C   UNL     1       5.942   4.378  18.459  0.00  0.00    +0.000 C 
BRANCH  17  18
ATOM     18  N   UNL     1       6.238   4.613  17.057  0.00  0.00    +0.000 N 
ATOM     19  C   UNL     1       5.756   3.904  15.992  0.00  0.00    +0.000 A 
ATOM     20  C   UNL     1       6.427   4.403  14.900  0.00  0.00    +0.000 A 
ATOM     21  N   UNL     1       7.301   5.390  15.275  0.00  0.00    +0.000 NA
ATOM     22  C   UNL     1       7.163   5.499  16.577  0.00  0.00    +0.000 A 
ENDBRANCH  17  18
ENDBRANCH   3  17
TORSDOF 3
ENDMDL
MODEL 2
REMARK VINA RESULT:      -8.4      0.036      1.033
REMARK  Name = 
REMARK  3 active torsions:
REMARK  status: ('A' for Active; 'I' for Inactive)
REMARK    1  A    between atoms: C_5  and  N_6
REMARK    2  A    between atoms: C_8  and  C_9
REMARK    3  A    between atoms: C_9  and  N_10
REMARK                            x       y       z     vdW  Elec       q    Type
REMARK                         _______ _______ _______ _____ _____    ______ ____
ROOT
ATOM      1  N   UNL     1       2.903   6.351  19.167  0.00  0.00    +0.000 N 
ATOM      2  C   UNL     1       4.116   6.166  18.531  0.00  0.00    +0.000 A 
ATOM      3  C   UNL     1       4.601   4.904  18.809  0.00  0.00    +0.000 A 
ATOM      4  C   UNL     1       3.594   4.244  19.575  0.00  0.00    +0.000 A 
ATOM      5  C   UNL     1       3.482   2.938  20.103  0.00  0.00    +0.000 A 
ATOM      6  C   UNL     1       2.328   2.556  20.791  0.00  0.00    +0.000 A 
ATOM      7  C   UNL     1       1.285   3.454  20.964  0.00  0.00    +0.000 A 
ATOM      8  C   UNL     1       1.372   4.755  20.460  0.00  0.00    +0.000 A 
ATOM      9  C   UNL     1       2.545   5.152  19.785  0.00  0.00    +0.000 A 
ENDROOT
BRANCH   1  14
ATOM     10  F   UNL     1       0.094  11.144  19.227  0.00  0.00    +0.000 F 
ATOM     11  C   UNL     1       0.770   9.988  19.210  0.00  0.00    +0.000 A 
ATOM     12  C   UNL     1       0.935   9.273  20.389  0.00  0.00    +0.000 A 
ATOM     13  C   UNL     1       1.634   8.065  20.374  0.00  0.00    +0.000 A 
ATOM     14  C   UNL     1       2.188   7.587  19.173  0.00  0.00    +0.000 A 
ATOM     15  C   UNL     1       2.000   8.314  17.989  0.00  0.00    +0.000 A 
ATOM     16  C   UNL     1       1.290   9.517  18.011  0.00  0.00    +0.000 A 
ENDBRANCH   1  14
BRANCH   3  17
ATOM     17  C   UNL     1       5.932   4.356  18.412  0.00  0.00    +0.000 C 
BRANCH  17  18
ATOM     18  N   UNL     1       6.225   4.600  17.011  0.00  0.00    +0.000 N 
ATOM     19  C   UNL     1       5.744   3.893  15.944  0.00  0.00    +0.000 A 
ATOM     20  C   UNL     1       6.412   4.401  14.853  0.00  0.00    +0.000 A 
ATOM     21  N   UNL     1       7.283   5.389  15.231  0.00  0.00    +0.000 NA
ATOM     22  C   UNL     1       7.146   5.491  16.535  0.00  0.00    +0.000 A 
ENDBRANCH  17  18
ENDBRANCH   3  17
TORSDOF 3
ENDMDL
MODEL 3
REMARK VINA RESULT:      -8.1      1.429      1.914
REMARK  Name = 
REMARK  3 active torsions:
REMARK  status: ('A' for Active; 'I' for Inactive)
REMARK    1  A    between atoms: C_5  and  N_6
REMARK    2  A    between atoms: C_8  and  C_9
REMARK    3  A    between atoms: C_9  and  N_10
REMARK                            x       y       z     vdW  Elec       q    Type
REMARK                         _______ _______ _______ _____ _____    ______ ____
ROOT
ATOM      1  N   UNL     1       3.201   6.085  18.337  0.00  0.00    +0.000 N 
ATOM      2  C   UNL     1       4.509   6.110  17.892  0.00  0.00    +0.000 A 
ATOM      3  C   UNL     1       4.959   4.820  17.694  0.00  0.00    +0.000 A 
ATOM      4  C   UNL     1       3.845   3.961  17.936  0.00  0.00    +0.000 A 
ATOM      5  C   UNL     1       3.665   2.563  17.844  0.00  0.00    +0.000 A 
ATOM      6  C   UNL     1       2.415   1.997  18.109  0.00  0.00    +0.000 A 
ATOM      7  C   UNL     1       1.343   2.802  18.465  0.00  0.00    +0.000 A 
ATOM      8  C   UNL     1       1.495   4.188  18.573  0.00  0.00    +0.000 A 
ATOM      9  C   UNL     1       2.760   4.761  18.329  0.00  0.00    +0.000 A 
ENDROOT
BRANCH   1  14
ATOM     10  F   UNL     1       0.355  10.578  19.939  0.00  0.00    +0.000 F 
ATOM     11  C   UNL     1       1.040   9.495  19.551  0.00  0.00    +0.000 A 
ATOM     12  C   UNL     1       1.372   8.522  20.485  0.00  0.00    +0.000 A 
ATOM     13  C   UNL     1       2.081   7.389  20.082  0.00  0.00    +0.000 A 
ATOM     14  C   UNL     1       2.475   7.246  18.740  0.00  0.00    +0.000 A 
ATOM     15  C   UNL     1       2.119   8.230  17.807  0.00  0.00    +0.000 A 
ATOM     16  C   UNL     1       1.401   9.356  18.216  0.00  0.00    +0.000 A 
ENDBRANCH   1  14
BRANCH   3  17
ATOM     17  C   UNL     1       6.348   4.409  17.331  0.00  0.00    +0.000 C 
BRANCH  17  18
ATOM     18  N   UNL     1       6.550   4.381  15.893  0.00  0.00    +0.000 N 
ATOM     19  C   UNL     1       7.407   5.168  15.176  0.00  0.00    +0.000 A 
ATOM     20  C   UNL     1       7.137   4.877  13.858  0.00  0.00    +0.000 A 
ATOM     21  N   UNL     1       6.141   3.941  13.761  0.00  0.00    +0.000 NA
ATOM     22  C   UNL     1       5.810   3.657  15.001  0.00  0.00    +0.000 A 
ENDBRANCH  17  18
ENDBRANCH   3  17
TORSDOF 3
ENDMDL
MODEL 4
REMARK VINA RESULT:      -8.0      0.970      1.436
REMARK  Name = 
REMARK  3 active torsions:
REMARK  status: ('A' for Active; 'I' for Inactive)
REMARK    1  A    between atoms: C_5  and  N_6
REMARK    2  A    between atoms: C_8  and  C_9
REMARK    3  A    between atoms: C_9  and  N_10
REMARK                            x       y       z     vdW  Elec       q    Type
REMARK                         _______ _______ _______ _____ _____    ______ ____
ROOT
ATOM      1  N   UNL     1       2.688   6.391  19.243  0.00  0.00    +0.000 N 
ATOM      2  C   UNL     1       3.811   6.228  18.454  0.00  0.00    +0.000 A 
ATOM      3  C   UNL     1       4.305   4.948  18.605  0.00  0.00    +0.000 A 
ATOM      4  C   UNL     1       3.389   4.258  19.453  0.00  0.00    +0.000 A 
ATOM      5  C   UNL     1       3.321   2.927  19.923  0.00  0.00    +0.000 A 
ATOM      6  C   UNL     1       2.254   2.520  20.727  0.00  0.00    +0.000 A 
ATOM      7  C   UNL     1       1.255   3.418  21.072  0.00  0.00    +0.000 A 
ATOM      8  C   UNL     1       1.301   4.744  20.630  0.00  0.00    +0.000 A 
ATOM      9  C   UNL     1       2.388   5.165  19.838  0.00  0.00    +0.000 A 
ENDROOT
BRANCH   1  14
ATOM     10  F   UNL     1       0.038  11.238  19.829  0.00  0.00    +0.000 F 
ATOM     11  C   UNL     1       0.677  10.070  19.690  0.00  0.00    +0.000 A 
ATOM     12  C   UNL     1       1.160   9.696  18.442  0.00  0.00    +0.000 A 
ATOM     13  C   UNL     1       1.833   8.482  18.295  0.00  0.00    +0.000 A 
ATOM     14  C   UNL     1       2.000   7.632  19.402  0.00  0.00    +0.000 A 
ATOM     15  C   UNL     1       1.520   8.030  20.658  0.00  0.00    +0.000 A 
ATOM     16  C   UNL     1       0.857   9.252  20.799  0.00  0.00    +0.000 A 
ENDBRANCH   1  14
BRANCH   3  17
ATOM     17  C   UNL     1       5.569   4.409  18.019  0.00  0.00    +0.000 C 
BRANCH  17  18
ATOM     18  N   UNL     1       6.577   5.441  17.857  0.00  0.00    +0.000 N 
ATOM     19  C   UNL     1       7.344   5.994  18.845  0.00  0.00    +0.000 A 
ATOM     20  C   UNL     1       8.033   7.013  18.230  0.00  0.00    +0.000 A 
ATOM     21  N   UNL     1       7.702   7.094  16.902  0.00  0.00    +0.000 NA
ATOM     22  C   UNL     1       6.828   6.132  16.705  0.00  0.00    +0.000 A 
ENDBRANCH  17  18
ENDBRANCH   3  17
TORSDOF 3
ENDMDL
MODEL 5
REMARK VINA RESULT:      -7.9      0.961      1.772
REMARK  Name = 
REMARK  3 active torsions:
REMARK  status: ('A' for Active; 'I' for Inactive)
REMARK    1  A    between atoms: C_5  and  N_6
REMARK    2  A    between atoms: C_8  and  C_9
REMARK    3  A    between atoms: C_9  and  N_10
REMARK                            x       y       z     vdW  Elec       q    Type
REMARK                         _______ _______ _______ _____ _____    ______ ____
ROOT
ATOM      1  N   UNL     1       2.741   6.386  19.193  0.00  0.00    +0.000 N 
ATOM      2  C   UNL     1       3.901   6.215  18.462  0.00  0.00    +0.000 A 
ATOM      3  C   UNL     1       4.388   4.937  18.651  0.00  0.00    +0.000 A 
ATOM      4  C   UNL     1       3.432   4.255  19.461  0.00  0.00    +0.000 A 
ATOM      5  C   UNL     1       3.342   2.930  19.942  0.00  0.00    +0.000 A 
ATOM      6  C   UNL     1       2.237   2.531  20.697  0.00  0.00    +0.000 A 
ATOM      7  C   UNL     1       1.221   3.431  20.983  0.00  0.00    +0.000 A 
ATOM      8  C   UNL     1       1.288   4.752  20.528  0.00  0.00    +0.000 A 
ATOM      9  C   UNL     1       2.413   5.165  19.786  0.00  0.00    +0.000 A 
ENDROOT
BRANCH   1  14
ATOM     10  F   UNL     1       0.007  11.199  19.657  0.00  0.00    +0.000 F 
ATOM     11  C   UNL     1       0.665  10.039  19.543  0.00  0.00    +0.000 A 
ATOM     12  C   UNL     1       0.874   9.254  20.670  0.00  0.00    +0.000 A 
ATOM     13  C   UNL     1       1.554   8.041  20.554  0.00  0.00    +0.000 A 
ATOM     14  C   UNL     1       2.045   7.627  19.303  0.00  0.00    +0.000 A 
ATOM     15  C   UNL     1       1.813   8.423  18.172  0.00  0.00    +0.000 A 
ATOM     16  C   UNL     1       1.123   9.631  18.295  0.00  0.00    +0.000 A 
ENDBRANCH   1  14
BRANCH   3  17
ATOM     17  C   UNL     1       5.680   4.393  18.135  0.00  0.00    +0.000 C 
BRANCH  17  18
ATOM     18  N   UNL     1       6.668   5.437  17.932  0.00  0.00    +0.000 N 
ATOM     19  C   UNL     1       7.425   6.040  18.897  0.00  0.00    +0.000 A 
ATOM     20  C   UNL     1       8.094   7.050  18.243  0.00  0.00    +0.000 A 
ATOM     21  N   UNL     1       7.760   7.074  16.914  0.00  0.00    +0.000 NA
ATOM     22  C   UNL     1       6.904   6.090  16.754  0.00  0.00    +0.000 A 
ENDBRANCH  17  18
ENDBRANCH   3  17
TORSDOF 3
ENDMDL
MODEL 6
REMARK VINA RESULT:      -7.7      1.868      2.547
REMARK  Name = 
REMARK  3 active torsions:
REMARK  status: ('A' for Active; 'I' for Inactive)
REMARK    1  A    between atoms: C_5  and  N_6
REMARK    2  A    between atoms: C_8  and  C_9
REMARK    3  A    between atoms: C_9  and  N_10
REMARK                            x       y       z     vdW  Elec       q    Type
REMARK                         _______ _______ _______ _____ _____    ______ ____
ROOT
ATOM      1  N   UNL     1       2.731   6.951  18.204  0.00  0.00    +0.000 N 
ATOM      2  C   UNL     1       3.917   7.251  17.562  0.00  0.00    +0.000 A 
ATOM      3  C   UNL     1       4.518   6.087  17.125  0.00  0.00    +0.000 A 
ATOM      4  C   UNL     1       3.613   5.026  17.428  0.00  0.00    +0.000 A 
ATOM      5  C   UNL     1       3.638   3.635  17.183  0.00  0.00    +0.000 A 
ATOM      6  C   UNL     1       2.560   2.835  17.569  0.00  0.00    +0.000 A 
ATOM      7  C   UNL     1       1.458   3.398  18.196  0.00  0.00    +0.000 A 
ATOM      8  C   UNL     1       1.410   4.771  18.460  0.00  0.00    +0.000 A 
ATOM      9  C   UNL     1       2.507   5.578  18.093  0.00  0.00    +0.000 A 
ENDROOT
BRANCH   1  14
ATOM     10  F   UNL     1      -0.441  10.686  20.822  0.00  0.00    +0.000 F 
ATOM     11  C   UNL     1       0.322   9.786  20.190  0.00  0.00    +0.000 A 
ATOM     12  C   UNL     1       0.914   8.758  20.912  0.00  0.00    +0.000 A 
ATOM     13  C   UNL     1       1.704   7.814  20.255  0.00  0.00    +0.000 A 
ATOM     14  C   UNL     1       1.919   7.919  18.870  0.00  0.00    +0.000 A 
ATOM     15  C   UNL     1       1.303   8.954  18.152  0.00  0.00    +0.000 A 
ATOM     16  C   UNL     1       0.505   9.888  18.815  0.00  0.00    +0.000 A 
ENDBRANCH   1  14
BRANCH   3  17
ATOM     17  C   UNL     1       5.865   5.966  16.492  0.00  0.00    +0.000 C 
BRANCH  17  18
ATOM     18  N   UNL     1       6.934   6.276  17.424  0.00  0.00    +0.000 N 
ATOM     19  C   UNL     1       7.391   5.476  18.435  0.00  0.00    +0.000 A 
ATOM     20  C   UNL     1       8.295   6.254  19.120  0.00  0.00    +0.000 A 
ATOM     21  N   UNL     1       8.395   7.498  18.555  0.00  0.00    +0.000 NA
ATOM     22  C   UNL     1       7.569   7.482  17.533  0.00  0.00    +0.000 A 
ENDBRANCH  17  18
ENDBRANCH   3  17
TORSDOF 3
ENDMDL
MODEL 7
REMARK VINA RESULT:      -7.7      1.321      2.061
REMARK  Name = 
REMARK  3 active torsions:
REMARK  status: ('A' for Active; 'I' for Inactive)
REMARK    1  A    between atoms: C_5  and  N_6
REMARK    2  A    between atoms: C_8  and  C_9
REMARK    3  A    between atoms: C_9  and  N_10
REMARK                            x       y       z     vdW  Elec       q    Type
REMARK                         _______ _______ _______ _____ _____    ______ ____
ROOT
ATOM      1  N   UNL     1       2.350   7.013  19.203  0.00  0.00    +0.000 N 
ATOM      2  C   UNL     1       3.150   7.140  18.083  0.00  0.00    +0.000 A 
ATOM      3  C   UNL     1       3.656   5.905  17.728  0.00  0.00    +0.000 A 
ATOM      4  C   UNL     1       3.065   4.956  18.614  0.00  0.00    +0.000 A 
ATOM      5  C   UNL     1       3.145   3.549  18.717  0.00  0.00    +0.000 A 
ATOM      6  C   UNL     1       2.398   2.872  19.684  0.00  0.00    +0.000 A 
ATOM      7  C   UNL     1       1.575   3.574  20.552  0.00  0.00    +0.000 A 
ATOM      8  C   UNL     1       1.484   4.968  20.480  0.00  0.00    +0.000 A 
ATOM      9  C   UNL     1       2.253   5.657  19.520  0.00  0.00    +0.000 A 
ENDROOT
BRANCH   1  14
ATOM     10  F   UNL     1       0.045  11.280  21.910  0.00  0.00    +0.000 F 
ATOM     11  C   UNL     1       0.599  10.252  21.256  0.00  0.00    +0.000 A 
ATOM     12  C   UNL     1       1.034   9.141  21.966  0.00  0.00    +0.000 A 
ATOM     13  C   UNL     1       1.607   8.064  21.287  0.00  0.00    +0.000 A 
ATOM     14  C   UNL     1       1.762   8.117  19.891  0.00  0.00    +0.000 A 
ATOM     15  C   UNL     1       1.304   9.239  19.186  0.00  0.00    +0.000 A 
ATOM     16  C   UNL     1       0.723  10.308  19.873  0.00  0.00    +0.000 A 
ENDBRANCH   1  14
BRANCH   3  17
ATOM     17  C   UNL     1       4.653   5.630  16.651  0.00  0.00    +0.000 C 
BRANCH  17  18
ATOM     18  N   UNL     1       5.949   5.260  17.190  0.00  0.00    +0.000 N 
ATOM     19  C   UNL     1       6.559   5.800  18.288  0.00  0.00    +0.000 A 
ATOM     20  C   UNL     1       7.813   5.235  18.311  0.00  0.00    +0.000 A 
ATOM     21  N   UNL     1       7.978   4.372  17.259  0.00  0.00    +0.000 NA
ATOM     22  C   UNL     1       6.839   4.403  16.604  0.00  0.00    +0.000 A 
ENDBRANCH  17  18
ENDBRANCH   3  17
TORSDOF 3
ENDMDL
MODEL 8
REMARK VINA RESULT:      -7.7      1.344      1.910
REMARK  Name = 
REMARK  3 active torsions:
REMARK  status: ('A' for Active; 'I' for Inactive)
REMARK    1  A    between atoms: C_5  and  N_6
REMARK    2  A    between atoms: C_8  and  C_9
REMARK    3  A    between atoms: C_9  and  N_10
REMARK                            x       y       z     vdW  Elec       q    Type
REMARK                         _______ _______ _______ _____ _____    ______ ____
ROOT
ATOM      1  N   UNL     1       2.286   7.158  19.267  0.00  0.00    +0.000 N 
ATOM      2  C   UNL     1       3.105   7.341  18.168  0.00  0.00    +0.000 A 
ATOM      3  C   UNL     1       3.654   6.132  17.789  0.00  0.00    +0.000 A 
ATOM      4  C   UNL     1       3.071   5.140  18.634  0.00  0.00    +0.000 A 
ATOM      5  C   UNL     1       3.190   3.734  18.698  0.00  0.00    +0.000 A 
ATOM      6  C   UNL     1       2.443   3.008  19.629  0.00  0.00    +0.000 A 
ATOM      7  C   UNL     1       1.582   3.661  20.498  0.00  0.00    +0.000 A 
ATOM      8  C   UNL     1       1.452   5.053  20.465  0.00  0.00    +0.000 A 
ATOM      9  C   UNL     1       2.221   5.791  19.542  0.00  0.00    +0.000 A 
ENDROOT
BRANCH   1  14
ATOM     10  F   UNL     1      -0.163  11.337  21.987  0.00  0.00    +0.000 F 
ATOM     11  C   UNL     1       0.428  10.329  21.333  0.00  0.00    +0.000 A 
ATOM     12  C   UNL     1       0.579  10.400  19.954  0.00  0.00    +0.000 A 
ATOM     13  C   UNL     1       1.201   9.355  19.270  0.00  0.00    +0.000 A 
ATOM     14  C   UNL     1       1.652   8.224  19.974  0.00  0.00    +0.000 A 
ATOM     15  C   UNL     1       1.506   8.174  21.367  0.00  0.00    +0.000 A 
ATOM     16  C   UNL     1       0.892   9.229  22.045  0.00  0.00    +0.000 A 
ENDBRANCH   1  14
BRANCH   3  17
ATOM     17  C   UNL     1       4.680   5.917  16.726  0.00  0.00    +0.000 C 
BRANCH  17  18
ATOM     18  N   UNL     1       5.937   5.438  17.272  0.00  0.00    +0.000 N 
ATOM     19  C   UNL     1       6.554   5.883  18.409  0.00  0.00    +0.000 A 
ATOM     20  C   UNL     1       7.769   5.238  18.428  0.00  0.00    +0.000 A 
ATOM     21  N   UNL     1       7.903   4.419  17.337  0.00  0.00    +0.000 NA
ATOM     22  C   UNL     1       6.784   4.556  16.662  0.00  0.00    +0.000 A 
ENDBRANCH  17  18
ENDBRANCH   3  17
TORSDOF 3
ENDMDL
MODEL 9
REMARK VINA RESULT:      -7.5      1.211      1.626
REMARK  Name = 
REMARK  3 active torsions:
REMARK  status: ('A' for Active; 'I' for Inactive)
REMARK    1  A    between atoms: C_5  and  N_6
REMARK    2  A    between atoms: C_8  and  C_9
REMARK    3  A    between atoms: C_9  and  N_10
REMARK                            x       y       z     vdW  Elec       q    Type
REMARK                         _______ _______ _______ _____ _____    ______ ____
ROOT
ATOM      1  N   UNL     1       2.271   6.617  19.148  0.00  0.00    +0.000 N 
ATOM      2  C   UNL     1       3.110   6.570  18.050  0.00  0.00    +0.000 A 
ATOM      3  C   UNL     1       3.503   5.267  17.818  0.00  0.00    +0.000 A 
ATOM      4  C   UNL     1       2.798   4.458  18.759  0.00  0.00    +0.000 A 
ATOM      5  C   UNL     1       2.739   3.064  18.982  0.00  0.00    +0.000 A 
ATOM      6  C   UNL     1       1.904   2.548  19.976  0.00  0.00    +0.000 A 
ATOM      7  C   UNL     1       1.130   3.397  20.753  0.00  0.00    +0.000 A 
ATOM      8  C   UNL     1       1.176   4.782  20.561  0.00  0.00    +0.000 A 
ATOM      9  C   UNL     1       2.035   5.309  19.574  0.00  0.00    +0.000 A 
ENDROOT
BRANCH   1  14
ATOM     10  F   UNL     1       0.364  11.350  21.341  0.00  0.00    +0.000 F 
ATOM     11  C   UNL     1       0.825  10.209  20.815  0.00  0.00    +0.000 A 
ATOM     12  C   UNL     1       1.047  10.125  19.446  0.00  0.00    +0.000 A 
ATOM     13  C   UNL     1       1.533   8.939  18.895  0.00  0.00    +0.000 A 
ATOM     14  C   UNL     1       1.775   7.827  19.720  0.00  0.00    +0.000 A 
ATOM     15  C   UNL     1       1.560   7.932  21.101  0.00  0.00    +0.000 A 
ATOM     16  C   UNL     1       1.083   9.126  21.647  0.00  0.00    +0.000 A 
ENDBRANCH   1  14
BRANCH   3  17
ATOM     17  C   UNL     1       4.496   4.806  16.803  0.00  0.00    +0.000 C 
BRANCH  17  18
ATOM     18  N   UNL     1       5.851   4.818  17.323  0.00  0.00    +0.000 N 
ATOM     19  C   UNL     1       6.991   4.501  16.636  0.00  0.00    +0.000 A 
ATOM     20  C   UNL     1       7.990   4.519  17.581  0.00  0.00    +0.000 A 
ATOM     21  N   UNL     1       7.488   4.833  18.817  0.00  0.00    +0.000 NA
ATOM     22  C   UNL     1       6.199   5.013  18.631  0.00  0.00    +0.000 A 
ENDBRANCH  17  18
ENDBRANCH   3  17
TORSDOF 3
ENDMDL
