MODEL 1
REMARK VINA RESULT:      -8.2      0.000      0.000
REMARK  Name = 
REMARK  2 active torsions:
REMARK  status: ('A' for Active; 'I' for Inactive)
REMARK    1  A    between atoms: N_5  and  C_6
REMARK    2  A    between atoms: C_11  and  C_12
REMARK                            x       y       z     vdW  Elec       q    Type
REMARK                         _______ _______ _______ _____ _____    ______ ____
ROOT
ATOM      1  O   UNL     1       8.805   6.042  13.197  0.00  0.00    +0.000 OA
ATOM      2  C   UNL     1       7.928   5.373  13.737  0.00  0.00    +0.000 A 
ATOM      3  N   UNL     1       7.640   5.502  15.092  0.00  0.00    +0.000 N 
ATOM      4  C   UNL     1       6.592   4.867  15.752  0.00  0.00    +0.000 A 
ATOM      5  N   UNL     1       6.455   5.193  17.079  0.00  0.00    +0.000 N 
ATOM      6  N   UNL     1       5.805   4.009  15.147  0.00  0.00    +0.000 NA
ATOM      7  C   UNL     1       6.103   3.809  13.849  0.00  0.00    +0.000 A 
ATOM      8  N   UNL     1       5.474   2.936  13.015  0.00  0.00    +0.000 N 
ATOM      9  C   UNL     1       6.076   3.050  11.789  0.00  0.00    +0.000 A 
ATOM     10  N   UNL     1       7.054   3.935  11.797  0.00  0.00    +0.000 NA
ATOM     11  C   UNL     1       7.078   4.403  13.086  0.00  0.00    +0.000 A 
ATOM     12  H   UNL     1       8.188   6.201  15.563  0.00  0.00    +0.000 HD
ATOM     13  H   UNL     1       7.264   5.521  17.584  0.00  0.00    +0.000 HD
ATOM     14  H   UNL     1       4.714   2.322  13.267  0.00  0.00    +0.000 HD
ENDROOT
BRANCH   5  15
ATOM     15  C   UNL     1       5.278   5.076  17.835  0.00  0.00    +0.000 A 
ATOM     16  C   UNL     1       4.422   6.168  17.972  0.00  0.00    +0.000 A 
ATOM     17  C   UNL     1       3.287   6.084  18.782  0.00  0.00    +0.000 A 
ATOM     18  C   UNL     1       2.980   4.902  19.473  0.00  0.00    +0.000 A 
ATOM     19 BR   UNL     1       1.413   4.943  20.540  0.00  0.00    +0.000 Br
ATOM     20  C   UNL     1       3.814   3.788  19.357  0.00  0.00    +0.000 A 
ATOM     21  C   UNL     1       4.962   3.905  18.539  0.00  0.00    +0.000 A 
BRANCH  20  22
ATOM     22  C   UNL     1       3.605   2.449  20.017  0.00  0.00    +0.000 C 
ATOM     23  F   UNL     1       3.475   2.450  21.367  0.00  0.00    +0.000 F 
ATOM     24  F   UNL     1       2.486   1.826  19.545  0.00  0.00    +0.000 F 
ATOM     25  F   UNL     1       4.632   1.587  19.757  0.00  0.00    +0.000 F 
ENDBRANCH  20  22
ENDBRANCH   5  15
TORSDOF 2
ENDMDL
MODEL 2
REMARK VINA RESULT:      -8.1      6.436      8.641
REMARK  Name = 
REMARK  2 active torsions:
REMARK  status: ('A' for Active; 'I' for Inactive)
REMARK    1  A    between atoms: N_5  and  C_6
REMARK    2  A    between atoms: C_11  and  C_12
REMARK                            x       y       z     vdW  Elec       q    Type
REMARK                         _______ _______ _______ _____ _____    ______ ____
ROOT
ATOM      1  O   UNL     1      -0.793  10.953  23.383  0.00  0.00    +0.000 OA
ATOM      2  C   UNL     1      -0.370  10.519  22.315  0.00  0.00    +0.000 A 
ATOM      3  N   UNL     1       0.543   9.471  22.263  0.00  0.00    +0.000 N 
ATOM      4  C   UNL     1       0.983   8.849  21.098  0.00  0.00    +0.000 A 
ATOM      5  N   UNL     1       1.836   7.790  21.287  0.00  0.00    +0.000 N 
ATOM      6  N   UNL     1       0.615   9.259  19.907  0.00  0.00    +0.000 NA
ATOM      7  C   UNL     1      -0.216  10.319  19.922  0.00  0.00    +0.000 A 
ATOM      8  N   UNL     1      -0.701  10.964  18.825  0.00  0.00    +0.000 N 
ATOM      9  C   UNL     1      -1.511  11.972  19.281  0.00  0.00    +0.000 A 
ATOM     10  N   UNL     1      -1.561  12.012  20.598  0.00  0.00    +0.000 NA
ATOM     11  C   UNL     1      -0.745  10.985  21.001  0.00  0.00    +0.000 A 
ATOM     12  H   UNL     1       0.790   9.097  23.162  0.00  0.00    +0.000 HD
ATOM     13  H   UNL     1       2.384   7.754  22.134  0.00  0.00    +0.000 HD
ATOM     14  H   UNL     1      -0.491  10.736  17.866  0.00  0.00    +0.000 HD
ENDROOT
BRANCH   5  15
ATOM     15  C   UNL     1       2.059   6.743  20.379  0.00  0.00    +0.000 A 
ATOM     16  C   UNL     1       2.665   7.000  19.150  0.00  0.00    +0.000 A 
ATOM     17  C   UNL     1       2.825   5.978  18.210  0.00  0.00    +0.000 A 
ATOM     18  C   UNL     1       2.385   4.674  18.480  0.00  0.00    +0.000 A 
ATOM     19 BR   UNL     1       2.663   3.399  17.104  0.00  0.00    +0.000 Br
ATOM     20  C   UNL     1       1.777   4.381  19.702  0.00  0.00    +0.000 A 
ATOM     21  C   UNL     1       1.618   5.436  20.630  0.00  0.00    +0.000 A 
BRANCH  20  22
ATOM     22  C   UNL     1       1.276   3.030  20.143  0.00  0.00    +0.000 C 
ATOM     23  F   UNL     1       0.238   2.507  19.443  0.00  0.00    +0.000 F 
ATOM     24  F   UNL     1       2.261   2.087  20.090  0.00  0.00    +0.000 F 
ATOM     25  F   UNL     1       0.859   3.041  21.444  0.00  0.00    +0.000 F 
ENDBRANCH  20  22
ENDBRANCH   5  15
TORSDOF 2
ENDMDL
MODEL 3
REMARK VINA RESULT:      -7.9      0.742      1.106
REMARK  Name = 
REMARK  2 active torsions:
REMARK  status: ('A' for Active; 'I' for Inactive)
REMARK    1  A    between atoms: N_5  and  C_6
REMARK    2  A    between atoms: C_11  and  C_12
REMARK                            x       y       z     vdW  Elec       q    Type
REMARK                         _______ _______ _______ _____ _____    ______ ____
ROOT
ATOM      1  O   UNL     1       8.773   6.040  13.203  0.00  0.00    +0.000 OA
ATOM      2  C   UNL     1       7.892   5.352  13.709  0.00  0.00    +0.000 A 
ATOM      3  N   UNL     1       7.558   5.466  15.054  0.00  0.00    +0.000 N 
ATOM      4  C   UNL     1       6.500   4.809  15.677  0.00  0.00    +0.000 A 
ATOM      5  N   UNL     1       6.315   5.123  17.000  0.00  0.00    +0.000 N 
ATOM      6  N   UNL     1       5.748   3.942  15.041  0.00  0.00    +0.000 NA
ATOM      7  C   UNL     1       6.091   3.756  13.752  0.00  0.00    +0.000 A 
ATOM      8  N   UNL     1       5.505   2.878  12.892  0.00  0.00    +0.000 N 
ATOM      9  C   UNL     1       6.144   3.012  11.686  0.00  0.00    +0.000 A 
ATOM     10  N   UNL     1       7.106   3.913  11.732  0.00  0.00    +0.000 NA
ATOM     11  C   UNL     1       7.080   4.373  13.025  0.00  0.00    +0.000 A 
ATOM     12  H   UNL     1       8.077   6.172  15.548  0.00  0.00    +0.000 HD
ATOM     13  H   UNL     1       7.102   5.461  17.534  0.00  0.00    +0.000 HD
ATOM     14  H   UNL     1       4.748   2.250  13.115  0.00  0.00    +0.000 HD
ENDROOT
BRANCH   5  15
ATOM     15  C   UNL     1       5.116   4.979  17.718  0.00  0.00    +0.000 A 
ATOM     16  C   UNL     1       4.549   6.080  18.360  0.00  0.00    +0.000 A 
ATOM     17  C   UNL     1       3.397   5.933  19.137  0.00  0.00    +0.000 A 
ATOM     18  C   UNL     1       2.784   4.681  19.286  0.00  0.00    +0.000 A 
ATOM     19 BR   UNL     1       1.234   4.637  20.378  0.00  0.00    +0.000 Br
ATOM     20  C   UNL     1       3.323   3.558  18.655  0.00  0.00    +0.000 A 
ATOM     21  C   UNL     1       4.495   3.734  17.884  0.00  0.00    +0.000 A 
BRANCH  20  22
ATOM     22  C   UNL     1       2.766   2.158  18.704  0.00  0.00    +0.000 C 
ATOM     23  F   UNL     1       1.550   1.967  18.132  0.00  0.00    +0.000 F 
ATOM     24  F   UNL     1       3.598   1.265  18.094  0.00  0.00    +0.000 F 
ATOM     25  F   UNL     1       2.633   1.707  19.986  0.00  0.00    +0.000 F 
ENDBRANCH  20  22
ENDBRANCH   5  15
TORSDOF 2
ENDMDL
MODEL 4
REMARK VINA RESULT:      -7.7      2.352      2.891
REMARK  Name = 
REMARK  2 active torsions:
REMARK  status: ('A' for Active; 'I' for Inactive)
REMARK    1  A    between atoms: N_5  and  C_6
REMARK    2  A    between atoms: C_11  and  C_12
REMARK                            x       y       z     vdW  Elec       q    Type
REMARK                         _______ _______ _______ _____ _____    ______ ____
ROOT
ATOM      1  O   UNL     1       8.819   6.005  12.946  0.00  0.00    +0.000 OA
ATOM      2  C   UNL     1       7.964   5.384  13.570  0.00  0.00    +0.000 A 
ATOM      3  N   UNL     1       7.756   5.592  14.929  0.00  0.00    +0.000 N 
ATOM      4  C   UNL     1       6.737   5.015  15.682  0.00  0.00    +0.000 A 
ATOM      5  N   UNL     1       6.681   5.415  16.994  0.00  0.00    +0.000 N 
ATOM      6  N   UNL     1       5.902   4.141  15.170  0.00  0.00    +0.000 NA
ATOM      7  C   UNL     1       6.123   3.865  13.871  0.00  0.00    +0.000 A 
ATOM      8  N   UNL     1       5.432   2.960  13.123  0.00  0.00    +0.000 N 
ATOM      9  C   UNL     1       5.965   2.996  11.860  0.00  0.00    +0.000 A 
ATOM     10  N   UNL     1       6.957   3.860  11.765  0.00  0.00    +0.000 NA
ATOM     11  C   UNL     1       7.062   4.397  13.023  0.00  0.00    +0.000 A 
ATOM     12  H   UNL     1       8.341   6.305  15.330  0.00  0.00    +0.000 HD
ATOM     13  H   UNL     1       7.524   5.754  17.434  0.00  0.00    +0.000 HD
ATOM     14  H   UNL     1       4.677   2.377  13.451  0.00  0.00    +0.000 HD
ENDROOT
BRANCH   5  15
ATOM     15  C   UNL     1       5.548   5.362  17.821  0.00  0.00    +0.000 A 
ATOM     16  C   UNL     1       5.323   4.249  18.630  0.00  0.00    +0.000 A 
ATOM     17  C   UNL     1       4.162   4.154  19.401  0.00  0.00    +0.000 A 
ATOM     18  C   UNL     1       3.199   5.173  19.382  0.00  0.00    +0.000 A 
ATOM     19 BR   UNL     1       1.672   4.898  20.473  0.00  0.00    +0.000 Br
ATOM     20  C   UNL     1       3.393   6.303  18.585  0.00  0.00    +0.000 A 
ATOM     21  C   UNL     1       4.571   6.368  17.808  0.00  0.00    +0.000 A 
BRANCH  20  22
ATOM     22  C   UNL     1       2.463   7.485  18.478  0.00  0.00    +0.000 C 
ATOM     23  F   UNL     1       1.993   7.997  19.644  0.00  0.00    +0.000 F 
ATOM     24  F   UNL     1       3.054   8.533  17.834  0.00  0.00    +0.000 F 
ATOM     25  F   UNL     1       1.350   7.193  17.742  0.00  0.00    +0.000 F 
ENDBRANCH  20  22
ENDBRANCH   5  15
TORSDOF 2
ENDMDL
MODEL 5
REMARK VINA RESULT:      -7.7      6.004      8.270
REMARK  Name = 
REMARK  2 active torsions:
REMARK  status: ('A' for Active; 'I' for Inactive)
REMARK    1  A    between atoms: N_5  and  C_6
REMARK    2  A    between atoms: C_11  and  C_12
REMARK                            x       y       z     vdW  Elec       q    Type
REMARK                         _______ _______ _______ _____ _____    ______ ____
ROOT
ATOM      1  O   UNL     1      -0.304  10.942  22.879  0.00  0.00    +0.000 OA
ATOM      2  C   UNL     1       0.162  10.393  21.885  0.00  0.00    +0.000 A 
ATOM      3  N   UNL     1       0.868   9.198  21.973  0.00  0.00    +0.000 N 
ATOM      4  C   UNL     1       1.328   8.457  20.888  0.00  0.00    +0.000 A 
ATOM      5  N   UNL     1       1.944   7.273  21.208  0.00  0.00    +0.000 N 
ATOM      6  N   UNL     1       1.191   8.874  19.651  0.00  0.00    +0.000 NA
ATOM      7  C   UNL     1       0.573  10.065  19.537  0.00  0.00    +0.000 A 
ATOM      8  N   UNL     1       0.353  10.737  18.373  0.00  0.00    +0.000 N 
ATOM      9  C   UNL     1      -0.310  11.893  18.699  0.00  0.00    +0.000 A 
ATOM     10  N   UNL     1      -0.514  11.998  19.998  0.00  0.00    +0.000 NA
ATOM     11  C   UNL     1       0.044  10.861  20.523  0.00  0.00    +0.000 A 
ATOM     12  H   UNL     1       0.930   8.825  22.904  0.00  0.00    +0.000 HD
ATOM     13  H   UNL     1       2.367   7.177  22.119  0.00  0.00    +0.000 HD
ATOM     14  H   UNL     1       0.636  10.434  17.454  0.00  0.00    +0.000 HD
ENDROOT
BRANCH   5  15
ATOM     15  C   UNL     1       2.083   6.164  20.358  0.00  0.00    +0.000 A 
ATOM     16  C   UNL     1       1.181   5.103  20.438  0.00  0.00    +0.000 A 
ATOM     17  C   UNL     1       1.354   3.963  19.649  0.00  0.00    +0.000 A 
ATOM     18  C   UNL     1       2.432   3.859  18.758  0.00  0.00    +0.000 A 
ATOM     19 BR   UNL     1       2.539   2.249  17.762  0.00  0.00    +0.000 Br
ATOM     20  C   UNL     1       3.353   4.904  18.651  0.00  0.00    +0.000 A 
ATOM     21  C   UNL     1       3.160   6.040  19.469  0.00  0.00    +0.000 A 
BRANCH  20  22
ATOM     22  C   UNL     1       4.543   4.947  17.727  0.00  0.00    +0.000 C 
ATOM     23  F   UNL     1       5.499   4.004  17.922  0.00  0.00    +0.000 F 
ATOM     24  F   UNL     1       4.170   4.820  16.420  0.00  0.00    +0.000 F 
ATOM     25  F   UNL     1       5.200   6.142  17.798  0.00  0.00    +0.000 F 
ENDBRANCH  20  22
ENDBRANCH   5  15
TORSDOF 2
ENDMDL
MODEL 6
REMARK VINA RESULT:      -7.6      5.584      7.837
REMARK  Name = 
REMARK  2 active torsions:
REMARK  status: ('A' for Active; 'I' for Inactive)
REMARK    1  A    between atoms: N_5  and  C_6
REMARK    2  A    between atoms: C_11  and  C_12
REMARK                            x       y       z     vdW  Elec       q    Type
REMARK                         _______ _______ _______ _____ _____    ______ ____
ROOT
ATOM      1  O   UNL     1      -0.583   8.490  22.064  0.00  0.00    +0.000 OA
ATOM      2  C   UNL     1       0.243   8.529  21.157  0.00  0.00    +0.000 A 
ATOM      3  N   UNL     1       1.248   7.574  21.042  0.00  0.00    +0.000 N 
ATOM      4  C   UNL     1       2.149   7.483  19.985  0.00  0.00    +0.000 A 
ATOM      5  N   UNL     1       3.015   6.419  20.046  0.00  0.00    +0.000 N 
ATOM      6  N   UNL     1       2.173   8.362  19.012  0.00  0.00    +0.000 NA
ATOM      7  C   UNL     1       1.257   9.341  19.132  0.00  0.00    +0.000 A 
ATOM      8  N   UNL     1       1.108  10.398  18.286  0.00  0.00    +0.000 N 
ATOM      9  C   UNL     1       0.062  11.147  18.762  0.00  0.00    +0.000 A 
ATOM     10  N   UNL     1      -0.454  10.634  19.862  0.00  0.00    +0.000 NA
ATOM     11  C   UNL     1       0.297   9.512  20.100  0.00  0.00    +0.000 A 
ATOM     12  H   UNL     1       1.210   6.852  21.741  0.00  0.00    +0.000 HD
ATOM     13  H   UNL     1       3.229   6.018  20.947  0.00  0.00    +0.000 HD
ATOM     14  H   UNL     1       1.672  10.586  17.471  0.00  0.00    +0.000 HD
ENDROOT
BRANCH   5  15
ATOM     15  C   UNL     1       3.682   5.840  18.954  0.00  0.00    +0.000 A 
ATOM     16  C   UNL     1       2.982   5.044  18.048  0.00  0.00    +0.000 A 
ATOM     17  C   UNL     1       3.650   4.404  17.001  0.00  0.00    +0.000 A 
ATOM     18  C   UNL     1       5.035   4.548  16.835  0.00  0.00    +0.000 A 
ATOM     19 BR   UNL     1       5.802   3.612  15.375  0.00  0.00    +0.000 Br
ATOM     20  C   UNL     1       5.767   5.340  17.723  0.00  0.00    +0.000 A 
ATOM     21  C   UNL     1       5.067   5.967  18.779  0.00  0.00    +0.000 A 
BRANCH  20  22
ATOM     22  C   UNL     1       7.250   5.607  17.660  0.00  0.00    +0.000 C 
ATOM     23  F   UNL     1       7.773   6.370  18.653  0.00  0.00    +0.000 F 
ATOM     24  F   UNL     1       7.970   4.448  17.674  0.00  0.00    +0.000 F 
ATOM     25  F   UNL     1       7.605   6.236  16.501  0.00  0.00    +0.000 F 
ENDBRANCH  20  22
ENDBRANCH   5  15
TORSDOF 2
ENDMDL
MODEL 7
REMARK VINA RESULT:      -7.5      4.861      6.489
REMARK  Name = 
REMARK  2 active torsions:
REMARK  status: ('A' for Active; 'I' for Inactive)
REMARK    1  A    between atoms: N_5  and  C_6
REMARK    2  A    between atoms: C_11  and  C_12
REMARK                            x       y       z     vdW  Elec       q    Type
REMARK                         _______ _______ _______ _____ _____    ______ ____
ROOT
ATOM      1  O   UNL     1       4.784   3.679  16.372  0.00  0.00    +0.000 OA
ATOM      2  C   UNL     1       3.978   4.121  17.185  0.00  0.00    +0.000 A 
ATOM      3  N   UNL     1       3.918   5.476  17.492  0.00  0.00    +0.000 N 
ATOM      4  C   UNL     1       2.963   6.071  18.313  0.00  0.00    +0.000 A 
ATOM      5  N   UNL     1       3.056   7.436  18.422  0.00  0.00    +0.000 N 
ATOM      6  N   UNL     1       2.052   5.368  18.944  0.00  0.00    +0.000 NA
ATOM      7  C   UNL     1       2.129   4.042  18.723  0.00  0.00    +0.000 A 
ATOM      8  N   UNL     1       1.336   3.095  19.295  0.00  0.00    +0.000 N 
ATOM      9  C   UNL     1       1.737   1.883  18.795  0.00  0.00    +0.000 A 
ATOM     10  N   UNL     1       2.741   2.003  17.948  0.00  0.00    +0.000 NA
ATOM     11  C   UNL     1       2.993   3.351  17.909  0.00  0.00    +0.000 A 
ATOM     12  H   UNL     1       4.564   6.044  16.971  0.00  0.00    +0.000 HD
ATOM     13  H   UNL     1       3.950   7.876  18.262  0.00  0.00    +0.000 HD
ATOM     14  H   UNL     1       0.600   3.266  19.964  0.00  0.00    +0.000 HD
ENDROOT
BRANCH   5  15
ATOM     15  C   UNL     1       2.012   8.303  18.783  0.00  0.00    +0.000 A 
ATOM     16  C   UNL     1       1.400   9.101  17.817  0.00  0.00    +0.000 A 
ATOM     17  C   UNL     1       0.411  10.021  18.178  0.00  0.00    +0.000 A 
ATOM     18  C   UNL     1       0.010  10.160  19.515  0.00  0.00    +0.000 A 
ATOM     19 BR   UNL     1      -1.334  11.455  19.851  0.00  0.00    +0.000 Br
ATOM     20  C   UNL     1       0.601   9.375  20.507  0.00  0.00    +0.000 A 
ATOM     21  C   UNL     1       1.606   8.462  20.115  0.00  0.00    +0.000 A 
BRANCH  20  22
ATOM     22  C   UNL     1       0.261   9.396  21.976  0.00  0.00    +0.000 C 
ATOM     23  F   UNL     1      -0.010  10.609  22.521  0.00  0.00    +0.000 F 
ATOM     24  F   UNL     1      -0.831   8.623  22.249  0.00  0.00    +0.000 F 
ATOM     25  F   UNL     1       1.268   8.878  22.739  0.00  0.00    +0.000 F 
ENDBRANCH  20  22
ENDBRANCH   5  15
TORSDOF 2
ENDMDL
MODEL 8
REMARK VINA RESULT:      -7.4      6.120      8.007
REMARK  Name = 
REMARK  2 active torsions:
REMARK  status: ('A' for Active; 'I' for Inactive)
REMARK    1  A    between atoms: N_5  and  C_6
REMARK    2  A    between atoms: C_11  and  C_12
REMARK                            x       y       z     vdW  Elec       q    Type
REMARK                         _______ _______ _______ _____ _____    ______ ____
ROOT
ATOM      1  O   UNL     1       4.499   5.433  16.937  0.00  0.00    +0.000 OA
ATOM      2  C   UNL     1       3.793   6.008  17.760  0.00  0.00    +0.000 A 
ATOM      3  N   UNL     1       3.392   7.328  17.585  0.00  0.00    +0.000 N 
ATOM      4  C   UNL     1       2.504   8.013  18.410  0.00  0.00    +0.000 A 
ATOM      5  N   UNL     1       2.200   9.290  18.008  0.00  0.00    +0.000 N 
ATOM      6  N   UNL     1       2.009   7.475  19.499  0.00  0.00    +0.000 NA
ATOM      7  C   UNL     1       2.434   6.219  19.735  0.00  0.00    +0.000 A 
ATOM      8  N   UNL     1       2.110   5.461  20.819  0.00  0.00    +0.000 N 
ATOM      9  C   UNL     1       2.741   4.253  20.665  0.00  0.00    +0.000 A 
ATOM     10  N   UNL     1       3.453   4.203  19.556  0.00  0.00    +0.000 NA
ATOM     11  C   UNL     1       3.269   5.434  18.978  0.00  0.00    +0.000 A 
ATOM     12  H   UNL     1       3.707   7.742  16.724  0.00  0.00    +0.000 HD
ATOM     13  H   UNL     1       2.861   9.788  17.431  0.00  0.00    +0.000 HD
ATOM     14  H   UNL     1       1.521   5.748  21.585  0.00  0.00    +0.000 HD
ENDROOT
BRANCH   5  15
ATOM     15  C   UNL     1       1.046  10.009  18.362  0.00  0.00    +0.000 A 
ATOM     16  C   UNL     1       1.085  10.916  19.421  0.00  0.00    +0.000 A 
ATOM     17  C   UNL     1      -0.075  11.581  19.828  0.00  0.00    +0.000 A 
ATOM     18  C   UNL     1      -1.299  11.357  19.181  0.00  0.00    +0.000 A 
ATOM     19 BR   UNL     1      -2.785  12.326  19.852  0.00  0.00    +0.000 Br
ATOM     20  C   UNL     1      -1.373  10.458  18.116  0.00  0.00    +0.000 A 
ATOM     21  C   UNL     1      -0.187   9.790  17.733  0.00  0.00    +0.000 A 
BRANCH  20  22
ATOM     22  C   UNL     1      -2.606  10.131  17.312  0.00  0.00    +0.000 C 
ATOM     23  F   UNL     1      -3.557   9.388  17.933  0.00  0.00    +0.000 F 
ATOM     24  F   UNL     1      -3.245  11.261  16.892  0.00  0.00    +0.000 F 
ATOM     25  F   UNL     1      -2.303   9.444  16.172  0.00  0.00    +0.000 F 
ENDBRANCH  20  22
ENDBRANCH   5  15
TORSDOF 2
ENDMDL
MODEL 9
REMARK VINA RESULT:      -7.2      4.036      5.177
REMARK  Name = 
REMARK  2 active torsions:
REMARK  status: ('A' for Active; 'I' for Inactive)
REMARK    1  A    between atoms: N_5  and  C_6
REMARK    2  A    between atoms: C_11  and  C_12
REMARK                            x       y       z     vdW  Elec       q    Type
REMARK                         _______ _______ _______ _____ _____    ______ ____
ROOT
ATOM      1  O   UNL     1       7.947   4.413  18.579  0.00  0.00    +0.000 OA
ATOM      2  C   UNL     1       6.917   4.856  18.081  0.00  0.00    +0.000 A 
ATOM      3  N   UNL     1       5.830   5.233  18.862  0.00  0.00    +0.000 N 
ATOM      4  C   UNL     1       4.675   5.847  18.386  0.00  0.00    +0.000 A 
ATOM      5  N   UNL     1       3.758   6.192  19.348  0.00  0.00    +0.000 N 
ATOM      6  N   UNL     1       4.478   6.065  17.107  0.00  0.00    +0.000 NA
ATOM      7  C   UNL     1       5.484   5.646  16.316  0.00  0.00    +0.000 A 
ATOM      8  N   UNL     1       5.503   5.709  14.956  0.00  0.00    +0.000 N 
ATOM      9  C   UNL     1       6.706   5.190  14.550  0.00  0.00    +0.000 A 
ATOM     10  N   UNL     1       7.445   4.793  15.568  0.00  0.00    +0.000 NA
ATOM     11  C   UNL     1       6.678   5.069  16.672  0.00  0.00    +0.000 A 
ATOM     12  H   UNL     1       5.982   5.136  19.851  0.00  0.00    +0.000 HD
ATOM     13  H   UNL     1       3.754   5.683  20.219  0.00  0.00    +0.000 HD
ATOM     14  H   UNL     1       4.764   6.066  14.371  0.00  0.00    +0.000 HD
ENDROOT
BRANCH   5  15
ATOM     15  C   UNL     1       2.770   7.183  19.223  0.00  0.00    +0.000 A 
ATOM     16  C   UNL     1       2.547   7.797  17.991  0.00  0.00    +0.000 A 
ATOM     17  C   UNL     1       1.619   8.835  17.873  0.00  0.00    +0.000 A 
ATOM     18  C   UNL     1       0.890   9.280  18.986  0.00  0.00    +0.000 A 
ATOM     19 BR   UNL     1      -0.325  10.702  18.672  0.00  0.00    +0.000 Br
ATOM     20  C   UNL     1       1.087   8.686  20.234  0.00  0.00    +0.000 A 
ATOM     21  C   UNL     1       2.040   7.646  20.326  0.00  0.00    +0.000 A 
BRANCH  20  22
ATOM     22  C   UNL     1       0.366   9.039  21.510  0.00  0.00    +0.000 C 
ATOM     23  F   UNL     1      -0.846   8.461  21.703  0.00  0.00    +0.000 F 
ATOM     24  F   UNL     1       1.104   8.713  22.611  0.00  0.00    +0.000 F 
ATOM     25  F   UNL     1       0.142  10.382  21.613  0.00  0.00    +0.000 F 
ENDBRANCH  20  22
ENDBRANCH   5  15
TORSDOF 2
ENDMDL
