MODEL 1
REMARK VINA RESULT:      -6.3      0.000      0.000
REMARK  Name = 
REMARK  20 active torsions:
REMARK  status: ('A' for Active; 'I' for Inactive)
REMARK    1  A    between atoms: C_1  and  C_2
REMARK    2  A    between atoms: C_2  and  C_3
REMARK    3  A    between atoms: C_3  and  C_4
REMARK    4  A    between atoms: C_4  and  C_5
REMARK    5  A    between atoms: C_5  and  C_6
REMARK    6  A    between atoms: C_6  and  C_7
REMARK    7  A    between atoms: C_7  and  C_8
REMARK    8  A    between atoms: C_8  and  C_9
REMARK    9  A    between atoms: C_9  and  C_10
REMARK   10  A    between atoms: C_10  and  C_11
REMARK   11  A    between atoms: C_11  and  C_12
REMARK   12  A    between atoms: C_12  and  C_13
REMARK   13  A    between atoms: C_13  and  C_14
REMARK   14  A    between atoms: C_14  and  C_15
REMARK   15  A    between atoms: C_15  and  C_16
REMARK   16  A    between atoms: C_16  and  C_17
REMARK   17  A    between atoms: C_17  and  C_18
REMARK   18  A    between atoms: C_20  and  O_21
REMARK   19  A    between atoms: C_22  and  C_23
REMARK   20  A    between atoms: C_23  and  C_24
REMARK                            x       y       z     vdW  Elec       q    Type
REMARK                         _______ _______ _______ _____ _____    ______ ____
ROOT
ATOM      1  C   UNL     1       0.512  10.381  18.583  0.00  0.00    +0.000 C 
ENDROOT
BRANCH   1   2
ATOM      2  C   UNL     1       0.652  11.849  19.016  0.00  0.00    +0.000 C 
ATOM      3  C   UNL     1       1.981  12.446  18.577  0.00  0.00    +0.000 C 
ATOM      4  S   UNL     1      -0.738  12.896  18.389  0.00  0.00    +0.000 S 
ATOM      5  C   UNL     1      -1.663  12.644  19.828  0.00  0.00    +0.000 C 
ATOM      6  C   UNL     1      -1.029  12.109  20.879  0.00  0.00    +0.000 C 
ATOM      7  C   UNL     1       0.393  11.852  20.530  0.00  0.00    +0.000 C 
ATOM      8  O   UNL     1       1.229  11.537  21.376  0.00  0.00    +0.000 OA
BRANCH   5   9
ATOM      9  O   UNL     1      -3.002  12.927  19.838  0.00  0.00    +0.000 OA
ATOM     10  H   UNL     1      -3.330  12.729  20.733  0.00  0.00    +0.000 HD
ENDBRANCH   5   9
BRANCH   6  11
ATOM     11  C   UNL     1      -1.646  11.621  22.147  0.00  0.00    +0.000 C 
BRANCH  11  12
ATOM     12  C   UNL     1      -2.058  12.716  23.096  0.00  0.00    +0.000 A 
ATOM     13  C   UNL     1      -1.169  13.752  23.422  0.00  0.00    +0.000 A 
ATOM     14  C   UNL     1      -1.555  14.768  24.295  0.00  0.00    +0.000 A 
ATOM     15  C   UNL     1      -2.833  14.760  24.849  0.00  0.00    +0.000 A 
ATOM     16  C   UNL     1      -3.724  13.736  24.532  0.00  0.00    +0.000 A 
ATOM     17  C   UNL     1      -3.335  12.715  23.665  0.00  0.00    +0.000 A 
ENDBRANCH  11  12
ENDBRANCH   6  11
ENDBRANCH   1   2
BRANCH   1  18
ATOM     18  C   UNL     1       1.752   9.727  17.967  0.00  0.00    +0.000 C 
BRANCH  18  19
ATOM     19  C   UNL     1       2.207   8.519  18.783  0.00  0.00    +0.000 C 
BRANCH  19  20
ATOM     20  C   UNL     1       2.739   7.411  17.883  0.00  0.00    +0.000 C 
BRANCH  20  21
ATOM     21  C   UNL     1       2.281   6.049  18.352  0.00  0.00    +0.000 C 
BRANCH  21  22
ATOM     22  C   UNL     1       2.672   5.877  19.812  0.00  0.00    +0.000 C 
BRANCH  22  23
ATOM     23  C   UNL     1       1.484   5.382  20.603  0.00  0.00    +0.000 C 
BRANCH  23  24
ATOM     24  C   UNL     1       1.634   3.902  20.893  0.00  0.00    +0.000 C 
BRANCH  24  25
ATOM     25  C   UNL     1       0.990   3.103  19.778  0.00  0.00    +0.000 C 
BRANCH  25  26
ATOM     26  C   UNL     1       1.842   1.894  19.443  0.00  0.00    +0.000 C 
BRANCH  26  27
ATOM     27  C   UNL     1       3.238   2.341  19.047  0.00  0.00    +0.000 C 
BRANCH  27  28
ATOM     28  C   UNL     1       3.323   2.515  17.540  0.00  0.00    +0.000 C 
BRANCH  28  29
ATOM     29  C   UNL     1       4.367   3.564  17.187  0.00  0.00    +0.000 C 
BRANCH  29  30
ATOM     30  C   UNL     1       5.243   3.867  18.395  0.00  0.00    +0.000 C 
BRANCH  30  32
ATOM     31  C   UNL     1       7.460   4.608  17.497  0.00  0.00    +0.000 C 
ATOM     32  C   UNL     1       6.152   5.059  18.120  0.00  0.00    +0.000 C 
ENDBRANCH  30  32
ENDBRANCH  29  30
ENDBRANCH  28  29
ENDBRANCH  27  28
ENDBRANCH  26  27
ENDBRANCH  25  26
ENDBRANCH  24  25
ENDBRANCH  23  24
ENDBRANCH  22  23
ENDBRANCH  21  22
ENDBRANCH  20  21
ENDBRANCH  19  20
ENDBRANCH  18  19
ENDBRANCH   1  18
TORSDOF 18
ENDMDL
MODEL 2
REMARK VINA RESULT:      -6.2      3.503      9.720
REMARK  Name = 
REMARK  20 active torsions:
REMARK  status: ('A' for Active; 'I' for Inactive)
REMARK    1  A    between atoms: C_1  and  C_2
REMARK    2  A    between atoms: C_2  and  C_3
REMARK    3  A    between atoms: C_3  and  C_4
REMARK    4  A    between atoms: C_4  and  C_5
REMARK    5  A    between atoms: C_5  and  C_6
REMARK    6  A    between atoms: C_6  and  C_7
REMARK    7  A    between atoms: C_7  and  C_8
REMARK    8  A    between atoms: C_8  and  C_9
REMARK    9  A    between atoms: C_9  and  C_10
REMARK   10  A    between atoms: C_10  and  C_11
REMARK   11  A    between atoms: C_11  and  C_12
REMARK   12  A    between atoms: C_12  and  C_13
REMARK   13  A    between atoms: C_13  and  C_14
REMARK   14  A    between atoms: C_14  and  C_15
REMARK   15  A    between atoms: C_15  and  C_16
REMARK   16  A    between atoms: C_16  and  C_17
REMARK   17  A    between atoms: C_17  and  C_18
REMARK   18  A    between atoms: C_20  and  O_21
REMARK   19  A    between atoms: C_22  and  C_23
REMARK   20  A    between atoms: C_23  and  C_24
REMARK                            x       y       z     vdW  Elec       q    Type
REMARK                         _______ _______ _______ _____ _____    ______ ____
ROOT
ATOM      1  C   UNL     1       4.048   6.282  16.561  0.00  0.00    +0.000 C 
ENDROOT
BRANCH   1   2
ATOM      2  C   UNL     1       5.394   5.548  16.447  0.00  0.00    +0.000 C 
ATOM      3  C   UNL     1       5.914   5.538  15.018  0.00  0.00    +0.000 C 
ATOM      4  S   UNL     1       6.675   6.265  17.572  0.00  0.00    +0.000 S 
ATOM      5  C   UNL     1       6.273   5.161  18.840  0.00  0.00    +0.000 C 
ATOM      6  C   UNL     1       5.498   4.117  18.522  0.00  0.00    +0.000 C 
ATOM      7  C   UNL     1       5.157   4.167  17.075  0.00  0.00    +0.000 C 
ATOM      8  O   UNL     1       4.612   3.228  16.498  0.00  0.00    +0.000 OA
BRANCH   5   9
ATOM      9  O   UNL     1       6.690   5.409  20.120  0.00  0.00    +0.000 OA
ATOM     10  H   UNL     1       5.895   5.601  20.648  0.00  0.00    +0.000 HD
ENDBRANCH   5   9
BRANCH   6  11
ATOM     11  C   UNL     1       4.862   3.150  19.464  0.00  0.00    +0.000 C 
BRANCH  11  12
ATOM     12  C   UNL     1       3.396   3.394  19.707  0.00  0.00    +0.000 A 
ATOM     13  C   UNL     1       2.965   4.556  20.367  0.00  0.00    +0.000 A 
ATOM     14  C   UNL     1       1.608   4.784  20.585  0.00  0.00    +0.000 A 
ATOM     15  C   UNL     1       0.668   3.856  20.145  0.00  0.00    +0.000 A 
ATOM     16  C   UNL     1       1.084   2.699  19.489  0.00  0.00    +0.000 A 
ATOM     17  C   UNL     1       2.443   2.466  19.278  0.00  0.00    +0.000 A 
ENDBRANCH  11  12
ENDBRANCH   6  11
ENDBRANCH   1   2
BRANCH   1  18
ATOM     18  C   UNL     1       3.837   7.136  17.814  0.00  0.00    +0.000 C 
BRANCH  18  19
ATOM     19  C   UNL     1       2.356   7.232  18.178  0.00  0.00    +0.000 C 
BRANCH  19  20
ATOM     20  C   UNL     1       2.055   8.517  18.937  0.00  0.00    +0.000 C 
BRANCH  20  21
ATOM     21  C   UNL     1       1.900   9.691  17.997  0.00  0.00    +0.000 C 
BRANCH  21  22
ATOM     22  C   UNL     1       0.720  10.533  18.455  0.00  0.00    +0.000 C 
BRANCH  22  23
ATOM     23  C   UNL     1       1.204  11.896  18.893  0.00  0.00    +0.000 C 
BRANCH  23  24
ATOM     24  C   UNL     1       0.026  12.763  19.289  0.00  0.00    +0.000 C 
BRANCH  24  25
ATOM     25  C   UNL     1      -1.243  12.189  18.691  0.00  0.00    +0.000 C 
BRANCH  25  26
ATOM     26  C   UNL     1      -2.354  12.194  19.725  0.00  0.00    +0.000 C 
BRANCH  26  27
ATOM     27  C   UNL     1      -1.987  13.120  20.871  0.00  0.00    +0.000 C 
BRANCH  27  28
ATOM     28  C   UNL     1      -2.383  12.492  22.197  0.00  0.00    +0.000 C 
BRANCH  28  29
ATOM     29  C   UNL     1      -1.145  12.046  22.960  0.00  0.00    +0.000 C 
BRANCH  29  30
ATOM     30  C   UNL     1      -1.060  10.526  22.992  0.00  0.00    +0.000 C 
BRANCH  30  32
ATOM     31  C   UNL     1       1.040   9.286  22.424  0.00  0.00    +0.000 C 
ATOM     32  C   UNL     1      -0.172  10.009  21.866  0.00  0.00    +0.000 C 
ENDBRANCH  30  32
ENDBRANCH  29  30
ENDBRANCH  28  29
ENDBRANCH  27  28
ENDBRANCH  26  27
ENDBRANCH  25  26
ENDBRANCH  24  25
ENDBRANCH  23  24
ENDBRANCH  22  23
ENDBRANCH  21  22
ENDBRANCH  20  21
ENDBRANCH  19  20
ENDBRANCH  18  19
ENDBRANCH   1  18
TORSDOF 18
ENDMDL
MODEL 3
REMARK VINA RESULT:      -6.2      3.828      9.546
REMARK  Name = 
REMARK  20 active torsions:
REMARK  status: ('A' for Active; 'I' for Inactive)
REMARK    1  A    between atoms: C_1  and  C_2
REMARK    2  A    between atoms: C_2  and  C_3
REMARK    3  A    between atoms: C_3  and  C_4
REMARK    4  A    between atoms: C_4  and  C_5
REMARK    5  A    between atoms: C_5  and  C_6
REMARK    6  A    between atoms: C_6  and  C_7
REMARK    7  A    between atoms: C_7  and  C_8
REMARK    8  A    between atoms: C_8  and  C_9
REMARK    9  A    between atoms: C_9  and  C_10
REMARK   10  A    between atoms: C_10  and  C_11
REMARK   11  A    between atoms: C_11  and  C_12
REMARK   12  A    between atoms: C_12  and  C_13
REMARK   13  A    between atoms: C_13  and  C_14
REMARK   14  A    between atoms: C_14  and  C_15
REMARK   15  A    between atoms: C_15  and  C_16
REMARK   16  A    between atoms: C_16  and  C_17
REMARK   17  A    between atoms: C_17  and  C_18
REMARK   18  A    between atoms: C_20  and  O_21
REMARK   19  A    between atoms: C_22  and  C_23
REMARK   20  A    between atoms: C_23  and  C_24
REMARK                            x       y       z     vdW  Elec       q    Type
REMARK                         _______ _______ _______ _____ _____    ______ ____
ROOT
ATOM      1  C   UNL     1       3.932   6.625  16.889  0.00  0.00    +0.000 C 
ENDROOT
BRANCH   1   2
ATOM      2  C   UNL     1       5.208   5.833  16.558  0.00  0.00    +0.000 C 
ATOM      3  C   UNL     1       5.585   5.957  15.089  0.00  0.00    +0.000 C 
ATOM      4  S   UNL     1       6.638   6.343  17.613  0.00  0.00    +0.000 S 
ATOM      5  C   UNL     1       6.286   5.127  18.790  0.00  0.00    +0.000 C 
ATOM      6  C   UNL     1       5.414   4.172  18.444  0.00  0.00    +0.000 C 
ATOM      7  C   UNL     1       4.939   4.406  17.054  0.00  0.00    +0.000 C 
ATOM      8  O   UNL     1       4.277   3.571  16.439  0.00  0.00    +0.000 OA
BRANCH   5   9
ATOM      9  O   UNL     1       6.842   5.203  20.040  0.00  0.00    +0.000 OA
ATOM     10  H   UNL     1       6.783   6.133  20.322  0.00  0.00    +0.000 HD
ENDBRANCH   5   9
BRANCH   6  11
ATOM     11  C   UNL     1       4.809   3.141  19.337  0.00  0.00    +0.000 C 
BRANCH  11  12
ATOM     12  C   UNL     1       3.340   3.341  19.607  0.00  0.00    +0.000 A 
ATOM     13  C   UNL     1       2.911   4.221  20.613  0.00  0.00    +0.000 A 
ATOM     14  C   UNL     1       1.552   4.410  20.856  0.00  0.00    +0.000 A 
ATOM     15  C   UNL     1       0.608   3.724  20.096  0.00  0.00    +0.000 A 
ATOM     16  C   UNL     1       1.023   2.848  19.094  0.00  0.00    +0.000 A 
ATOM     17  C   UNL     1       2.383   2.652  18.856  0.00  0.00    +0.000 A 
ENDBRANCH  11  12
ENDBRANCH   6  11
ENDBRANCH   1   2
BRANCH   1  18
ATOM     18  C   UNL     1       3.610   6.815  18.374  0.00  0.00    +0.000 C 
BRANCH  18  19
ATOM     19  C   UNL     1       2.499   7.843  18.574  0.00  0.00    +0.000 C 
BRANCH  19  20
ATOM     20  C   UNL     1       1.922   7.769  19.982  0.00  0.00    +0.000 C 
BRANCH  20  21
ATOM     21  C   UNL     1       0.956   8.903  20.245  0.00  0.00    +0.000 C 
BRANCH  21  22
ATOM     22  C   UNL     1       0.268   8.660  21.578  0.00  0.00    +0.000 C 
BRANCH  22  23
ATOM     23  C   UNL     1       0.158   9.959  22.340  0.00  0.00    +0.000 C 
BRANCH  23  24
ATOM     24  C   UNL     1       0.535  11.121  21.443  0.00  0.00    +0.000 C 
BRANCH  24  25
ATOM     25  C   UNL     1      -0.430  12.267  21.672  0.00  0.00    +0.000 C 
BRANCH  25  26
ATOM     26  C   UNL     1      -1.015  12.727  20.350  0.00  0.00    +0.000 C 
BRANCH  26  27
ATOM     27  C   UNL     1      -1.684  11.559  19.647  0.00  0.00    +0.000 C 
BRANCH  27  28
ATOM     28  C   UNL     1      -1.357  11.585  18.164  0.00  0.00    +0.000 C 
BRANCH  28  29
ATOM     29  C   UNL     1      -1.590  10.214  17.547  0.00  0.00    +0.000 C 
BRANCH  29  30
ATOM     30  C   UNL     1      -3.077   9.885  17.535  0.00  0.00    +0.000 C 
BRANCH  30  32
ATOM     31  C   UNL     1      -2.846  10.168  15.057  0.00  0.00    +0.000 C 
ATOM     32  C   UNL     1      -3.737  10.405  16.263  0.00  0.00    +0.000 C 
ENDBRANCH  30  32
ENDBRANCH  29  30
ENDBRANCH  28  29
ENDBRANCH  27  28
ENDBRANCH  26  27
ENDBRANCH  25  26
ENDBRANCH  24  25
ENDBRANCH  23  24
ENDBRANCH  22  23
ENDBRANCH  21  22
ENDBRANCH  20  21
ENDBRANCH  19  20
ENDBRANCH  18  19
ENDBRANCH   1  18
TORSDOF 18
ENDMDL
MODEL 4
REMARK VINA RESULT:      -6.2      3.622      9.740
REMARK  Name = 
REMARK  20 active torsions:
REMARK  status: ('A' for Active; 'I' for Inactive)
REMARK    1  A    between atoms: C_1  and  C_2
REMARK    2  A    between atoms: C_2  and  C_3
REMARK    3  A    between atoms: C_3  and  C_4
REMARK    4  A    between atoms: C_4  and  C_5
REMARK    5  A    between atoms: C_5  and  C_6
REMARK    6  A    between atoms: C_6  and  C_7
REMARK    7  A    between atoms: C_7  and  C_8
REMARK    8  A    between atoms: C_8  and  C_9
REMARK    9  A    between atoms: C_9  and  C_10
REMARK   10  A    between atoms: C_10  and  C_11
REMARK   11  A    between atoms: C_11  and  C_12
REMARK   12  A    between atoms: C_12  and  C_13
REMARK   13  A    between atoms: C_13  and  C_14
REMARK   14  A    between atoms: C_14  and  C_15
REMARK   15  A    between atoms: C_15  and  C_16
REMARK   16  A    between atoms: C_16  and  C_17
REMARK   17  A    between atoms: C_17  and  C_18
REMARK   18  A    between atoms: C_20  and  O_21
REMARK   19  A    between atoms: C_22  and  C_23
REMARK   20  A    between atoms: C_23  and  C_24
REMARK                            x       y       z     vdW  Elec       q    Type
REMARK                         _______ _______ _______ _____ _____    ______ ____
ROOT
ATOM      1  C   UNL     1       3.892   6.472  16.750  0.00  0.00    +0.000 C 
ENDROOT
BRANCH   1   2
ATOM      2  C   UNL     1       5.194   5.695  16.496  0.00  0.00    +0.000 C 
ATOM      3  C   UNL     1       5.581   5.706  15.025  0.00  0.00    +0.000 C 
ATOM      4  S   UNL     1       6.597   6.337  17.515  0.00  0.00    +0.000 S 
ATOM      5  C   UNL     1       6.272   5.215  18.788  0.00  0.00    +0.000 C 
ATOM      6  C   UNL     1       5.433   4.207  18.518  0.00  0.00    +0.000 C 
ATOM      7  C   UNL     1       4.965   4.307  17.110  0.00  0.00    +0.000 C 
ATOM      8  O   UNL     1       4.334   3.403  16.563  0.00  0.00    +0.000 OA
BRANCH   5   9
ATOM      9  O   UNL     1       6.813   5.414  20.030  0.00  0.00    +0.000 OA
ATOM     10  H   UNL     1       6.173   5.070  20.679  0.00  0.00    +0.000 HD
ENDBRANCH   5   9
BRANCH   6  11
ATOM     11  C   UNL     1       4.850   3.237  19.491  0.00  0.00    +0.000 C 
BRANCH  11  12
ATOM     12  C   UNL     1       3.385   3.445  19.771  0.00  0.00    +0.000 A 
ATOM     13  C   UNL     1       2.927   4.648  20.330  0.00  0.00    +0.000 A 
ATOM     14  C   UNL     1       1.570   4.841  20.581  0.00  0.00    +0.000 A 
ATOM     15  C   UNL     1       0.657   3.836  20.275  0.00  0.00    +0.000 A 
ATOM     16  C   UNL     1       1.100   2.637  19.719  0.00  0.00    +0.000 A 
ATOM     17  C   UNL     1       2.459   2.440  19.475  0.00  0.00    +0.000 A 
ENDBRANCH  11  12
ENDBRANCH   6  11
ENDBRANCH   1   2
BRANCH   1  18
ATOM     18  C   UNL     1       3.918   7.502  17.882  0.00  0.00    +0.000 C 
BRANCH  18  19
ATOM     19  C   UNL     1       2.521   7.733  18.456  0.00  0.00    +0.000 C 
BRANCH  19  20
ATOM     20  C   UNL     1       1.758   8.779  17.653  0.00  0.00    +0.000 C 
BRANCH  20  21
ATOM     21  C   UNL     1       2.075  10.179  18.127  0.00  0.00    +0.000 C 
BRANCH  21  22
ATOM     22  C   UNL     1       0.856  10.743  18.839  0.00  0.00    +0.000 C 
BRANCH  22  23
ATOM     23  C   UNL     1       0.688  10.066  20.179  0.00  0.00    +0.000 C 
BRANCH  23  24
ATOM     24  C   UNL     1      -0.570  10.566  20.859  0.00  0.00    +0.000 C 
BRANCH  24  25
ATOM     25  C   UNL     1      -0.236  11.781  21.702  0.00  0.00    +0.000 C 
BRANCH  25  26
ATOM     26  C   UNL     1      -1.386  12.770  21.668  0.00  0.00    +0.000 C 
BRANCH  26  27
ATOM     27  C   UNL     1      -2.028  12.767  20.291  0.00  0.00    +0.000 C 
BRANCH  27  28
ATOM     28  C   UNL     1      -3.534  12.617  20.418  0.00  0.00    +0.000 C 
BRANCH  28  29
ATOM     29  C   UNL     1      -4.118  12.042  19.136  0.00  0.00    +0.000 C 
BRANCH  29  30
ATOM     30  C   UNL     1      -3.004  11.683  18.162  0.00  0.00    +0.000 C 
BRANCH  30  32
ATOM     31  C   UNL     1      -2.021   9.716  16.962  0.00  0.00    +0.000 C 
ATOM     32  C   UNL     1      -3.301  10.362  17.462  0.00  0.00    +0.000 C 
ENDBRANCH  30  32
ENDBRANCH  29  30
ENDBRANCH  28  29
ENDBRANCH  27  28
ENDBRANCH  26  27
ENDBRANCH  25  26
ENDBRANCH  24  25
ENDBRANCH  23  24
ENDBRANCH  22  23
ENDBRANCH  21  22
ENDBRANCH  20  21
ENDBRANCH  19  20
ENDBRANCH  18  19
ENDBRANCH   1  18
TORSDOF 18
ENDMDL
MODEL 5
REMARK VINA RESULT:      -6.2      1.668      2.836
REMARK  Name = 
REMARK  20 active torsions:
REMARK  status: ('A' for Active; 'I' for Inactive)
REMARK    1  A    between atoms: C_1  and  C_2
REMARK    2  A    between atoms: C_2  and  C_3
REMARK    3  A    between atoms: C_3  and  C_4
REMARK    4  A    between atoms: C_4  and  C_5
REMARK    5  A    between atoms: C_5  and  C_6
REMARK    6  A    between atoms: C_6  and  C_7
REMARK    7  A    between atoms: C_7  and  C_8
REMARK    8  A    between atoms: C_8  and  C_9
REMARK    9  A    between atoms: C_9  and  C_10
REMARK   10  A    between atoms: C_10  and  C_11
REMARK   11  A    between atoms: C_11  and  C_12
REMARK   12  A    between atoms: C_12  and  C_13
REMARK   13  A    between atoms: C_13  and  C_14
REMARK   14  A    between atoms: C_14  and  C_15
REMARK   15  A    between atoms: C_15  and  C_16
REMARK   16  A    between atoms: C_16  and  C_17
REMARK   17  A    between atoms: C_17  and  C_18
REMARK   18  A    between atoms: C_20  and  O_21
REMARK   19  A    between atoms: C_22  and  C_23
REMARK   20  A    between atoms: C_23  and  C_24
REMARK                            x       y       z     vdW  Elec       q    Type
REMARK                         _______ _______ _______ _____ _____    ______ ____
ROOT
ATOM      1  C   UNL     1       0.694   9.215  20.005  0.00  0.00    +0.000 C 
ENDROOT
BRANCH   1   2
ATOM      2  C   UNL     1       0.753   9.973  18.669  0.00  0.00    +0.000 C 
ATOM      3  C   UNL     1       1.930   9.525  17.815  0.00  0.00    +0.000 C 
ATOM      4  S   UNL     1      -0.816   9.807  17.704  0.00  0.00    +0.000 S 
ATOM      5  C   UNL     1      -1.472  11.247  18.399  0.00  0.00    +0.000 C 
ATOM      6  C   UNL     1      -0.631  12.044  19.069  0.00  0.00    +0.000 C 
ATOM      7  C   UNL     1       0.737  11.461  19.046  0.00  0.00    +0.000 C 
ATOM      8  O   UNL     1       1.723  12.089  19.431  0.00  0.00    +0.000 OA
BRANCH   5   9
ATOM      9  O   UNL     1      -2.815  11.499  18.308  0.00  0.00    +0.000 OA
ATOM     10  H   UNL     1      -2.957  12.409  18.627  0.00  0.00    +0.000 HD
ENDBRANCH   5   9
BRANCH   6  11
ATOM     11  C   UNL     1      -0.988  13.222  19.912  0.00  0.00    +0.000 C 
BRANCH  11  12
ATOM     12  C   UNL     1      -1.713  12.877  21.186  0.00  0.00    +0.000 A 
ATOM     13  C   UNL     1      -2.950  13.468  21.488  0.00  0.00    +0.000 A 
ATOM     14  C   UNL     1      -3.623  13.142  22.663  0.00  0.00    +0.000 A 
ATOM     15  C   UNL     1      -3.069  12.219  23.548  0.00  0.00    +0.000 A 
ATOM     16  C   UNL     1      -1.842  11.625  23.258  0.00  0.00    +0.000 A 
ATOM     17  C   UNL     1      -1.164  11.958  22.086  0.00  0.00    +0.000 A 
ENDBRANCH  11  12
ENDBRANCH   6  11
ENDBRANCH   1   2
BRANCH   1  18
ATOM     18  C   UNL     1       1.754   8.132  20.226  0.00  0.00    +0.000 C 
BRANCH  18  19
ATOM     19  C   UNL     1       1.169   6.923  20.954  0.00  0.00    +0.000 C 
BRANCH  19  20
ATOM     20  C   UNL     1       1.992   5.668  20.693  0.00  0.00    +0.000 C 
BRANCH  20  21
ATOM     21  C   UNL     1       1.109   4.483  20.374  0.00  0.00    +0.000 C 
BRANCH  21  22
ATOM     22  C   UNL     1       1.617   3.273  21.142  0.00  0.00    +0.000 C 
BRANCH  22  23
ATOM     23  C   UNL     1       2.955   2.843  20.589  0.00  0.00    +0.000 C 
BRANCH  23  24
ATOM     24  C   UNL     1       2.812   2.445  19.134  0.00  0.00    +0.000 C 
BRANCH  24  25
ATOM     25  C   UNL     1       3.906   3.110  18.321  0.00  0.00    +0.000 C 
BRANCH  25  26
ATOM     26  C   UNL     1       4.741   4.012  19.210  0.00  0.00    +0.000 C 
BRANCH  26  27
ATOM     27  C   UNL     1       4.984   5.340  18.515  0.00  0.00    +0.000 C 
BRANCH  27  28
ATOM     28  C   UNL     1       4.283   5.358  17.167  0.00  0.00    +0.000 C 
BRANCH  28  29
ATOM     29  C   UNL     1       5.094   6.163  16.162  0.00  0.00    +0.000 C 
BRANCH  29  30
ATOM     30  C   UNL     1       6.342   5.393  15.751  0.00  0.00    +0.000 C 
BRANCH  30  32
ATOM     31  C   UNL     1       5.925   3.964  13.737  0.00  0.00    +0.000 C 
ATOM     32  C   UNL     1       5.980   3.999  15.254  0.00  0.00    +0.000 C 
ENDBRANCH  30  32
ENDBRANCH  29  30
ENDBRANCH  28  29
ENDBRANCH  27  28
ENDBRANCH  26  27
ENDBRANCH  25  26
ENDBRANCH  24  25
ENDBRANCH  23  24
ENDBRANCH  22  23
ENDBRANCH  21  22
ENDBRANCH  20  21
ENDBRANCH  19  20
ENDBRANCH  18  19
ENDBRANCH   1  18
TORSDOF 18
ENDMDL
MODEL 6
REMARK VINA RESULT:      -6.2      2.529      3.418
REMARK  Name = 
REMARK  20 active torsions:
REMARK  status: ('A' for Active; 'I' for Inactive)
REMARK    1  A    between atoms: C_1  and  C_2
REMARK    2  A    between atoms: C_2  and  C_3
REMARK    3  A    between atoms: C_3  and  C_4
REMARK    4  A    between atoms: C_4  and  C_5
REMARK    5  A    between atoms: C_5  and  C_6
REMARK    6  A    between atoms: C_6  and  C_7
REMARK    7  A    between atoms: C_7  and  C_8
REMARK    8  A    between atoms: C_8  and  C_9
REMARK    9  A    between atoms: C_9  and  C_10
REMARK   10  A    between atoms: C_10  and  C_11
REMARK   11  A    between atoms: C_11  and  C_12
REMARK   12  A    between atoms: C_12  and  C_13
REMARK   13  A    between atoms: C_13  and  C_14
REMARK   14  A    between atoms: C_14  and  C_15
REMARK   15  A    between atoms: C_15  and  C_16
REMARK   16  A    between atoms: C_16  and  C_17
REMARK   17  A    between atoms: C_17  and  C_18
REMARK   18  A    between atoms: C_20  and  O_21
REMARK   19  A    between atoms: C_22  and  C_23
REMARK   20  A    between atoms: C_23  and  C_24
REMARK                            x       y       z     vdW  Elec       q    Type
REMARK                         _______ _______ _______ _____ _____    ______ ____
ROOT
ATOM      1  C   UNL     1       0.947  10.615  18.257  0.00  0.00    +0.000 C 
ENDROOT
BRANCH   1   2
ATOM      2  C   UNL     1       0.117  10.665  19.550  0.00  0.00    +0.000 C 
ATOM      3  C   UNL     1       0.601   9.648  20.573  0.00  0.00    +0.000 C 
ATOM      4  S   UNL     1       0.106  12.352  20.306  0.00  0.00    +0.000 S 
ATOM      5  C   UNL     1      -1.335  12.793  19.461  0.00  0.00    +0.000 C 
ATOM      6  C   UNL     1      -2.025  11.810  18.869  0.00  0.00    +0.000 C 
ATOM      7  C   UNL     1      -1.343  10.509  19.102  0.00  0.00    +0.000 C 
ATOM      8  O   UNL     1      -1.871   9.434  18.820  0.00  0.00    +0.000 OA
BRANCH   5   9
ATOM      9  O   UNL     1      -1.693  14.111  19.361  0.00  0.00    +0.000 OA
ATOM     10  H   UNL     1      -2.501  14.148  18.818  0.00  0.00    +0.000 HD
ENDBRANCH   5   9
BRANCH   6  11
ATOM     11  C   UNL     1      -3.175  11.958  17.930  0.00  0.00    +0.000 C 
BRANCH  11  12
ATOM     12  C   UNL     1      -4.524  11.749  18.566  0.00  0.00    +0.000 A 
ATOM     13  C   UNL     1      -5.470  10.899  17.972  0.00  0.00    +0.000 A 
ATOM     14  C   UNL     1      -6.716  10.701  18.566  0.00  0.00    +0.000 A 
ATOM     15  C   UNL     1      -7.027  11.348  19.759  0.00  0.00    +0.000 A 
ATOM     16  C   UNL     1      -6.096  12.194  20.358  0.00  0.00    +0.000 A 
ATOM     17  C   UNL     1      -4.853  12.399  19.760  0.00  0.00    +0.000 A 
ENDBRANCH  11  12
ENDBRANCH   6  11
ENDBRANCH   1   2
BRANCH   1  18
ATOM     18  C   UNL     1       1.083   9.247  17.583  0.00  0.00    +0.000 C 
BRANCH  18  19
ATOM     19  C   UNL     1       2.410   8.581  17.941  0.00  0.00    +0.000 C 
BRANCH  19  20
ATOM     20  C   UNL     1       2.228   7.093  18.211  0.00  0.00    +0.000 C 
BRANCH  20  21
ATOM     21  C   UNL     1       2.826   6.695  19.541  0.00  0.00    +0.000 C 
BRANCH  21  22
ATOM     22  C   UNL     1       1.722   6.144  20.430  0.00  0.00    +0.000 C 
BRANCH  22  23
ATOM     23  C   UNL     1       2.041   4.719  20.817  0.00  0.00    +0.000 C 
BRANCH  23  24
ATOM     24  C   UNL     1       0.924   3.798  20.373  0.00  0.00    +0.000 C 
BRANCH  24  25
ATOM     25  C   UNL     1       1.481   2.751  19.428  0.00  0.00    +0.000 C 
BRANCH  25  26
ATOM     26  C   UNL     1       1.830   3.385  18.095  0.00  0.00    +0.000 C 
BRANCH  26  27
ATOM     27  C   UNL     1       3.153   2.833  17.593  0.00  0.00    +0.000 C 
BRANCH  27  28
ATOM     28  C   UNL     1       4.204   3.929  17.578  0.00  0.00    +0.000 C 
BRANCH  28  29
ATOM     29  C   UNL     1       5.124   3.795  18.782  0.00  0.00    +0.000 C 
BRANCH  29  30
ATOM     30  C   UNL     1       5.906   5.084  18.996  0.00  0.00    +0.000 C 
BRANCH  30  32
ATOM     31  C   UNL     1       7.156   6.507  17.357  0.00  0.00    +0.000 C 
ATOM     32  C   UNL     1       5.791   5.997  17.781  0.00  0.00    +0.000 C 
ENDBRANCH  30  32
ENDBRANCH  29  30
ENDBRANCH  28  29
ENDBRANCH  27  28
ENDBRANCH  26  27
ENDBRANCH  25  26
ENDBRANCH  24  25
ENDBRANCH  23  24
ENDBRANCH  22  23
ENDBRANCH  21  22
ENDBRANCH  20  21
ENDBRANCH  19  20
ENDBRANCH  18  19
ENDBRANCH   1  18
TORSDOF 18
ENDMDL
MODEL 7
REMARK VINA RESULT:      -6.1      3.975     10.068
REMARK  Name = 
REMARK  20 active torsions:
REMARK  status: ('A' for Active; 'I' for Inactive)
REMARK    1  A    between atoms: C_1  and  C_2
REMARK    2  A    between atoms: C_2  and  C_3
REMARK    3  A    between atoms: C_3  and  C_4
REMARK    4  A    between atoms: C_4  and  C_5
REMARK    5  A    between atoms: C_5  and  C_6
REMARK    6  A    between atoms: C_6  and  C_7
REMARK    7  A    between atoms: C_7  and  C_8
REMARK    8  A    between atoms: C_8  and  C_9
REMARK    9  A    between atoms: C_9  and  C_10
REMARK   10  A    between atoms: C_10  and  C_11
REMARK   11  A    between atoms: C_11  and  C_12
REMARK   12  A    between atoms: C_12  and  C_13
REMARK   13  A    between atoms: C_13  and  C_14
REMARK   14  A    between atoms: C_14  and  C_15
REMARK   15  A    between atoms: C_15  and  C_16
REMARK   16  A    between atoms: C_16  and  C_17
REMARK   17  A    between atoms: C_17  and  C_18
REMARK   18  A    between atoms: C_20  and  O_21
REMARK   19  A    between atoms: C_22  and  C_23
REMARK   20  A    between atoms: C_23  and  C_24
REMARK                            x       y       z     vdW  Elec       q    Type
REMARK                         _______ _______ _______ _____ _____    ______ ____
ROOT
ATOM      1  C   UNL     1       2.342   4.851  21.061  0.00  0.00    +0.000 C 
ENDROOT
BRANCH   1   2
ATOM      2  C   UNL     1       2.020   3.386  20.725  0.00  0.00    +0.000 C 
ATOM      3  C   UNL     1       1.521   2.622  21.942  0.00  0.00    +0.000 C 
ATOM      4  S   UNL     1       0.791   3.240  19.351  0.00  0.00    +0.000 S 
ATOM      5  C   UNL     1       2.037   3.156  18.157  0.00  0.00    +0.000 C 
ATOM      6  C   UNL     1       3.287   2.947  18.588  0.00  0.00    +0.000 C 
ATOM      7  C   UNL     1       3.293   2.831  20.070  0.00  0.00    +0.000 C 
ATOM      8  O   UNL     1       4.285   2.456  20.694  0.00  0.00    +0.000 OA
BRANCH   5   9
ATOM      9  O   UNL     1       1.736   3.366  16.837  0.00  0.00    +0.000 OA
ATOM     10  H   UNL     1       2.187   2.670  16.327  0.00  0.00    +0.000 HD
ENDBRANCH   5   9
BRANCH   6  11
ATOM     11  C   UNL     1       4.541   3.029  17.784  0.00  0.00    +0.000 C 
BRANCH  11  12
ATOM     12  C   UNL     1       4.749   4.352  17.093  0.00  0.00    +0.000 A 
ATOM     13  C   UNL     1       4.450   5.556  17.750  0.00  0.00    +0.000 A 
ATOM     14  C   UNL     1       4.650   6.779  17.112  0.00  0.00    +0.000 A 
ATOM     15  C   UNL     1       5.153   6.811  15.814  0.00  0.00    +0.000 A 
ATOM     16  C   UNL     1       5.455   5.622  15.153  0.00  0.00    +0.000 A 
ATOM     17  C   UNL     1       5.247   4.398  15.787  0.00  0.00    +0.000 A 
ENDBRANCH  11  12
ENDBRANCH   6  11
ENDBRANCH   1   2
BRANCH   1  18
ATOM     18  C   UNL     1       1.633   5.918  20.222  0.00  0.00    +0.000 C 
BRANCH  18  19
ATOM     19  C   UNL     1       1.556   7.249  20.967  0.00  0.00    +0.000 C 
BRANCH  19  20
ATOM     20  C   UNL     1       0.196   7.909  20.782  0.00  0.00    +0.000 C 
BRANCH  20  21
ATOM     21  C   UNL     1      -0.256   8.608  22.044  0.00  0.00    +0.000 C 
BRANCH  21  22
ATOM     22  C   UNL     1       0.654   9.800  22.297  0.00  0.00    +0.000 C 
BRANCH  22  23
ATOM     23  C   UNL     1      -0.017  11.066  21.819  0.00  0.00    +0.000 C 
BRANCH  23  24
ATOM     24  C   UNL     1       0.913  11.829  20.898  0.00  0.00    +0.000 C 
BRANCH  24  25
ATOM     25  C   UNL     1       0.116  12.857  20.119  0.00  0.00    +0.000 C 
BRANCH  25  26
ATOM     26  C   UNL     1      -1.313  12.380  19.937  0.00  0.00    +0.000 C 
BRANCH  26  27
ATOM     27  C   UNL     1      -1.515  11.886  18.516  0.00  0.00    +0.000 C 
BRANCH  27  28
ATOM     28  C   UNL     1      -1.340  10.378  18.458  0.00  0.00    +0.000 C 
BRANCH  28  29
ATOM     29  C   UNL     1      -1.805   9.843  17.112  0.00  0.00    +0.000 C 
BRANCH  29  30
ATOM     30  C   UNL     1      -3.322   9.935  17.001  0.00  0.00    +0.000 C 
BRANCH  30  32
ATOM     31  C   UNL     1      -3.052  10.120  14.518  0.00  0.00    +0.000 C 
ATOM     32  C   UNL     1      -3.728  10.700  15.747  0.00  0.00    +0.000 C 
ENDBRANCH  30  32
ENDBRANCH  29  30
ENDBRANCH  28  29
ENDBRANCH  27  28
ENDBRANCH  26  27
ENDBRANCH  25  26
ENDBRANCH  24  25
ENDBRANCH  23  24
ENDBRANCH  22  23
ENDBRANCH  21  22
ENDBRANCH  20  21
ENDBRANCH  19  20
ENDBRANCH  18  19
ENDBRANCH   1  18
TORSDOF 18
ENDMDL
MODEL 8
REMARK VINA RESULT:      -6.0      3.785     10.247
REMARK  Name = 
REMARK  20 active torsions:
REMARK  status: ('A' for Active; 'I' for Inactive)
REMARK    1  A    between atoms: C_1  and  C_2
REMARK    2  A    between atoms: C_2  and  C_3
REMARK    3  A    between atoms: C_3  and  C_4
REMARK    4  A    between atoms: C_4  and  C_5
REMARK    5  A    between atoms: C_5  and  C_6
REMARK    6  A    between atoms: C_6  and  C_7
REMARK    7  A    between atoms: C_7  and  C_8
REMARK    8  A    between atoms: C_8  and  C_9
REMARK    9  A    between atoms: C_9  and  C_10
REMARK   10  A    between atoms: C_10  and  C_11
REMARK   11  A    between atoms: C_11  and  C_12
REMARK   12  A    between atoms: C_12  and  C_13
REMARK   13  A    between atoms: C_13  and  C_14
REMARK   14  A    between atoms: C_14  and  C_15
REMARK   15  A    between atoms: C_15  and  C_16
REMARK   16  A    between atoms: C_16  and  C_17
REMARK   17  A    between atoms: C_17  and  C_18
REMARK   18  A    between atoms: C_20  and  O_21
REMARK   19  A    between atoms: C_22  and  C_23
REMARK   20  A    between atoms: C_23  and  C_24
REMARK                            x       y       z     vdW  Elec       q    Type
REMARK                         _______ _______ _______ _____ _____    ______ ____
ROOT
ATOM      1  C   UNL     1       2.713   4.683  20.892  0.00  0.00    +0.000 C 
ENDROOT
BRANCH   1   2
ATOM      2  C   UNL     1       2.366   3.238  20.500  0.00  0.00    +0.000 C 
ATOM      3  C   UNL     1       1.899   2.423  21.697  0.00  0.00    +0.000 C 
ATOM      4  S   UNL     1       1.093   3.166  19.162  0.00  0.00    +0.000 S 
ATOM      5  C   UNL     1       2.300   3.125  17.925  0.00  0.00    +0.000 C 
ATOM      6  C   UNL     1       3.561   2.887  18.306  0.00  0.00    +0.000 C 
ATOM      7  C   UNL     1       3.613   2.703  19.781  0.00  0.00    +0.000 C 
ATOM      8  O   UNL     1       4.620   2.291  20.355  0.00  0.00    +0.000 OA
BRANCH   5   9
ATOM      9  O   UNL     1       1.959   3.397  16.627  0.00  0.00    +0.000 OA
ATOM     10  H   UNL     1       2.393   2.726  16.071  0.00  0.00    +0.000 HD
ENDBRANCH   5   9
BRANCH   6  11
ATOM     11  C   UNL     1       4.789   2.995  17.467  0.00  0.00    +0.000 C 
BRANCH  11  12
ATOM     12  C   UNL     1       5.366   4.384  17.389  0.00  0.00    +0.000 A 
ATOM     13  C   UNL     1       4.950   5.276  16.389  0.00  0.00    +0.000 A 
ATOM     14  C   UNL     1       5.480   6.563  16.323  0.00  0.00    +0.000 A 
ATOM     15  C   UNL     1       6.429   6.973  17.256  0.00  0.00    +0.000 A 
ATOM     16  C   UNL     1       6.850   6.095  18.254  0.00  0.00    +0.000 A 
ATOM     17  C   UNL     1       6.326   4.804  18.315  0.00  0.00    +0.000 A 
ENDBRANCH  11  12
ENDBRANCH   6  11
ENDBRANCH   1   2
BRANCH   1  18
ATOM     18  C   UNL     1       2.060   5.793  20.064  0.00  0.00    +0.000 C 
BRANCH  18  19
ATOM     19  C   UNL     1       3.096   6.553  19.238  0.00  0.00    +0.000 C 
BRANCH  19  20
ATOM     20  C   UNL     1       2.430   7.463  18.214  0.00  0.00    +0.000 C 
BRANCH  20  21
ATOM     21  C   UNL     1       1.849   8.697  18.866  0.00  0.00    +0.000 C 
BRANCH  21  22
ATOM     22  C   UNL     1       0.930   9.390  17.872  0.00  0.00    +0.000 C 
BRANCH  22  23
ATOM     23  C   UNL     1       0.047  10.378  18.596  0.00  0.00    +0.000 C 
BRANCH  23  24
ATOM     24  C   UNL     1      -0.256   9.878  19.993  0.00  0.00    +0.000 C 
BRANCH  24  25
ATOM     25  C   UNL     1      -0.631  11.052  20.877  0.00  0.00    +0.000 C 
BRANCH  25  26
ATOM     26  C   UNL     1      -0.065  12.337  20.303  0.00  0.00    +0.000 C 
BRANCH  26  27
ATOM     27  C   UNL     1       0.307  13.285  21.430  0.00  0.00    +0.000 C 
BRANCH  27  28
ATOM     28  C   UNL     1       1.475  14.160  21.011  0.00  0.00    +0.000 C 
BRANCH  28  29
ATOM     29  C   UNL     1       1.016  15.215  20.016  0.00  0.00    +0.000 C 
BRANCH  29  30
ATOM     30  C   UNL     1       2.146  16.191  19.718  0.00  0.00    +0.000 C 
BRANCH  30  32
ATOM     31  C   UNL     1       3.311  15.122  17.776  0.00  0.00    +0.000 C 
ATOM     32  C   UNL     1       3.395  15.449  19.256  0.00  0.00    +0.000 C 
ENDBRANCH  30  32
ENDBRANCH  29  30
ENDBRANCH  28  29
ENDBRANCH  27  28
ENDBRANCH  26  27
ENDBRANCH  25  26
ENDBRANCH  24  25
ENDBRANCH  23  24
ENDBRANCH  22  23
ENDBRANCH  21  22
ENDBRANCH  20  21
ENDBRANCH  19  20
ENDBRANCH  18  19
ENDBRANCH   1  18
TORSDOF 18
ENDMDL
MODEL 9
REMARK VINA RESULT:      -6.0      6.147      8.226
REMARK  Name = 
REMARK  20 active torsions:
REMARK  status: ('A' for Active; 'I' for Inactive)
REMARK    1  A    between atoms: C_1  and  C_2
REMARK    2  A    between atoms: C_2  and  C_3
REMARK    3  A    between atoms: C_3  and  C_4
REMARK    4  A    between atoms: C_4  and  C_5
REMARK    5  A    between atoms: C_5  and  C_6
REMARK    6  A    between atoms: C_6  and  C_7
REMARK    7  A    between atoms: C_7  and  C_8
REMARK    8  A    between atoms: C_8  and  C_9
REMARK    9  A    between atoms: C_9  and  C_10
REMARK   10  A    between atoms: C_10  and  C_11
REMARK   11  A    between atoms: C_11  and  C_12
REMARK   12  A    between atoms: C_12  and  C_13
REMARK   13  A    between atoms: C_13  and  C_14
REMARK   14  A    between atoms: C_14  and  C_15
REMARK   15  A    between atoms: C_15  and  C_16
REMARK   16  A    between atoms: C_16  and  C_17
REMARK   17  A    between atoms: C_17  and  C_18
REMARK   18  A    between atoms: C_20  and  O_21
REMARK   19  A    between atoms: C_22  and  C_23
REMARK   20  A    between atoms: C_23  and  C_24
REMARK                            x       y       z     vdW  Elec       q    Type
REMARK                         _______ _______ _______ _____ _____    ______ ____
ROOT
ATOM      1  C   UNL     1       9.297  11.099  19.119  0.00  0.00    +0.000 C 
ENDROOT
BRANCH   1   2
ATOM      2  C   UNL     1      10.073  12.323  18.608  0.00  0.00    +0.000 C 
ATOM      3  C   UNL     1      11.047  11.954  17.499  0.00  0.00    +0.000 C 
ATOM      4  S   UNL     1       8.947  13.669  18.026  0.00  0.00    +0.000 S 
ATOM      5  C   UNL     1       8.939  14.425  19.581  0.00  0.00    +0.000 C 
ATOM      6  C   UNL     1       9.856  14.015  20.466  0.00  0.00    +0.000 C 
ATOM      7  C   UNL     1      10.703  12.955  19.858  0.00  0.00    +0.000 C 
ATOM      8  O   UNL     1      11.729  12.546  20.399  0.00  0.00    +0.000 OA
BRANCH   5   9
ATOM      9  O   UNL     1       7.979  15.352  19.885  0.00  0.00    +0.000 OA
ATOM     10  H   UNL     1       7.843  15.896  19.089  0.00  0.00    +0.000 HD
ENDBRANCH   5   9
BRANCH   6  11
ATOM     11  C   UNL     1       9.927  14.368  21.914  0.00  0.00    +0.000 C 
BRANCH  11  12
ATOM     12  C   UNL     1       8.851  13.739  22.759  0.00  0.00    +0.000 A 
ATOM     13  C   UNL     1       7.864  14.530  23.367  0.00  0.00    +0.000 A 
ATOM     14  C   UNL     1       6.865  13.945  24.142  0.00  0.00    +0.000 A 
ATOM     15  C   UNL     1       6.839  12.564  24.316  0.00  0.00    +0.000 A 
ATOM     16  C   UNL     1       7.814  11.768  23.717  0.00  0.00    +0.000 A 
ATOM     17  C   UNL     1       8.819  12.353  22.948  0.00  0.00    +0.000 A 
ENDBRANCH  11  12
ENDBRANCH   6  11
ENDBRANCH   1   2
BRANCH   1  18
ATOM     18  C   UNL     1       8.910  10.048  18.075  0.00  0.00    +0.000 C 
BRANCH  18  19
ATOM     19  C   UNL     1       8.440   8.754  18.737  0.00  0.00    +0.000 C 
BRANCH  19  20
ATOM     20  C   UNL     1       7.866   7.784  17.712  0.00  0.00    +0.000 C 
BRANCH  20  21
ATOM     21  C   UNL     1       7.764   6.384  18.273  0.00  0.00    +0.000 C 
BRANCH  21  22
ATOM     22  C   UNL     1       7.039   5.505  17.265  0.00  0.00    +0.000 C 
BRANCH  22  23
ATOM     23  C   UNL     1       5.760   4.980  17.872  0.00  0.00    +0.000 C 
BRANCH  23  24
ATOM     24  C   UNL     1       4.668   6.025  17.767  0.00  0.00    +0.000 C 
BRANCH  24  25
ATOM     25  C   UNL     1       3.323   5.336  17.646  0.00  0.00    +0.000 C 
BRANCH  25  26
ATOM     26  C   UNL     1       2.326   5.970  18.597  0.00  0.00    +0.000 C 
BRANCH  26  27
ATOM     27  C   UNL     1       2.552   5.450  20.005  0.00  0.00    +0.000 C 
BRANCH  27  28
ATOM     28  C   UNL     1       1.317   4.713  20.495  0.00  0.00    +0.000 C 
BRANCH  28  29
ATOM     29  C   UNL     1       1.710   3.396  21.146  0.00  0.00    +0.000 C 
BRANCH  29  30
ATOM     30  C   UNL     1       2.839   2.735  20.365  0.00  0.00    +0.000 C 
BRANCH  30  32
ATOM     31  C   UNL     1       3.423   1.649  18.185  0.00  0.00    +0.000 C 
ATOM     32  C   UNL     1       2.297   2.015  19.136  0.00  0.00    +0.000 C 
ENDBRANCH  30  32
ENDBRANCH  29  30
ENDBRANCH  28  29
ENDBRANCH  27  28
ENDBRANCH  26  27
ENDBRANCH  25  26
ENDBRANCH  24  25
ENDBRANCH  23  24
ENDBRANCH  22  23
ENDBRANCH  21  22
ENDBRANCH  20  21
ENDBRANCH  19  20
ENDBRANCH  18  19
ENDBRANCH   1  18
TORSDOF 18
ENDMDL
