MODEL 1
REMARK VINA RESULT:      -8.2      0.000      0.000
REMARK  Name = 
REMARK  11 active torsions:
REMARK  status: ('A' for Active; 'I' for Inactive)
REMARK    1  A    between atoms: C_1  and  C_2
REMARK    2  A    between atoms: C_2  and  C_3
REMARK    3  A    between atoms: C_2  and  O_4
REMARK    4  A    between atoms: C_2  and  C_5
REMARK    5  A    between atoms: C_5  and  C_7
REMARK    6  A    between atoms: C_7  and  N_8
REMARK    7  A    between atoms: C_9  and  C_11
REMARK    8  A    between atoms: C_14  and  N_15
REMARK    9  A    between atoms: C_20  and  C_21
REMARK   10  A    between atoms: C_27  and  N_28
REMARK   11  A    between atoms: N_28  and  C_29
REMARK                            x       y       z     vdW  Elec       q    Type
REMARK                         _______ _______ _______ _____ _____    ______ ____
ROOT
ATOM      1  C   UNL     1       3.331   6.975  18.276  0.00  0.00    +0.000 A 
ATOM      2  C   UNL     1       3.045   8.065  17.436  0.00  0.00    +0.000 A 
ATOM      3  N   UNL     1       2.104   9.078  17.645  0.00  0.00    +0.000 NA
ATOM      4  C   UNL     1       1.397   9.082  18.804  0.00  0.00    +0.000 A 
ATOM      5  C   UNL     1       1.508   8.003  19.658  0.00  0.00    +0.000 A 
ATOM      6  C   UNL     1       2.485   6.965  19.404  0.00  0.00    +0.000 A 
ENDROOT
BRANCH   4   7
ATOM      7  N   UNL     1       0.644  10.268  19.163  0.00  0.00    +0.000 N 
ATOM      8  C   UNL     1       0.809  10.976  20.353  0.00  0.00    +0.000 A 
ATOM      9  C   UNL     1       0.149  12.173  20.158  0.00  0.00    +0.000 A 
ATOM     10  C   UNL     1      -1.013  11.754  19.495  0.00  0.00    +0.000 A 
ATOM     11  C   UNL     1      -2.389  12.075  19.501  0.00  0.00    +0.000 A 
ATOM     12  C   UNL     1      -3.165  11.512  18.494  0.00  0.00    +0.000 A 
ATOM     13  C   UNL     1      -2.517  10.791  17.498  0.00  0.00    +0.000 A 
ATOM     14  N   UNL     1      -1.208  10.388  17.492  0.00  0.00    +0.000 NA
ATOM     15  C   UNL     1      -0.528  10.808  18.583  0.00  0.00    +0.000 A 
BRANCH  12  16
ATOM     16  C   UNL     1      -4.602  11.639  18.501  0.00  0.00    +0.000 C 
ATOM     17  N   UNL     1      -5.752  11.686  18.513  0.00  0.00    +0.000 NA
ENDBRANCH  12  16
ENDBRANCH   4   7
BRANCH   1  19
ATOM     18  N   UNL     1       5.877   6.566  17.524  0.00  0.00    +0.000 N 
ATOM     19  C   UNL     1       4.608   6.065  17.982  0.00  0.00    +0.000 C 
ATOM     20  O   UNL     1       4.452   4.849  18.117  0.00  0.00    +0.000 OA
ATOM     21  H   UNL     1       6.001   7.571  17.614  0.00  0.00    +0.000 HD
BRANCH  18  22
ATOM     22  C   UNL     1       7.190   5.726  17.254  0.00  0.00    +0.000 C 
BRANCH  22  23
ATOM     23  C   UNL     1       7.216   4.654  16.034  0.00  0.00    +0.000 C 
ATOM     24  F   UNL     1       6.526   3.548  16.478  0.00  0.00    +0.000 F 
BRANCH  23  26
ATOM     25  C   UNL     1       5.827   3.785  13.932  0.00  0.00    +0.000 C 
ATOM     26  C   UNL     1       6.638   4.980  14.530  0.00  0.00    +0.000 C 
ATOM     27  C   UNL     1       7.709   5.314  13.478  0.00  0.00    +0.000 C 
BRANCH  26  28
ATOM     28  O   UNL     1       5.730   6.089  14.547  0.00  0.00    +0.000 OA
ATOM     29  H   UNL     1       6.049   6.720  15.222  0.00  0.00    +0.000 HD
ENDBRANCH  26  28
ENDBRANCH  23  26
ENDBRANCH  22  23
ENDBRANCH  18  22
ENDBRANCH   1  19
BRANCH   6  30
ATOM     30  N   UNL     1       2.720   6.093  20.494  0.00  0.00    +0.000 N 
ATOM     31  H   UNL     1       3.696   5.809  20.535  0.00  0.00    +0.000 HD
BRANCH  30  32
ATOM     32  C   UNL     1       1.805   4.931  20.446  0.00  0.00    +0.000 C 
ATOM     33  C   UNL     1       2.400   3.906  21.362  0.00  0.00    +0.000 C 
ATOM     34  C   UNL     1       1.380   2.813  21.531  0.00  0.00    +0.000 C 
ATOM     35  O   UNL     1       0.984   2.223  20.302  0.00  0.00    +0.000 OA
ATOM     36  C   UNL     1       0.768   3.038  19.156  0.00  0.00    +0.000 C 
ATOM     37  C   UNL     1       1.532   4.352  19.063  0.00  0.00    +0.000 C 
ENDBRANCH  30  32
ENDBRANCH   6  30
TORSDOF 9
ENDMDL
MODEL 2
REMARK VINA RESULT:      -8.0      2.545      3.072
REMARK  Name = 
REMARK  11 active torsions:
REMARK  status: ('A' for Active; 'I' for Inactive)
REMARK    1  A    between atoms: C_1  and  C_2
REMARK    2  A    between atoms: C_2  and  C_3
REMARK    3  A    between atoms: C_2  and  O_4
REMARK    4  A    between atoms: C_2  and  C_5
REMARK    5  A    between atoms: C_5  and  C_7
REMARK    6  A    between atoms: C_7  and  N_8
REMARK    7  A    between atoms: C_9  and  C_11
REMARK    8  A    between atoms: C_14  and  N_15
REMARK    9  A    between atoms: C_20  and  C_21
REMARK   10  A    between atoms: C_27  and  N_28
REMARK   11  A    between atoms: N_28  and  C_29
REMARK                            x       y       z     vdW  Elec       q    Type
REMARK                         _______ _______ _______ _____ _____    ______ ____
ROOT
ATOM      1  C   UNL     1       2.899   7.347  18.300  0.00  0.00    +0.000 A 
ATOM      2  C   UNL     1       2.300   8.610  18.161  0.00  0.00    +0.000 A 
ATOM      3  N   UNL     1       1.454   9.258  19.067  0.00  0.00    +0.000 NA
ATOM      4  C   UNL     1       1.194   8.659  20.257  0.00  0.00    +0.000 A 
ATOM      5  C   UNL     1       1.633   7.367  20.466  0.00  0.00    +0.000 A 
ATOM      6  C   UNL     1       2.498   6.722  19.499  0.00  0.00    +0.000 A 
ENDROOT
BRANCH   4   7
ATOM      7  N   UNL     1       0.569   9.435  21.311  0.00  0.00    +0.000 N 
ATOM      8  C   UNL     1      -0.415   8.946  22.171  0.00  0.00    +0.000 A 
ATOM      9  C   UNL     1      -0.500   9.875  23.189  0.00  0.00    +0.000 A 
ATOM     10  C   UNL     1      -0.420  11.083  22.481  0.00  0.00    +0.000 A 
ATOM     11  C   UNL     1      -1.018  12.362  22.532  0.00  0.00    +0.000 A 
ATOM     12  C   UNL     1      -0.463  13.343  21.718  0.00  0.00    +0.000 A 
ATOM     13  C   UNL     1       0.700  13.031  21.023  0.00  0.00    +0.000 A 
ATOM     14  N   UNL     1       1.268  11.793  20.879  0.00  0.00    +0.000 NA
ATOM     15  C   UNL     1       0.591  10.830  21.546  0.00  0.00    +0.000 A 
BRANCH  12  16
ATOM     16  C   UNL     1      -1.092  14.632  21.568  0.00  0.00    +0.000 C 
ATOM     17  N   UNL     1      -1.641  15.635  21.433  0.00  0.00    +0.000 NA
ENDBRANCH  12  16
ENDBRANCH   4   7
BRANCH   1  19
ATOM     18  N   UNL     1       4.135   5.564  16.716  0.00  0.00    +0.000 N 
ATOM     19  C   UNL     1       4.027   6.889  17.269  0.00  0.00    +0.000 C 
ATOM     20  O   UNL     1       4.879   7.733  16.984  0.00  0.00    +0.000 OA
ATOM     21  H   UNL     1       3.311   4.979  16.836  0.00  0.00    +0.000 HD
BRANCH  18  22
ATOM     22  C   UNL     1       5.200   5.057  15.663  0.00  0.00    +0.000 C 
BRANCH  22  23
ATOM     23  C   UNL     1       6.718   4.745  16.148  0.00  0.00    +0.000 C 
ATOM     24  F   UNL     1       7.535   5.587  15.427  0.00  0.00    +0.000 F 
BRANCH  23  26
ATOM     25  C   UNL     1       6.124   4.355  18.717  0.00  0.00    +0.000 C 
ATOM     26  C   UNL     1       7.210   4.860  17.713  0.00  0.00    +0.000 C 
ATOM     27  C   UNL     1       7.570   6.280  18.181  0.00  0.00    +0.000 C 
BRANCH  26  28
ATOM     28  O   UNL     1       8.366   4.050  17.960  0.00  0.00    +0.000 OA
ATOM     29  H   UNL     1       8.614   3.625  17.114  0.00  0.00    +0.000 HD
ENDBRANCH  26  28
ENDBRANCH  23  26
ENDBRANCH  22  23
ENDBRANCH  18  22
ENDBRANCH   1  19
BRANCH   6  30
ATOM     30  N   UNL     1       3.128   5.542  19.963  0.00  0.00    +0.000 N 
ATOM     31  H   UNL     1       3.960   5.331  19.417  0.00  0.00    +0.000 HD
BRANCH  30  32
ATOM     32  C   UNL     1       2.175   4.411  19.986  0.00  0.00    +0.000 C 
ATOM     33  C   UNL     1       2.801   3.370  20.863  0.00  0.00    +0.000 C 
ATOM     34  C   UNL     1       1.762   2.311  21.109  0.00  0.00    +0.000 C 
ATOM     35  O   UNL     1       1.261   1.729  19.915  0.00  0.00    +0.000 OA
ATOM     36  C   UNL     1       0.990   2.547  18.783  0.00  0.00    +0.000 C 
ATOM     37  C   UNL     1       1.787   3.836  18.629  0.00  0.00    +0.000 C 
ENDBRANCH  30  32
ENDBRANCH   6  30
TORSDOF 9
ENDMDL
MODEL 3
REMARK VINA RESULT:      -8.0      0.975      1.139
REMARK  Name = 
REMARK  11 active torsions:
REMARK  status: ('A' for Active; 'I' for Inactive)
REMARK    1  A    between atoms: C_1  and  C_2
REMARK    2  A    between atoms: C_2  and  C_3
REMARK    3  A    between atoms: C_2  and  O_4
REMARK    4  A    between atoms: C_2  and  C_5
REMARK    5  A    between atoms: C_5  and  C_7
REMARK    6  A    between atoms: C_7  and  N_8
REMARK    7  A    between atoms: C_9  and  C_11
REMARK    8  A    between atoms: C_14  and  N_15
REMARK    9  A    between atoms: C_20  and  C_21
REMARK   10  A    between atoms: C_27  and  N_28
REMARK   11  A    between atoms: N_28  and  C_29
REMARK                            x       y       z     vdW  Elec       q    Type
REMARK                         _______ _______ _______ _____ _____    ______ ____
ROOT
ATOM      1  C   UNL     1       3.305   7.400  18.365  0.00  0.00    +0.000 A 
ATOM      2  C   UNL     1       3.007   8.466  17.499  0.00  0.00    +0.000 A 
ATOM      3  N   UNL     1       1.945   9.370  17.595  0.00  0.00    +0.000 NA
ATOM      4  C   UNL     1       1.107   9.282  18.660  0.00  0.00    +0.000 A 
ATOM      5  C   UNL     1       1.229   8.208  19.518  0.00  0.00    +0.000 A 
ATOM      6  C   UNL     1       2.335   7.283  19.382  0.00  0.00    +0.000 A 
ENDROOT
BRANCH   4   7
ATOM      7  N   UNL     1       0.193  10.376  18.926  0.00  0.00    +0.000 N 
ATOM      8  C   UNL     1       0.231  11.171  20.072  0.00  0.00    +0.000 A 
ATOM      9  C   UNL     1      -0.577  12.254  19.787  0.00  0.00    +0.000 A 
ATOM     10  C   UNL     1      -1.655  11.643  19.131  0.00  0.00    +0.000 A 
ATOM     11  C   UNL     1      -3.061  11.776  19.091  0.00  0.00    +0.000 A 
ATOM     12  C   UNL     1      -3.729  11.053  18.109  0.00  0.00    +0.000 A 
ATOM     13  C   UNL     1      -2.963  10.365  17.174  0.00  0.00    +0.000 A 
ATOM     14  N   UNL     1      -1.613  10.142  17.217  0.00  0.00    +0.000 NA
ATOM     15  C   UNL     1      -1.025  10.716  18.292  0.00  0.00    +0.000 A 
BRANCH  12  16
ATOM     16  C   UNL     1      -5.168  10.986  18.081  0.00  0.00    +0.000 C 
ATOM     17  N   UNL     1      -6.319  10.987  18.063  0.00  0.00    +0.000 NA
ENDBRANCH  12  16
ENDBRANCH   4   7
BRANCH   1  19
ATOM     18  N   UNL     1       5.748   7.012  17.316  0.00  0.00    +0.000 N 
ATOM     19  C   UNL     1       4.698   6.635  18.226  0.00  0.00    +0.000 C 
ATOM     20  O   UNL     1       4.836   5.627  18.923  0.00  0.00    +0.000 OA
ATOM     21  H   UNL     1       5.656   7.942  16.915  0.00  0.00    +0.000 HD
BRANCH  18  22
ATOM     22  C   UNL     1       7.162   6.324  17.158  0.00  0.00    +0.000 C 
BRANCH  22  23
ATOM     23  C   UNL     1       7.306   4.993  16.238  0.00  0.00    +0.000 C 
ATOM     24  F   UNL     1       7.811   4.009  17.057  0.00  0.00    +0.000 F 
BRANCH  23  26
ATOM     25  C   UNL     1       5.229   5.363  14.608  0.00  0.00    +0.000 C 
ATOM     26  C   UNL     1       6.047   4.313  15.429  0.00  0.00    +0.000 C 
ATOM     27  C   UNL     1       5.016   3.592  16.313  0.00  0.00    +0.000 C 
BRANCH  26  28
ATOM     28  O   UNL     1       6.501   3.348  14.471  0.00  0.00    +0.000 OA
ATOM     29  H   UNL     1       7.219   3.762  13.952  0.00  0.00    +0.000 HD
ENDBRANCH  26  28
ENDBRANCH  23  26
ENDBRANCH  22  23
ENDBRANCH  18  22
ENDBRANCH   1  19
BRANCH   6  30
ATOM     30  N   UNL     1       2.529   6.424  20.490  0.00  0.00    +0.000 N 
ATOM     31  H   UNL     1       3.517   6.238  20.643  0.00  0.00    +0.000 HD
BRANCH  30  32
ATOM     32  C   UNL     1       1.745   5.179  20.336  0.00  0.00    +0.000 C 
ATOM     33  C   UNL     1       2.318   4.212  21.326  0.00  0.00    +0.000 C 
ATOM     34  C   UNL     1       1.397   3.024  21.373  0.00  0.00    +0.000 C 
ATOM     35  O   UNL     1       1.218   2.404  20.108  0.00  0.00    +0.000 OA
ATOM     36  C   UNL     1       1.069   3.201  18.938  0.00  0.00    +0.000 C 
ATOM     37  C   UNL     1       1.706   4.584  18.934  0.00  0.00    +0.000 C 
ENDBRANCH  30  32
ENDBRANCH   6  30
TORSDOF 9
ENDMDL
MODEL 4
REMARK VINA RESULT:      -7.9      1.160      1.555
REMARK  Name = 
REMARK  11 active torsions:
REMARK  status: ('A' for Active; 'I' for Inactive)
REMARK    1  A    between atoms: C_1  and  C_2
REMARK    2  A    between atoms: C_2  and  C_3
REMARK    3  A    between atoms: C_2  and  O_4
REMARK    4  A    between atoms: C_2  and  C_5
REMARK    5  A    between atoms: C_5  and  C_7
REMARK    6  A    between atoms: C_7  and  N_8
REMARK    7  A    between atoms: C_9  and  C_11
REMARK    8  A    between atoms: C_14  and  N_15
REMARK    9  A    between atoms: C_20  and  C_21
REMARK   10  A    between atoms: C_27  and  N_28
REMARK   11  A    between atoms: N_28  and  C_29
REMARK                            x       y       z     vdW  Elec       q    Type
REMARK                         _______ _______ _______ _____ _____    ______ ____
ROOT
ATOM      1  C   UNL     1       2.616   7.009  18.732  0.00  0.00    +0.000 A 
ATOM      2  C   UNL     1       2.391   8.094  17.868  0.00  0.00    +0.000 A 
ATOM      3  N   UNL     1       1.635   9.244  18.122  0.00  0.00    +0.000 NA
ATOM      4  C   UNL     1       1.078   9.399  19.351  0.00  0.00    +0.000 A 
ATOM      5  C   UNL     1       1.134   8.351  20.248  0.00  0.00    +0.000 A 
ATOM      6  C   UNL     1       1.916   7.170  19.946  0.00  0.00    +0.000 A 
ENDROOT
BRANCH   4   7
ATOM      7  N   UNL     1       0.550  10.697  19.722  0.00  0.00    +0.000 N 
ATOM      8  C   UNL     1       1.023  11.465  20.786  0.00  0.00    +0.000 A 
ATOM      9  C   UNL     1       0.479  12.720  20.598  0.00  0.00    +0.000 A 
ATOM     10  C   UNL     1      -0.830  12.408  20.205  0.00  0.00    +0.000 A 
ATOM     11  C   UNL     1      -2.132  12.906  20.433  0.00  0.00    +0.000 A 
ATOM     12  C   UNL     1      -3.150  12.375  19.647  0.00  0.00    +0.000 A 
ATOM     13  C   UNL     1      -2.795  11.502  18.625  0.00  0.00    +0.000 A 
ATOM     14  N   UNL     1      -1.567  10.932  18.418  0.00  0.00    +0.000 NA
ATOM     15  C   UNL     1      -0.644  11.340  19.318  0.00  0.00    +0.000 A 
BRANCH  12  16
ATOM     16  C   UNL     1      -4.533  12.689  19.905  0.00  0.00    +0.000 C 
ATOM     17  N   UNL     1      -5.651  12.892  20.087  0.00  0.00    +0.000 NA
ENDBRANCH  12  16
ENDBRANCH   4   7
BRANCH   1  19
ATOM     18  N   UNL     1       5.073   5.926  18.801  0.00  0.00    +0.000 N 
ATOM     19  C   UNL     1       3.706   5.908  18.350  0.00  0.00    +0.000 C 
ATOM     20  O   UNL     1       3.337   5.023  17.576  0.00  0.00    +0.000 OA
ATOM     21  H   UNL     1       5.263   6.559  19.574  0.00  0.00    +0.000 HD
BRANCH  18  22
ATOM     22  C   UNL     1       6.189   4.849  18.494  0.00  0.00    +0.000 C 
BRANCH  22  23
ATOM     23  C   UNL     1       7.191   5.072  17.235  0.00  0.00    +0.000 C 
ATOM     24  F   UNL     1       8.184   4.127  17.359  0.00  0.00    +0.000 F 
BRANCH  23  26
ATOM     25  C   UNL     1       5.616   6.095  15.344  0.00  0.00    +0.000 C 
ATOM     26  C   UNL     1       6.699   5.016  15.668  0.00  0.00    +0.000 C 
ATOM     27  C   UNL     1       6.088   3.676  15.223  0.00  0.00    +0.000 C 
BRANCH  26  28
ATOM     28  O   UNL     1       7.784   5.281  14.768  0.00  0.00    +0.000 OA
ATOM     29  H   UNL     1       8.334   4.472  14.724  0.00  0.00    +0.000 HD
ENDBRANCH  26  28
ENDBRANCH  23  26
ENDBRANCH  22  23
ENDBRANCH  18  22
ENDBRANCH   1  19
BRANCH   6  30
ATOM     30  N   UNL     1       2.152   6.317  21.051  0.00  0.00    +0.000 N 
ATOM     31  H   UNL     1       3.003   6.579  21.542  0.00  0.00    +0.000 HD
BRANCH  30  32
ATOM     32  C   UNL     1       2.165   4.899  20.630  0.00  0.00    +0.000 C 
ATOM     33  C   UNL     1       0.758   4.580  20.228  0.00  0.00    +0.000 C 
ATOM     34  C   UNL     1       0.779   3.229  19.566  0.00  0.00    +0.000 C 
ATOM     35  O   UNL     1       1.311   2.207  20.397  0.00  0.00    +0.000 OA
ATOM     36  C   UNL     1       2.451   2.468  21.206  0.00  0.00    +0.000 C 
ATOM     37  C   UNL     1       2.692   3.903  21.656  0.00  0.00    +0.000 C 
ENDBRANCH  30  32
ENDBRANCH   6  30
TORSDOF 9
ENDMDL
MODEL 5
REMARK VINA RESULT:      -7.8      2.484      2.970
REMARK  Name = 
REMARK  11 active torsions:
REMARK  status: ('A' for Active; 'I' for Inactive)
REMARK    1  A    between atoms: C_1  and  C_2
REMARK    2  A    between atoms: C_2  and  C_3
REMARK    3  A    between atoms: C_2  and  O_4
REMARK    4  A    between atoms: C_2  and  C_5
REMARK    5  A    between atoms: C_5  and  C_7
REMARK    6  A    between atoms: C_7  and  N_8
REMARK    7  A    between atoms: C_9  and  C_11
REMARK    8  A    between atoms: C_14  and  N_15
REMARK    9  A    between atoms: C_20  and  C_21
REMARK   10  A    between atoms: C_27  and  N_28
REMARK   11  A    between atoms: N_28  and  C_29
REMARK                            x       y       z     vdW  Elec       q    Type
REMARK                         _______ _______ _______ _____ _____    ______ ____
ROOT
ATOM      1  C   UNL     1       2.527   7.335  18.384  0.00  0.00    +0.000 A 
ATOM      2  C   UNL     1       1.993   8.538  17.894  0.00  0.00    +0.000 A 
ATOM      3  N   UNL     1       1.237   9.483  18.595  0.00  0.00    +0.000 NA
ATOM      4  C   UNL     1       1.011   9.286  19.919  0.00  0.00    +0.000 A 
ATOM      5  C   UNL     1       1.388   8.087  20.489  0.00  0.00    +0.000 A 
ATOM      6  C   UNL     1       2.160   7.125  19.730  0.00  0.00    +0.000 A 
ENDROOT
BRANCH   4   7
ATOM      7  N   UNL     1       0.491  10.382  20.713  0.00  0.00    +0.000 N 
ATOM      8  C   UNL     1      -0.551  10.263  21.632  0.00  0.00    +0.000 A 
ATOM      9  C   UNL     1      -0.516  11.427  22.373  0.00  0.00    +0.000 A 
ATOM     10  C   UNL     1      -0.275  12.390  21.381  0.00  0.00    +0.000 A 
ATOM     11  C   UNL     1      -0.699  13.702  21.079  0.00  0.00    +0.000 A 
ATOM     12  C   UNL     1      -0.017  14.359  20.060  0.00  0.00    +0.000 A 
ATOM     13  C   UNL     1       1.096  13.733  19.513  0.00  0.00    +0.000 A 
ATOM     14  N   UNL     1       1.496  12.439  19.714  0.00  0.00    +0.000 NA
ATOM     15  C   UNL     1       0.696  11.775  20.581  0.00  0.00    +0.000 A 
BRANCH  12  16
ATOM     16  C   UNL     1      -0.471  15.634  19.560  0.00  0.00    +0.000 C 
ATOM     17  N   UNL     1      -0.870  16.652  19.201  0.00  0.00    +0.000 NA
ENDBRANCH  12  16
ENDBRANCH   4   7
BRANCH   1  19
ATOM     18  N   UNL     1       4.734   7.080  16.874  0.00  0.00    +0.000 N 
ATOM     19  C   UNL     1       3.567   6.512  17.497  0.00  0.00    +0.000 C 
ATOM     20  O   UNL     1       3.300   5.323  17.309  0.00  0.00    +0.000 OA
ATOM     21  H   UNL     1       4.999   8.001  17.216  0.00  0.00    +0.000 HD
BRANCH  18  22
ATOM     22  C   UNL     1       5.823   6.316  16.019  0.00  0.00    +0.000 C 
BRANCH  22  23
ATOM     23  C   UNL     1       7.267   5.979  16.681  0.00  0.00    +0.000 C 
ATOM     24  F   UNL     1       7.838   7.190  17.000  0.00  0.00    +0.000 F 
BRANCH  23  26
ATOM     25  C   UNL     1       6.140   4.264  18.382  0.00  0.00    +0.000 C 
ATOM     26  C   UNL     1       7.454   5.023  18.005  0.00  0.00    +0.000 C 
ATOM     27  C   UNL     1       7.882   5.758  19.286  0.00  0.00    +0.000 C 
BRANCH  26  28
ATOM     28  O   UNL     1       8.434   4.002  17.780  0.00  0.00    +0.000 OA
ATOM     29  H   UNL     1       8.567   3.929  16.814  0.00  0.00    +0.000 HD
ENDBRANCH  26  28
ENDBRANCH  23  26
ENDBRANCH  22  23
ENDBRANCH  18  22
ENDBRANCH   1  19
BRANCH   6  30
ATOM     30  N   UNL     1       2.748   6.095  20.502  0.00  0.00    +0.000 N 
ATOM     31  H   UNL     1       3.663   5.840  20.140  0.00  0.00    +0.000 HD
BRANCH  30  32
ATOM     32  C   UNL     1       1.843   4.928  20.601  0.00  0.00    +0.000 C 
ATOM     33  C   UNL     1       2.554   3.934  21.468  0.00  0.00    +0.000 C 
ATOM     34  C   UNL     1       1.572   2.842  21.792  0.00  0.00    +0.000 C 
ATOM     35  O   UNL     1       1.034   2.212  20.638  0.00  0.00    +0.000 OA
ATOM     36  C   UNL     1       0.674   2.991  19.503  0.00  0.00    +0.000 C 
ATOM     37  C   UNL     1       1.410   4.306  19.279  0.00  0.00    +0.000 C 
ENDBRANCH  30  32
ENDBRANCH   6  30
TORSDOF 9
ENDMDL
MODEL 6
REMARK VINA RESULT:      -7.8      1.507      2.129
REMARK  Name = 
REMARK  11 active torsions:
REMARK  status: ('A' for Active; 'I' for Inactive)
REMARK    1  A    between atoms: C_1  and  C_2
REMARK    2  A    between atoms: C_2  and  C_3
REMARK    3  A    between atoms: C_2  and  O_4
REMARK    4  A    between atoms: C_2  and  C_5
REMARK    5  A    between atoms: C_5  and  C_7
REMARK    6  A    between atoms: C_7  and  N_8
REMARK    7  A    between atoms: C_9  and  C_11
REMARK    8  A    between atoms: C_14  and  N_15
REMARK    9  A    between atoms: C_20  and  C_21
REMARK   10  A    between atoms: C_27  and  N_28
REMARK   11  A    between atoms: N_28  and  C_29
REMARK                            x       y       z     vdW  Elec       q    Type
REMARK                         _______ _______ _______ _____ _____    ______ ____
ROOT
ATOM      1  C   UNL     1       2.803   7.407  18.061  0.00  0.00    +0.000 A 
ATOM      2  C   UNL     1       2.248   8.584  17.532  0.00  0.00    +0.000 A 
ATOM      3  N   UNL     1       1.395   9.488  18.172  0.00  0.00    +0.000 NA
ATOM      4  C   UNL     1       1.079   9.275  19.476  0.00  0.00    +0.000 A 
ATOM      5  C   UNL     1       1.471   8.094  20.073  0.00  0.00    +0.000 A 
ATOM      6  C   UNL     1       2.345   7.174  19.375  0.00  0.00    +0.000 A 
ENDROOT
BRANCH   4   7
ATOM      7  N   UNL     1       0.447  10.341  20.228  0.00  0.00    +0.000 N 
ATOM      8  C   UNL     1       0.570  10.512  21.607  0.00  0.00    +0.000 A 
ATOM      9  C   UNL     1       0.090  11.782  21.859  0.00  0.00    +0.000 A 
ATOM     10  C   UNL     1      -1.037  11.833  21.027  0.00  0.00    +0.000 A 
ATOM     11  C   UNL     1      -2.354  12.340  21.087  0.00  0.00    +0.000 A 
ATOM     12  C   UNL     1      -3.083  12.328  19.902  0.00  0.00    +0.000 A 
ATOM     13  C   UNL     1      -2.426  11.943  18.739  0.00  0.00    +0.000 A 
ATOM     14  N   UNL     1      -1.185  11.372  18.642  0.00  0.00    +0.000 NA
ATOM     15  C   UNL     1      -0.580  11.237  19.845  0.00  0.00    +0.000 A 
BRANCH  12  16
ATOM     16  C   UNL     1      -4.484  12.667  19.884  0.00  0.00    +0.000 C 
ATOM     17  N   UNL     1      -5.604  12.925  19.816  0.00  0.00    +0.000 NA
ENDBRANCH  12  16
ENDBRANCH   4   7
BRANCH   1  19
ATOM     18  N   UNL     1       4.135   5.213  17.268  0.00  0.00    +0.000 N 
ATOM     19  C   UNL     1       3.947   6.640  17.257  0.00  0.00    +0.000 C 
ATOM     20  O   UNL     1       4.740   7.349  16.632  0.00  0.00    +0.000 OA
ATOM     21  H   UNL     1       3.352   4.679  17.638  0.00  0.00    +0.000 HD
BRANCH  18  22
ATOM     22  C   UNL     1       5.220   4.390  16.465  0.00  0.00    +0.000 C 
BRANCH  22  23
ATOM     23  C   UNL     1       6.783   4.498  16.892  0.00  0.00    +0.000 C 
ATOM     24  F   UNL     1       7.425   5.131  15.851  0.00  0.00    +0.000 F 
BRANCH  23  26
ATOM     25  C   UNL     1       6.228   5.189  19.405  0.00  0.00    +0.000 C 
ATOM     26  C   UNL     1       7.297   5.241  18.265  0.00  0.00    +0.000 C 
ATOM     27  C   UNL     1       7.655   6.728  18.108  0.00  0.00    +0.000 C 
BRANCH  26  28
ATOM     28  O   UNL     1       8.461   4.601  18.803  0.00  0.00    +0.000 OA
ATOM     29  H   UNL     1       9.244   5.017  18.389  0.00  0.00    +0.000 HD
ENDBRANCH  26  28
ENDBRANCH  23  26
ENDBRANCH  22  23
ENDBRANCH  18  22
ENDBRANCH   1  19
BRANCH   6  30
ATOM     30  N   UNL     1       2.923   6.172  20.191  0.00  0.00    +0.000 N 
ATOM     31  H   UNL     1       3.828   5.881  19.829  0.00  0.00    +0.000 HD
BRANCH  30  32
ATOM     32  C   UNL     1       1.998   5.031  20.359  0.00  0.00    +0.000 C 
ATOM     33  C   UNL     1       2.688   4.080  21.288  0.00  0.00    +0.000 C 
ATOM     34  C   UNL     1       1.686   3.028  21.676  0.00  0.00    +0.000 C 
ATOM     35  O   UNL     1       1.138   2.338  20.562  0.00  0.00    +0.000 OA
ATOM     36  C   UNL     1       0.795   3.051  19.381  0.00  0.00    +0.000 C 
ATOM     37  C   UNL     1       1.555   4.335  19.077  0.00  0.00    +0.000 C 
ENDBRANCH  30  32
ENDBRANCH   6  30
TORSDOF 9
ENDMDL
MODEL 7
REMARK VINA RESULT:      -7.8      1.165      1.221
REMARK  Name = 
REMARK  11 active torsions:
REMARK  status: ('A' for Active; 'I' for Inactive)
REMARK    1  A    between atoms: C_1  and  C_2
REMARK    2  A    between atoms: C_2  and  C_3
REMARK    3  A    between atoms: C_2  and  O_4
REMARK    4  A    between atoms: C_2  and  C_5
REMARK    5  A    between atoms: C_5  and  C_7
REMARK    6  A    between atoms: C_7  and  N_8
REMARK    7  A    between atoms: C_9  and  C_11
REMARK    8  A    between atoms: C_14  and  N_15
REMARK    9  A    between atoms: C_20  and  C_21
REMARK   10  A    between atoms: C_27  and  N_28
REMARK   11  A    between atoms: N_28  and  C_29
REMARK                            x       y       z     vdW  Elec       q    Type
REMARK                         _______ _______ _______ _____ _____    ______ ____
ROOT
ATOM      1  C   UNL     1       2.834   7.420  18.409  0.00  0.00    +0.000 A 
ATOM      2  C   UNL     1       2.391   8.600  17.789  0.00  0.00    +0.000 A 
ATOM      3  N   UNL     1       1.480   9.536  18.289  0.00  0.00    +0.000 NA
ATOM      4  C   UNL     1       0.978   9.354  19.538  0.00  0.00    +0.000 A 
ATOM      5  C   UNL     1       1.251   8.176  20.202  0.00  0.00    +0.000 A 
ATOM      6  C   UNL     1       2.191   7.223  19.648  0.00  0.00    +0.000 A 
ENDROOT
BRANCH   4   7
ATOM      7  N   UNL     1       0.275  10.449  20.177  0.00  0.00    +0.000 N 
ATOM      8  C   UNL     1       0.349  10.745  21.538  0.00  0.00    +0.000 A 
ATOM      9  C   UNL     1      -0.196  12.006  21.666  0.00  0.00    +0.000 A 
ATOM     10  C   UNL     1      -1.300  11.929  20.805  0.00  0.00    +0.000 A 
ATOM     11  C   UNL     1      -2.641  12.374  20.787  0.00  0.00    +0.000 A 
ATOM     12  C   UNL     1      -3.333  12.223  19.590  0.00  0.00    +0.000 A 
ATOM     13  C   UNL     1      -2.626  11.772  18.482  0.00  0.00    +0.000 A 
ATOM     14  N   UNL     1      -1.357  11.256  18.467  0.00  0.00    +0.000 NA
ATOM     15  C   UNL     1      -0.781  11.256  19.691  0.00  0.00    +0.000 A 
BRANCH  12  16
ATOM     16  C   UNL     1      -4.747  12.490  19.508  0.00  0.00    +0.000 C 
ATOM     17  N   UNL     1      -5.869  12.747  19.476  0.00  0.00    +0.000 NA
ENDBRANCH  12  16
ENDBRANCH   4   7
BRANCH   1  19
ATOM     18  N   UNL     1       4.519   5.333  18.261  0.00  0.00    +0.000 N 
ATOM     19  C   UNL     1       4.060   6.611  17.785  0.00  0.00    +0.000 C 
ATOM     20  O   UNL     1       4.666   7.167  16.867  0.00  0.00    +0.000 OA
ATOM     21  H   UNL     1       3.874   4.848  18.881  0.00  0.00    +0.000 HD
BRANCH  18  22
ATOM     22  C   UNL     1       5.697   4.463  17.665  0.00  0.00    +0.000 C 
BRANCH  22  23
ATOM     23  C   UNL     1       5.569   3.868  16.159  0.00  0.00    +0.000 C 
ATOM     24  F   UNL     1       4.225   3.674  15.934  0.00  0.00    +0.000 F 
BRANCH  23  26
ATOM     25  C   UNL     1       5.915   3.823  13.517  0.00  0.00    +0.000 C 
ATOM     26  C   UNL     1       6.150   4.639  14.830  0.00  0.00    +0.000 C 
ATOM     27  C   UNL     1       7.657   4.943  14.857  0.00  0.00    +0.000 C 
BRANCH  26  28
ATOM     28  O   UNL     1       5.490   5.895  14.622  0.00  0.00    +0.000 OA
ATOM     29  H   UNL     1       6.056   6.592  15.010  0.00  0.00    +0.000 HD
ENDBRANCH  26  28
ENDBRANCH  23  26
ENDBRANCH  22  23
ENDBRANCH  18  22
ENDBRANCH   1  19
BRANCH   6  30
ATOM     30  N   UNL     1       2.622   6.222  20.552  0.00  0.00    +0.000 N 
ATOM     31  H   UNL     1       3.600   5.988  20.402  0.00  0.00    +0.000 HD
BRANCH  30  32
ATOM     32  C   UNL     1       1.747   5.032  20.477  0.00  0.00    +0.000 C 
ATOM     33  C   UNL     1       2.341   4.030  21.419  0.00  0.00    +0.000 C 
ATOM     34  C   UNL     1       1.351   2.905  21.556  0.00  0.00    +0.000 C 
ATOM     35  O   UNL     1       1.019   2.297  20.317  0.00  0.00    +0.000 OA
ATOM     36  C   UNL     1       0.818   3.101  19.160  0.00  0.00    +0.000 C 
ATOM     37  C   UNL     1       1.543   4.439  19.088  0.00  0.00    +0.000 C 
ENDBRANCH  30  32
ENDBRANCH   6  30
TORSDOF 9
ENDMDL
MODEL 8
REMARK VINA RESULT:      -7.8      1.579      2.557
REMARK  Name = 
REMARK  11 active torsions:
REMARK  status: ('A' for Active; 'I' for Inactive)
REMARK    1  A    between atoms: C_1  and  C_2
REMARK    2  A    between atoms: C_2  and  C_3
REMARK    3  A    between atoms: C_2  and  O_4
REMARK    4  A    between atoms: C_2  and  C_5
REMARK    5  A    between atoms: C_5  and  C_7
REMARK    6  A    between atoms: C_7  and  N_8
REMARK    7  A    between atoms: C_9  and  C_11
REMARK    8  A    between atoms: C_14  and  N_15
REMARK    9  A    between atoms: C_20  and  C_21
REMARK   10  A    between atoms: C_27  and  N_28
REMARK   11  A    between atoms: N_28  and  C_29
REMARK                            x       y       z     vdW  Elec       q    Type
REMARK                         _______ _______ _______ _____ _____    ______ ____
ROOT
ATOM      1  C   UNL     1       3.350   7.190  18.284  0.00  0.00    +0.000 A 
ATOM      2  C   UNL     1       3.045   8.257  17.422  0.00  0.00    +0.000 A 
ATOM      3  N   UNL     1       2.020   9.198  17.560  0.00  0.00    +0.000 NA
ATOM      4  C   UNL     1       1.234   9.149  18.667  0.00  0.00    +0.000 A 
ATOM      5  C   UNL     1       1.363   8.080  19.531  0.00  0.00    +0.000 A 
ATOM      6  C   UNL     1       2.429   7.117  19.350  0.00  0.00    +0.000 A 
ENDROOT
BRANCH   4   7
ATOM      7  N   UNL     1       0.373  10.276  18.966  0.00  0.00    +0.000 N 
ATOM      8  C   UNL     1      -0.986  10.333  18.657  0.00  0.00    +0.000 A 
ATOM      9  C   UNL     1      -1.477  11.405  19.375  0.00  0.00    +0.000 A 
ATOM     10  C   UNL     1      -0.459  12.354  19.204  0.00  0.00    +0.000 A 
ATOM     11  C   UNL     1      -0.358  13.747  18.990  0.00  0.00    +0.000 A 
ATOM     12  C   UNL     1       0.914  14.302  19.080  0.00  0.00    +0.000 A 
ATOM     13  C   UNL     1       1.955  13.479  19.494  0.00  0.00    +0.000 A 
ATOM     14  N   UNL     1       1.924  12.117  19.634  0.00  0.00    +0.000 NA
ATOM     15  C   UNL     1       0.706  11.593  19.362  0.00  0.00    +0.000 A 
BRANCH  12  16
ATOM     16  C   UNL     1       1.155  15.677  18.721  0.00  0.00    +0.000 C 
ATOM     17  N   UNL     1       1.347  16.788  18.488  0.00  0.00    +0.000 NA
ENDBRANCH  12  16
ENDBRANCH   4   7
BRANCH   1  19
ATOM     18  N   UNL     1       5.880   6.896  17.432  0.00  0.00    +0.000 N 
ATOM     19  C   UNL     1       4.707   6.376  18.084  0.00  0.00    +0.000 C 
ATOM     20  O   UNL     1       4.705   5.209  18.481  0.00  0.00    +0.000 OA
ATOM     21  H   UNL     1       5.888   7.905  17.301  0.00  0.00    +0.000 HD
BRANCH  18  22
ATOM     22  C   UNL     1       7.266   6.160  17.238  0.00  0.00    +0.000 C 
BRANCH  22  23
ATOM     23  C   UNL     1       7.387   4.956  16.154  0.00  0.00    +0.000 C 
ATOM     24  F   UNL     1       6.925   3.822  16.784  0.00  0.00    +0.000 F 
BRANCH  23  26
ATOM     25  C   UNL     1       5.929   3.648  14.347  0.00  0.00    +0.000 C 
ATOM     26  C   UNL     1       6.659   4.989  14.681  0.00  0.00    +0.000 C 
ATOM     27  C   UNL     1       7.602   5.248  13.493  0.00  0.00    +0.000 C 
BRANCH  26  28
ATOM     28  O   UNL     1       5.646   6.002  14.619  0.00  0.00    +0.000 OA
ATOM     29  H   UNL     1       5.766   6.586  15.395  0.00  0.00    +0.000 HD
ENDBRANCH  26  28
ENDBRANCH  23  26
ENDBRANCH  22  23
ENDBRANCH  18  22
ENDBRANCH   1  19
BRANCH   6  30
ATOM     30  N   UNL     1       2.650   6.263  20.457  0.00  0.00    +0.000 N 
ATOM     31  H   UNL     1       3.635   6.026  20.548  0.00  0.00    +0.000 HD
BRANCH  30  32
ATOM     32  C   UNL     1       1.793   5.059  20.374  0.00  0.00    +0.000 C 
ATOM     33  C   UNL     1       2.390   4.069  21.325  0.00  0.00    +0.000 C 
ATOM     34  C   UNL     1       1.416   2.930  21.452  0.00  0.00    +0.000 C 
ATOM     35  O   UNL     1       1.108   2.314  20.210  0.00  0.00    +0.000 OA
ATOM     36  C   UNL     1       0.911   3.112  19.049  0.00  0.00    +0.000 C 
ATOM     37  C   UNL     1       1.616   4.461  18.983  0.00  0.00    +0.000 C 
ENDBRANCH  30  32
ENDBRANCH   6  30
TORSDOF 9
ENDMDL
MODEL 9
REMARK VINA RESULT:      -7.6      2.651      5.263
REMARK  Name = 
REMARK  11 active torsions:
REMARK  status: ('A' for Active; 'I' for Inactive)
REMARK    1  A    between atoms: C_1  and  C_2
REMARK    2  A    between atoms: C_2  and  C_3
REMARK    3  A    between atoms: C_2  and  O_4
REMARK    4  A    between atoms: C_2  and  C_5
REMARK    5  A    between atoms: C_5  and  C_7
REMARK    6  A    between atoms: C_7  and  N_8
REMARK    7  A    between atoms: C_9  and  C_11
REMARK    8  A    between atoms: C_14  and  N_15
REMARK    9  A    between atoms: C_20  and  C_21
REMARK   10  A    between atoms: C_27  and  N_28
REMARK   11  A    between atoms: N_28  and  C_29
REMARK                            x       y       z     vdW  Elec       q    Type
REMARK                         _______ _______ _______ _____ _____    ______ ____
ROOT
ATOM      1  C   UNL     1       1.769   6.817  20.361  0.00  0.00    +0.000 A 
ATOM      2  C   UNL     1       1.068   7.675  21.224  0.00  0.00    +0.000 A 
ATOM      3  N   UNL     1       0.735   9.017  21.009  0.00  0.00    +0.000 NA
ATOM      4  C   UNL     1       1.060   9.586  19.820  0.00  0.00    +0.000 A 
ATOM      5  C   UNL     1       1.848   8.879  18.934  0.00  0.00    +0.000 A 
ATOM      6  C   UNL     1       2.184   7.495  19.195  0.00  0.00    +0.000 A 
ENDROOT
BRANCH   4   7
ATOM      7  N   UNL     1       0.472  10.864  19.471  0.00  0.00    +0.000 N 
ATOM      8  C   UNL     1      -0.462  11.049  18.450  0.00  0.00    +0.000 A 
ATOM      9  C   UNL     1      -0.980  12.311  18.658  0.00  0.00    +0.000 A 
ATOM     10  C   UNL     1       0.169  13.042  18.990  0.00  0.00    +0.000 A 
ATOM     11  C   UNL     1       0.700  14.325  18.729  0.00  0.00    +0.000 A 
ATOM     12  C   UNL     1       1.825  14.695  19.458  0.00  0.00    +0.000 A 
ATOM     13  C   UNL     1       2.259  13.840  20.464  0.00  0.00    +0.000 A 
ATOM     14  N   UNL     1       1.831  12.560  20.700  0.00  0.00    +0.000 NA
ATOM     15  C   UNL     1       0.854  12.173  19.849  0.00  0.00    +0.000 A 
BRANCH  12  16
ATOM     16  C   UNL     1       2.542  15.909  19.158  0.00  0.00    +0.000 C 
ATOM     17  N   UNL     1       3.125  16.858  18.867  0.00  0.00    +0.000 NA
ENDBRANCH  12  16
ENDBRANCH   4   7
BRANCH   1  19
ATOM     18  N   UNL     1       1.060   4.252  19.997  0.00  0.00    +0.000 N 
ATOM     19  C   UNL     1       1.835   5.255  20.679  0.00  0.00    +0.000 C 
ATOM     20  O   UNL     1       2.569   4.921  21.612  0.00  0.00    +0.000 OA
ATOM     21  H   UNL     1       0.627   4.559  19.129  0.00  0.00    +0.000 HD
BRANCH  18  22
ATOM     22  C   UNL     1       1.107   2.690  20.235  0.00  0.00    +0.000 C 
BRANCH  22  23
ATOM     23  C   UNL     1       1.862   1.738  19.157  0.00  0.00    +0.000 C 
ATOM     24  F   UNL     1       1.183   1.887  17.968  0.00  0.00    +0.000 F 
BRANCH  23  26
ATOM     25  C   UNL     1       4.312   2.337  20.017  0.00  0.00    +0.000 C 
ATOM     26  C   UNL     1       3.459   1.875  18.792  0.00  0.00    +0.000 C 
ATOM     27  C   UNL     1       3.788   2.870  17.666  0.00  0.00    +0.000 C 
BRANCH  26  28
ATOM     28  O   UNL     1       4.014   0.616  18.391  0.00  0.00    +0.000 OA
ATOM     29  H   UNL     1       3.390   0.207  17.759  0.00  0.00    +0.000 HD
ENDBRANCH  26  28
ENDBRANCH  23  26
ENDBRANCH  22  23
ENDBRANCH  18  22
ENDBRANCH   1  19
BRANCH   6  30
ATOM     30  N   UNL     1       2.719   6.796  18.087  0.00  0.00    +0.000 N 
ATOM     31  H   UNL     1       2.325   5.861  18.016  0.00  0.00    +0.000 HD
BRANCH  30  32
ATOM     32  C   UNL     1       4.197   6.774  18.141  0.00  0.00    +0.000 C 
ATOM     33  C   UNL     1       4.654   6.615  16.723  0.00  0.00    +0.000 C 
ATOM     34  C   UNL     1       6.143   6.832  16.708  0.00  0.00    +0.000 C 
ATOM     35  O   UNL     1       6.847   5.948  17.567  0.00  0.00    +0.000 OA
ATOM     36  C   UNL     1       6.325   5.638  18.854  0.00  0.00    +0.000 C 
ATOM     37  C   UNL     1       4.817   5.717  19.048  0.00  0.00    +0.000 C 
ENDBRANCH  30  32
ENDBRANCH   6  30
TORSDOF 9
ENDMDL
