MODEL 1
REMARK VINA RESULT:      -9.0      0.000      0.000
REMARK  Name = 
REMARK  6 active torsions:
REMARK  status: ('A' for Active; 'I' for Inactive)
REMARK    1  A    between atoms: C_1  and  C_28
REMARK    2  A    between atoms: N_2  and  C_3
REMARK    3  A    between atoms: C_6  and  O_7
REMARK    4  A    between atoms: O_7  and  C_8
REMARK    5  A    between atoms: C_11  and  N_12
REMARK    6  A    between atoms: C_13  and  C_14
REMARK                            x       y       z     vdW  Elec       q    Type
REMARK                         _______ _______ _______ _____ _____    ______ ____
ROOT
ATOM      1  O   UNL     1       1.315  13.634  19.712  0.00  0.00    +0.000 OA
ENDROOT
BRANCH   1   5
ATOM      2  C   UNL     1       4.879  15.618  18.758  0.00  0.00    +0.000 A 
ATOM      3  C   UNL     1       4.681  15.000  19.995  0.00  0.00    +0.000 A 
ATOM      4  C   UNL     1       3.472  14.355  20.288  0.00  0.00    +0.000 A 
ATOM      5  C   UNL     1       2.446  14.323  19.342  0.00  0.00    +0.000 A 
ATOM      6  C   UNL     1       2.649  14.907  18.093  0.00  0.00    +0.000 A 
ATOM      7  C   UNL     1       3.836  15.589  17.821  0.00  0.00    +0.000 A 
BRANCH   2   9
ATOM      8  C   UNL     1       7.198  15.587  18.474  0.00  0.00    +0.000 C 
ATOM      9  N   UNL     1       6.102  16.276  18.538  0.00  0.00    +0.000 NA
BRANCH   8  10
ATOM     10  C   UNL     1       8.512  16.227  18.222  0.00  0.00    +0.000 A 
ATOM     11  C   UNL     1       8.561  17.629  18.250  0.00  0.00    +0.000 A 
ATOM     12  C   UNL     1       9.745  18.294  17.958  0.00  0.00    +0.000 A 
ATOM     13  C   UNL     1      10.872  17.565  17.590  0.00  0.00    +0.000 A 
ATOM     14  C   UNL     1      10.843  16.162  17.534  0.00  0.00    +0.000 A 
ATOM     15  C   UNL     1      11.977  15.462  17.093  0.00  0.00    +0.000 A 
ATOM     16  C   UNL     1      11.990  14.070  17.039  0.00  0.00    +0.000 A 
ATOM     17  C   UNL     1      10.879  13.357  17.465  0.00  0.00    +0.000 A 
ATOM     18  C   UNL     1       9.736  14.039  17.891  0.00  0.00    +0.000 A 
ATOM     19  C   UNL     1       9.668  15.457  17.900  0.00  0.00    +0.000 A 
ENDBRANCH   8  10
ENDBRANCH   2   9
ENDBRANCH   1   5
BRANCH   1  20
ATOM     20  C   UNL     1       1.283  12.260  19.663  0.00  0.00    +0.000 A 
ATOM     21  C   UNL     1       1.718  11.686  18.467  0.00  0.00    +0.000 A 
ATOM     22  C   UNL     1       1.753  10.297  18.325  0.00  0.00    +0.000 A 
ATOM     23  C   UNL     1       1.361   9.459  19.372  0.00  0.00    +0.000 A 
ATOM     24  C   UNL     1       0.927  10.043  20.569  0.00  0.00    +0.000 A 
ATOM     25  C   UNL     1       0.923  11.433  20.728  0.00  0.00    +0.000 A 
BRANCH  23  26
ATOM     26  N   UNL     1       1.364   8.073  19.145  0.00  0.00    +0.000 NA
ATOM     27  C   UNL     1       2.185   7.328  19.817  0.00  0.00    +0.000 C 
BRANCH  27  28
ATOM     28  C   UNL     1       2.223   5.852  19.658  0.00  0.00    +0.000 A 
ATOM     29  C   UNL     1       1.515   5.080  20.591  0.00  0.00    +0.000 A 
ATOM     30  C   UNL     1       1.609   3.694  20.569  0.00  0.00    +0.000 A 
ATOM     31  C   UNL     1       2.448   3.075  19.646  0.00  0.00    +0.000 A 
ATOM     32  C   UNL     1       3.172   3.826  18.706  0.00  0.00    +0.000 A 
ATOM     33  C   UNL     1       4.053   3.180  17.823  0.00  0.00    +0.000 A 
ATOM     34  C   UNL     1       4.759   3.896  16.858  0.00  0.00    +0.000 A 
ATOM     35  C   UNL     1       4.558   5.262  16.732  0.00  0.00    +0.000 A 
ATOM     36  C   UNL     1       3.701   5.923  17.615  0.00  0.00    +0.000 A 
ATOM     37  C   UNL     1       3.027   5.236  18.657  0.00  0.00    +0.000 A 
ENDBRANCH  27  28
ENDBRANCH  23  26
ENDBRANCH   1  20
TORSDOF 6
ENDMDL
MODEL 2
REMARK VINA RESULT:      -8.1      1.727     11.434
REMARK  Name = 
REMARK  6 active torsions:
REMARK  status: ('A' for Active; 'I' for Inactive)
REMARK    1  A    between atoms: C_1  and  C_28
REMARK    2  A    between atoms: N_2  and  C_3
REMARK    3  A    between atoms: C_6  and  O_7
REMARK    4  A    between atoms: O_7  and  C_8
REMARK    5  A    between atoms: C_11  and  N_12
REMARK    6  A    between atoms: C_13  and  C_14
REMARK                            x       y       z     vdW  Elec       q    Type
REMARK                         _______ _______ _______ _____ _____    ______ ____
ROOT
ATOM      1  O   UNL     1       0.942  12.977  19.543  0.00  0.00    +0.000 OA
ENDROOT
BRANCH   1   5
ATOM      2  C   UNL     1       1.594   8.906  18.798  0.00  0.00    +0.000 A 
ATOM      3  C   UNL     1       2.009   9.900  17.909  0.00  0.00    +0.000 A 
ATOM      4  C   UNL     1       1.764  11.252  18.181  0.00  0.00    +0.000 A 
ATOM      5  C   UNL     1       1.100  11.624  19.350  0.00  0.00    +0.000 A 
ATOM      6  C   UNL     1       0.714  10.641  20.261  0.00  0.00    +0.000 A 
ATOM      7  C   UNL     1       0.916   9.292  19.965  0.00  0.00    +0.000 A 
BRANCH   2   9
ATOM      8  C   UNL     1       3.039   7.085  18.565  0.00  0.00    +0.000 C 
ATOM      9  N   UNL     1       1.840   7.566  18.453  0.00  0.00    +0.000 NA
BRANCH   8  10
ATOM     10  C   UNL     1       3.350   5.673  18.235  0.00  0.00    +0.000 A 
ATOM     11  C   UNL     1       4.283   5.442  17.212  0.00  0.00    +0.000 A 
ATOM     12  C   UNL     1       4.572   4.145  16.808  0.00  0.00    +0.000 A 
ATOM     13  C   UNL     1       3.896   3.076  17.388  0.00  0.00    +0.000 A 
ATOM     14  C   UNL     1       2.943   3.282  18.399  0.00  0.00    +0.000 A 
ATOM     15  C   UNL     1       2.232   2.187  18.915  0.00  0.00    +0.000 A 
ATOM     16  C   UNL     1       1.291   2.351  19.929  0.00  0.00    +0.000 A 
ATOM     17  C   UNL     1       1.078   3.611  20.469  0.00  0.00    +0.000 A 
ATOM     18  C   UNL     1       1.766   4.714  19.956  0.00  0.00    +0.000 A 
ATOM     19  C   UNL     1       2.686   4.590  18.882  0.00  0.00    +0.000 A 
ENDBRANCH   8  10
ENDBRANCH   2   9
ENDBRANCH   1   5
BRANCH   1  20
ATOM     20  C   UNL     1       2.027  13.822  19.503  0.00  0.00    +0.000 A 
ATOM     21  C   UNL     1       2.882  13.761  20.605  0.00  0.00    +0.000 A 
ATOM     22  C   UNL     1       4.029  14.558  20.650  0.00  0.00    +0.000 A 
ATOM     23  C   UNL     1       4.344  15.421  19.597  0.00  0.00    +0.000 A 
ATOM     24  C   UNL     1       3.481  15.475  18.496  0.00  0.00    +0.000 A 
ATOM     25  C   UNL     1       2.350  14.654  18.431  0.00  0.00    +0.000 A 
BRANCH  23  26
ATOM     26  N   UNL     1       5.479  16.237  19.731  0.00  0.00    +0.000 NA
ATOM     27  C   UNL     1       6.632  15.775  19.358  0.00  0.00    +0.000 C 
BRANCH  27  28
ATOM     28  C   UNL     1       7.872  16.590  19.435  0.00  0.00    +0.000 A 
ATOM     29  C   UNL     1       8.140  17.465  18.372  0.00  0.00    +0.000 A 
ATOM     30  C   UNL     1       9.341  18.163  18.326  0.00  0.00    +0.000 A 
ATOM     31  C   UNL     1      10.298  17.955  19.316  0.00  0.00    +0.000 A 
ATOM     32  C   UNL     1      10.055  17.078  20.387  0.00  0.00    +0.000 A 
ATOM     33  C   UNL     1      11.059  16.845  21.341  0.00  0.00    +0.000 A 
ATOM     34  C   UNL     1      10.835  16.007  22.432  0.00  0.00    +0.000 A 
ATOM     35  C   UNL     1       9.587  15.429  22.608  0.00  0.00    +0.000 A 
ATOM     36  C   UNL     1       8.584  15.634  21.658  0.00  0.00    +0.000 A 
ATOM     37  C   UNL     1       8.804  16.418  20.497  0.00  0.00    +0.000 A 
ENDBRANCH  27  28
ENDBRANCH  23  26
ENDBRANCH   1  20
TORSDOF 6
ENDMDL
MODEL 3
REMARK VINA RESULT:      -7.8      1.893     10.996
REMARK  Name = 
REMARK  6 active torsions:
REMARK  status: ('A' for Active; 'I' for Inactive)
REMARK    1  A    between atoms: C_1  and  C_28
REMARK    2  A    between atoms: N_2  and  C_3
REMARK    3  A    between atoms: C_6  and  O_7
REMARK    4  A    between atoms: O_7  and  C_8
REMARK    5  A    between atoms: C_11  and  N_12
REMARK    6  A    between atoms: C_13  and  C_14
REMARK                            x       y       z     vdW  Elec       q    Type
REMARK                         _______ _______ _______ _____ _____    ______ ____
ROOT
ATOM      1  O   UNL     1       0.978  13.070  19.893  0.00  0.00    +0.000 OA
ENDROOT
BRANCH   1   5
ATOM      2  C   UNL     1       1.459   8.975  19.153  0.00  0.00    +0.000 A 
ATOM      3  C   UNL     1       1.836   9.947  18.224  0.00  0.00    +0.000 A 
ATOM      4  C   UNL     1       1.649  11.309  18.496  0.00  0.00    +0.000 A 
ATOM      5  C   UNL     1       1.084  11.712  19.706  0.00  0.00    +0.000 A 
ATOM      6  C   UNL     1       0.738  10.750  20.654  0.00  0.00    +0.000 A 
ATOM      7  C   UNL     1       0.880   9.393  20.361  0.00  0.00    +0.000 A 
BRANCH   2   9
ATOM      8  C   UNL     1       2.726   7.261  18.196  0.00  0.00    +0.000 C 
ATOM      9  N   UNL     1       1.642   7.625  18.807  0.00  0.00    +0.000 NA
BRANCH   8  10
ATOM     10  C   UNL     1       2.980   5.847  17.826  0.00  0.00    +0.000 A 
ATOM     11  C   UNL     1       2.057   4.889  18.274  0.00  0.00    +0.000 A 
ATOM     12  C   UNL     1       2.269   3.541  18.019  0.00  0.00    +0.000 A 
ATOM     13  C   UNL     1       3.427   3.138  17.360  0.00  0.00    +0.000 A 
ATOM     14  C   UNL     1       4.376   4.075  16.921  0.00  0.00    +0.000 A 
ATOM     15  C   UNL     1       5.565   3.630  16.321  0.00  0.00    +0.000 A 
ATOM     16  C   UNL     1       6.521   4.530  15.859  0.00  0.00    +0.000 A 
ATOM     17  C   UNL     1       6.283   5.893  15.956  0.00  0.00    +0.000 A 
ATOM     18  C   UNL     1       5.113   6.354  16.566  0.00  0.00    +0.000 A 
ATOM     19  C   UNL     1       4.146   5.463  17.102  0.00  0.00    +0.000 A 
ENDBRANCH   8  10
ENDBRANCH   2   9
ENDBRANCH   1   5
BRANCH   1  20
ATOM     20  C   UNL     1       2.104  13.856  19.979  0.00  0.00    +0.000 A 
ATOM     21  C   UNL     1       2.367  14.660  18.870  0.00  0.00    +0.000 A 
ATOM     22  C   UNL     1       3.471  15.517  18.868  0.00  0.00    +0.000 A 
ATOM     23  C   UNL     1       4.324  15.590  19.972  0.00  0.00    +0.000 A 
ATOM     24  C   UNL     1       4.052  14.780  21.081  0.00  0.00    +0.000 A 
ATOM     25  C   UNL     1       2.929  13.945  21.101  0.00  0.00    +0.000 A 
BRANCH  23  26
ATOM     26  N   UNL     1       5.447  16.428  19.884  0.00  0.00    +0.000 NA
ATOM     27  C   UNL     1       6.622  15.894  19.758  0.00  0.00    +0.000 C 
BRANCH  27  28
ATOM     28  C   UNL     1       7.852  16.715  19.622  0.00  0.00    +0.000 A 
ATOM     29  C   UNL     1       7.987  17.497  18.466  0.00  0.00    +0.000 A 
ATOM     30  C   UNL     1       9.166  18.191  18.223  0.00  0.00    +0.000 A 
ATOM     31  C   UNL     1      10.232  18.070  19.109  0.00  0.00    +0.000 A 
ATOM     32  C   UNL     1      10.124  17.287  20.271  0.00  0.00    +0.000 A 
ATOM     33  C   UNL     1      11.234  17.137  21.119  0.00  0.00    +0.000 A 
ATOM     34  C   UNL     1      11.147  16.395  22.295  0.00  0.00    +0.000 A 
ATOM     35  C   UNL     1       9.935  15.831  22.662  0.00  0.00    +0.000 A 
ATOM     36  C   UNL     1       8.827  15.953  21.820  0.00  0.00    +0.000 A 
ATOM     37  C   UNL     1       8.903  16.636  20.580  0.00  0.00    +0.000 A 
ENDBRANCH  27  28
ENDBRANCH  23  26
ENDBRANCH   1  20
TORSDOF 6
ENDMDL
MODEL 4
REMARK VINA RESULT:      -7.7      2.753      3.679
REMARK  Name = 
REMARK  6 active torsions:
REMARK  status: ('A' for Active; 'I' for Inactive)
REMARK    1  A    between atoms: C_1  and  C_28
REMARK    2  A    between atoms: N_2  and  C_3
REMARK    3  A    between atoms: C_6  and  O_7
REMARK    4  A    between atoms: O_7  and  C_8
REMARK    5  A    between atoms: C_11  and  N_12
REMARK    6  A    between atoms: C_13  and  C_14
REMARK                            x       y       z     vdW  Elec       q    Type
REMARK                         _______ _______ _______ _____ _____    ______ ____
ROOT
ATOM      1  O   UNL     1       1.259  13.172  19.338  0.00  0.00    +0.000 OA
ENDROOT
BRANCH   1   5
ATOM      2  C   UNL     1       4.714  15.227  20.516  0.00  0.00    +0.000 A 
ATOM      3  C   UNL     1       4.032  14.364  21.378  0.00  0.00    +0.000 A 
ATOM      4  C   UNL     1       2.872  13.702  20.957  0.00  0.00    +0.000 A 
ATOM      5  C   UNL     1       2.381  13.896  19.665  0.00  0.00    +0.000 A 
ATOM      6  C   UNL     1       3.076  14.727  18.788  0.00  0.00    +0.000 A 
ATOM      7  C   UNL     1       4.204  15.423  19.224  0.00  0.00    +0.000 A 
BRANCH   2   9
ATOM      8  C   UNL     1       7.020  15.338  20.874  0.00  0.00    +0.000 C 
ATOM      9  N   UNL     1       5.854  15.887  21.009  0.00  0.00    +0.000 NA
BRANCH   8  10
ATOM     10  C   UNL     1       8.258  15.999  21.355  0.00  0.00    +0.000 A 
ATOM     11  C   UNL     1       9.070  16.622  20.395  0.00  0.00    +0.000 A 
ATOM     12  C   UNL     1      10.274  17.203  20.768  0.00  0.00    +0.000 A 
ATOM     13  C   UNL     1      10.698  17.123  22.091  0.00  0.00    +0.000 A 
ATOM     14  C   UNL     1       9.914  16.486  23.067  0.00  0.00    +0.000 A 
ATOM     15  C   UNL     1      10.402  16.363  24.378  0.00  0.00    +0.000 A 
ATOM     16  C   UNL     1       9.646  15.752  25.375  0.00  0.00    +0.000 A 
ATOM     17  C   UNL     1       8.371  15.290  25.083  0.00  0.00    +0.000 A 
ATOM     18  C   UNL     1       7.876  15.390  23.779  0.00  0.00    +0.000 A 
ATOM     19  C   UNL     1       8.645  15.951  22.726  0.00  0.00    +0.000 A 
ENDBRANCH   8  10
ENDBRANCH   2   9
ENDBRANCH   1   5
BRANCH   1  20
ATOM     20  C   UNL     1       1.339  11.818  19.111  0.00  0.00    +0.000 A 
ATOM     21  C   UNL     1       2.223  11.424  18.105  0.00  0.00    +0.000 A 
ATOM     22  C   UNL     1       2.400  10.069  17.815  0.00  0.00    +0.000 A 
ATOM     23  C   UNL     1       1.706   9.087  18.526  0.00  0.00    +0.000 A 
ATOM     24  C   UNL     1       0.823   9.490  19.535  0.00  0.00    +0.000 A 
ATOM     25  C   UNL     1       0.668  10.844  19.852  0.00  0.00    +0.000 A 
BRANCH  23  26
ATOM     26  N   UNL     1       1.887   7.747  18.147  0.00  0.00    +0.000 NA
ATOM     27  C   UNL     1       2.958   7.124  18.528  0.00  0.00    +0.000 C 
BRANCH  27  28
ATOM     28  C   UNL     1       3.203   5.697  18.197  0.00  0.00    +0.000 A 
ATOM     29  C   UNL     1       4.067   5.418  17.127  0.00  0.00    +0.000 A 
ATOM     30  C   UNL     1       4.241   4.110  16.691  0.00  0.00    +0.000 A 
ATOM     31  C   UNL     1       3.518   3.082  17.289  0.00  0.00    +0.000 A 
ATOM     32  C   UNL     1       2.642   3.337  18.357  0.00  0.00    +0.000 A 
ATOM     33  C   UNL     1       1.883   2.289  18.906  0.00  0.00    +0.000 A 
ATOM     34  C   UNL     1       1.032   2.506  19.987  0.00  0.00    +0.000 A 
ATOM     35  C   UNL     1       0.963   3.765  20.565  0.00  0.00    +0.000 A 
ATOM     36  C   UNL     1       1.695   4.822  20.019  0.00  0.00    +0.000 A 
ATOM     37  C   UNL     1       2.511   4.652  18.872  0.00  0.00    +0.000 A 
ENDBRANCH  27  28
ENDBRANCH  23  26
ENDBRANCH   1  20
TORSDOF 6
ENDMDL
MODEL 5
REMARK VINA RESULT:      -7.5      1.743      2.171
REMARK  Name = 
REMARK  6 active torsions:
REMARK  status: ('A' for Active; 'I' for Inactive)
REMARK    1  A    between atoms: C_1  and  C_28
REMARK    2  A    between atoms: N_2  and  C_3
REMARK    3  A    between atoms: C_6  and  O_7
REMARK    4  A    between atoms: O_7  and  C_8
REMARK    5  A    between atoms: C_11  and  N_12
REMARK    6  A    between atoms: C_13  and  C_14
REMARK                            x       y       z     vdW  Elec       q    Type
REMARK                         _______ _______ _______ _____ _____    ______ ____
ROOT
ATOM      1  O   UNL     1       1.230  13.444  19.390  0.00  0.00    +0.000 OA
ENDROOT
BRANCH   1   5
ATOM      2  C   UNL     1       4.627  15.892  19.537  0.00  0.00    +0.000 A 
ATOM      3  C   UNL     1       4.301  15.010  20.570  0.00  0.00    +0.000 A 
ATOM      4  C   UNL     1       3.150  14.214  20.496  0.00  0.00    +0.000 A 
ATOM      5  C   UNL     1       2.312  14.292  19.383  0.00  0.00    +0.000 A 
ATOM      6  C   UNL     1       2.649  15.144  18.332  0.00  0.00    +0.000 A 
ATOM      7  C   UNL     1       3.769  15.971  18.429  0.00  0.00    +0.000 A 
BRANCH   2   9
ATOM      8  C   UNL     1       6.937  16.199  19.379  0.00  0.00    +0.000 C 
ATOM      9  N   UNL     1       5.776  16.687  19.686  0.00  0.00    +0.000 NA
BRANCH   8  10
ATOM     10  C   UNL     1       8.180  17.000  19.496  0.00  0.00    +0.000 A 
ATOM     11  C   UNL     1       8.476  17.885  18.449  0.00  0.00    +0.000 A 
ATOM     12  C   UNL     1       9.656  18.617  18.463  0.00  0.00    +0.000 A 
ATOM     13  C   UNL     1      10.569  18.433  19.497  0.00  0.00    +0.000 A 
ATOM     14  C   UNL     1      10.305  17.537  20.547  0.00  0.00    +0.000 A 
ATOM     15  C   UNL     1      11.277  17.325  21.538  0.00  0.00    +0.000 A 
ATOM     16  C   UNL     1      11.044  16.456  22.602  0.00  0.00    +0.000 A 
ATOM     17  C   UNL     1       9.818  15.817  22.710  0.00  0.00    +0.000 A 
ATOM     18  C   UNL     1       8.846  16.004  21.723  0.00  0.00    +0.000 A 
ATOM     19  C   UNL     1       9.074  16.835  20.594  0.00  0.00    +0.000 A 
ENDBRANCH   8  10
ENDBRANCH   2   9
ENDBRANCH   1   5
BRANCH   1  20
ATOM     20  C   UNL     1       1.392  12.100  19.144  0.00  0.00    +0.000 A 
ATOM     21  C   UNL     1       0.734  11.240  20.024  0.00  0.00    +0.000 A 
ATOM     22  C   UNL     1       0.809   9.857  19.844  0.00  0.00    +0.000 A 
ATOM     23  C   UNL     1       1.536   9.310  18.783  0.00  0.00    +0.000 A 
ATOM     24  C   UNL     1       2.192  10.180  17.904  0.00  0.00    +0.000 A 
ATOM     25  C   UNL     1       2.091  11.567  18.060  0.00  0.00    +0.000 A 
BRANCH  23  26
ATOM     26  N   UNL     1       1.620   7.911  18.692  0.00  0.00    +0.000 NA
ATOM     27  C   UNL     1       2.079   7.242  19.704  0.00  0.00    +0.000 C 
BRANCH  27  28
ATOM     28  C   UNL     1       2.165   5.759  19.697  0.00  0.00    +0.000 A 
ATOM     29  C   UNL     1       1.499   5.066  20.718  0.00  0.00    +0.000 A 
ATOM     30  C   UNL     1       1.640   3.689  20.838  0.00  0.00    +0.000 A 
ATOM     31  C   UNL     1       2.484   3.005  19.967  0.00  0.00    +0.000 A 
ATOM     32  C   UNL     1       3.167   3.678  18.940  0.00  0.00    +0.000 A 
ATOM     33  C   UNL     1       4.054   2.972  18.111  0.00  0.00    +0.000 A 
ATOM     34  C   UNL     1       4.720   3.606  17.064  0.00  0.00    +0.000 A 
ATOM     35  C   UNL     1       4.470   4.944  16.802  0.00  0.00    +0.000 A 
ATOM     36  C   UNL     1       3.606   5.666  17.629  0.00  0.00    +0.000 A 
ATOM     37  C   UNL     1       2.973   5.070  18.749  0.00  0.00    +0.000 A 
ENDBRANCH  27  28
ENDBRANCH  23  26
ENDBRANCH   1  20
TORSDOF 6
ENDMDL
MODEL 6
REMARK VINA RESULT:      -7.5      1.833      2.300
REMARK  Name = 
REMARK  6 active torsions:
REMARK  status: ('A' for Active; 'I' for Inactive)
REMARK    1  A    between atoms: C_1  and  C_28
REMARK    2  A    between atoms: N_2  and  C_3
REMARK    3  A    between atoms: C_6  and  O_7
REMARK    4  A    between atoms: O_7  and  C_8
REMARK    5  A    between atoms: C_11  and  N_12
REMARK    6  A    between atoms: C_13  and  C_14
REMARK                            x       y       z     vdW  Elec       q    Type
REMARK                         _______ _______ _______ _____ _____    ______ ____
ROOT
ATOM      1  O   UNL     1       0.670  12.735  20.275  0.00  0.00    +0.000 OA
ENDROOT
BRANCH   1   5
ATOM      2  C   UNL     1       3.985  15.230  19.696  0.00  0.00    +0.000 A 
ATOM      3  C   UNL     1       3.805  14.493  20.869  0.00  0.00    +0.000 A 
ATOM      4  C   UNL     1       2.678  13.678  21.037  0.00  0.00    +0.000 A 
ATOM      5  C   UNL     1       1.718  13.590  20.029  0.00  0.00    +0.000 A 
ATOM      6  C   UNL     1       1.907  14.295  18.840  0.00  0.00    +0.000 A 
ATOM      7  C   UNL     1       3.005  15.143  18.694  0.00  0.00    +0.000 A 
BRANCH   2   9
ATOM      8  C   UNL     1       6.301  15.531  19.697  0.00  0.00    +0.000 C 
ATOM      9  N   UNL     1       5.119  16.055  19.601  0.00  0.00    +0.000 NA
BRANCH   8  10
ATOM     10  C   UNL     1       7.532  16.351  19.583  0.00  0.00    +0.000 A 
ATOM     11  C   UNL     1       7.649  17.184  18.460  0.00  0.00    +0.000 A 
ATOM     12  C   UNL     1       8.804  17.929  18.259  0.00  0.00    +0.000 A 
ATOM     13  C   UNL     1       9.866  17.809  19.149  0.00  0.00    +0.000 A 
ATOM     14  C   UNL     1       9.782  16.965  20.270  0.00  0.00    +0.000 A 
ATOM     15  C   UNL     1      10.897  16.816  21.110  0.00  0.00    +0.000 A 
ATOM     16  C   UNL     1      10.845  16.001  22.239  0.00  0.00    +0.000 A 
ATOM     17  C   UNL     1       9.661  15.354  22.564  0.00  0.00    +0.000 A 
ATOM     18  C   UNL     1       8.548  15.479  21.729  0.00  0.00    +0.000 A 
ATOM     19  C   UNL     1       8.586  16.253  20.539  0.00  0.00    +0.000 A 
ENDBRANCH   8  10
ENDBRANCH   2   9
ENDBRANCH   1   5
BRANCH   1  20
ATOM     20  C   UNL     1       0.870  11.375  20.320  0.00  0.00    +0.000 A 
ATOM     21  C   UNL     1       0.720  10.781  21.574  0.00  0.00    +0.000 A 
ATOM     22  C   UNL     1       0.873   9.401  21.722  0.00  0.00    +0.000 A 
ATOM     23  C   UNL     1       1.174   8.591  20.624  0.00  0.00    +0.000 A 
ATOM     24  C   UNL     1       1.322   9.194  19.369  0.00  0.00    +0.000 A 
ATOM     25  C   UNL     1       1.135  10.572  19.209  0.00  0.00    +0.000 A 
BRANCH  23  26
ATOM     26  N   UNL     1       1.372   7.219  20.850  0.00  0.00    +0.000 NA
ATOM     27  C   UNL     1       1.779   6.473  19.872  0.00  0.00    +0.000 C 
BRANCH  27  28
ATOM     28  C   UNL     1       2.046   5.022  20.043  0.00  0.00    +0.000 A 
ATOM     29  C   UNL     1       1.681   4.434  21.264  0.00  0.00    +0.000 A 
ATOM     30  C   UNL     1       2.013   3.112  21.532  0.00  0.00    +0.000 A 
ATOM     31  C   UNL     1       2.752   2.385  20.603  0.00  0.00    +0.000 A 
ATOM     32  C   UNL     1       3.135   2.953  19.376  0.00  0.00    +0.000 A 
ATOM     33  C   UNL     1       3.927   2.215  18.481  0.00  0.00    +0.000 A 
ATOM     34  C   UNL     1       4.294   2.740  17.243  0.00  0.00    +0.000 A 
ATOM     35  C   UNL     1       3.833   3.992  16.865  0.00  0.00    +0.000 A 
ATOM     36  C   UNL     1       3.062   4.747  17.751  0.00  0.00    +0.000 A 
ATOM     37  C   UNL     1       2.736   4.274  19.048  0.00  0.00    +0.000 A 
ENDBRANCH  27  28
ENDBRANCH  23  26
ENDBRANCH   1  20
TORSDOF 6
ENDMDL
MODEL 7
REMARK VINA RESULT:      -7.3      3.445      4.214
REMARK  Name = 
REMARK  6 active torsions:
REMARK  status: ('A' for Active; 'I' for Inactive)
REMARK    1  A    between atoms: C_1  and  C_28
REMARK    2  A    between atoms: N_2  and  C_3
REMARK    3  A    between atoms: C_6  and  O_7
REMARK    4  A    between atoms: O_7  and  C_8
REMARK    5  A    between atoms: C_11  and  N_12
REMARK    6  A    between atoms: C_13  and  C_14
REMARK                            x       y       z     vdW  Elec       q    Type
REMARK                         _______ _______ _______ _____ _____    ______ ____
ROOT
ATOM      1  O   UNL     1       1.219  13.783  19.164  0.00  0.00    +0.000 OA
ENDROOT
BRANCH   1   5
ATOM      2  C   UNL     1       4.684  15.455  20.823  0.00  0.00    +0.000 A 
ATOM      3  C   UNL     1       3.967  14.442  21.464  0.00  0.00    +0.000 A 
ATOM      4  C   UNL     1       2.804  13.913  20.889  0.00  0.00    +0.000 A 
ATOM      5  C   UNL     1       2.347  14.393  19.661  0.00  0.00    +0.000 A 
ATOM      6  C   UNL     1       3.076  15.379  18.998  0.00  0.00    +0.000 A 
ATOM      7  C   UNL     1       4.206  15.938  19.595  0.00  0.00    +0.000 A 
BRANCH   2   9
ATOM      8  C   UNL     1       6.416  15.260  22.378  0.00  0.00    +0.000 C 
ATOM      9  N   UNL     1       5.823  15.967  21.468  0.00  0.00    +0.000 NA
BRANCH   8  10
ATOM     10  C   UNL     1       7.634  15.742  23.075  0.00  0.00    +0.000 A 
ATOM     11  C   UNL     1       8.464  16.632  22.377  0.00  0.00    +0.000 A 
ATOM     12  C   UNL     1       9.653  17.070  22.945  0.00  0.00    +0.000 A 
ATOM     13  C   UNL     1      10.043  16.586  24.190  0.00  0.00    +0.000 A 
ATOM     14  C   UNL     1       9.239  15.678  24.899  0.00  0.00    +0.000 A 
ATOM     15  C   UNL     1       9.694  15.157  26.121  0.00  0.00    +0.000 A 
ATOM     16  C   UNL     1       8.917  14.267  26.860  0.00  0.00    +0.000 A 
ATOM     17  C   UNL     1       7.655  13.917  26.403  0.00  0.00    +0.000 A 
ATOM     18  C   UNL     1       7.194  14.413  25.181  0.00  0.00    +0.000 A 
ATOM     19  C   UNL     1       7.985  15.273  24.375  0.00  0.00    +0.000 A 
ENDBRANCH   8  10
ENDBRANCH   2   9
ENDBRANCH   1   5
BRANCH   1  20
ATOM     20  C   UNL     1       1.232  12.447  18.837  0.00  0.00    +0.000 A 
ATOM     21  C   UNL     1       2.383  11.992  18.192  0.00  0.00    +0.000 A 
ATOM     22  C   UNL     1       2.508  10.645  17.843  0.00  0.00    +0.000 A 
ATOM     23  C   UNL     1       1.493   9.731  18.135  0.00  0.00    +0.000 A 
ATOM     24  C   UNL     1       0.342  10.195  18.783  0.00  0.00    +0.000 A 
ATOM     25  C   UNL     1       0.226  11.536  19.166  0.00  0.00    +0.000 A 
BRANCH  23  26
ATOM     26  N   UNL     1       1.656   8.404  17.705  0.00  0.00    +0.000 NA
ATOM     27  C   UNL     1       2.596   7.683  18.234  0.00  0.00    +0.000 C 
BRANCH  27  28
ATOM     28  C   UNL     1       2.808   6.262  17.858  0.00  0.00    +0.000 A 
ATOM     29  C   UNL     1       1.798   5.346  18.189  0.00  0.00    +0.000 A 
ATOM     30  C   UNL     1       1.989   3.986  17.974  0.00  0.00    +0.000 A 
ATOM     31  C   UNL     1       3.205   3.532  17.471  0.00  0.00    +0.000 A 
ATOM     32  C   UNL     1       4.233   4.429  17.139  0.00  0.00    +0.000 A 
ATOM     33  C   UNL     1       5.470   3.940  16.686  0.00  0.00    +0.000 A 
ATOM     34  C   UNL     1       6.496   4.807  16.317  0.00  0.00    +0.000 A 
ATOM     35  C   UNL     1       6.283   6.177  16.351  0.00  0.00    +0.000 A 
ATOM     36  C   UNL     1       5.067   6.680  16.817  0.00  0.00    +0.000 A 
ATOM     37  C   UNL     1       4.030   5.827  17.273  0.00  0.00    +0.000 A 
ENDBRANCH  27  28
ENDBRANCH  23  26
ENDBRANCH   1  20
TORSDOF 6
ENDMDL
MODEL 8
REMARK VINA RESULT:      -7.3      3.762     10.545
REMARK  Name = 
REMARK  6 active torsions:
REMARK  status: ('A' for Active; 'I' for Inactive)
REMARK    1  A    between atoms: C_1  and  C_28
REMARK    2  A    between atoms: N_2  and  C_3
REMARK    3  A    between atoms: C_6  and  O_7
REMARK    4  A    between atoms: O_7  and  C_8
REMARK    5  A    between atoms: C_11  and  N_12
REMARK    6  A    between atoms: C_13  and  C_14
REMARK                            x       y       z     vdW  Elec       q    Type
REMARK                         _______ _______ _______ _____ _____    ______ ____
ROOT
ATOM      1  O   UNL     1       0.775  13.785  19.071  0.00  0.00    +0.000 OA
ENDROOT
BRANCH   1   5
ATOM      2  C   UNL     1       1.356   9.728  18.202  0.00  0.00    +0.000 A 
ATOM      3  C   UNL     1       2.329  10.693  17.931  0.00  0.00    +0.000 A 
ATOM      4  C   UNL     1       2.098  12.044  18.222  0.00  0.00    +0.000 A 
ATOM      5  C   UNL     1       0.888  12.443  18.790  0.00  0.00    +0.000 A 
ATOM      6  C   UNL     1      -0.074  11.482  19.096  0.00  0.00    +0.000 A 
ATOM      7  C   UNL     1       0.138  10.144  18.762  0.00  0.00    +0.000 A 
BRANCH   2   9
ATOM      8  C   UNL     1       2.793   7.887  18.144  0.00  0.00    +0.000 C 
ATOM      9  N   UNL     1       1.635   8.394  17.857  0.00  0.00    +0.000 NA
BRANCH   8  10
ATOM     10  C   UNL     1       3.133   6.479  17.822  0.00  0.00    +0.000 A 
ATOM     11  C   UNL     1       2.113   5.525  17.952  0.00  0.00    +0.000 A 
ATOM     12  C   UNL     1       2.380   4.180  17.730  0.00  0.00    +0.000 A 
ATOM     13  C   UNL     1       3.676   3.776  17.425  0.00  0.00    +0.000 A 
ATOM     14  C   UNL     1       4.720   4.710  17.310  0.00  0.00    +0.000 A 
ATOM     15  C   UNL     1       6.028   4.261  17.069  0.00  0.00    +0.000 A 
ATOM     16  C   UNL     1       7.085   5.159  16.934  0.00  0.00    +0.000 A 
ATOM     17  C   UNL     1       6.838   6.522  16.998  0.00  0.00    +0.000 A 
ATOM     18  C   UNL     1       5.545   6.985  17.254  0.00  0.00    +0.000 A 
ATOM     19  C   UNL     1       4.457   6.096  17.458  0.00  0.00    +0.000 A 
ENDBRANCH   8  10
ENDBRANCH   2   9
ENDBRANCH   1   5
BRANCH   1  20
ATOM     20  C   UNL     1       1.796  14.457  19.701  0.00  0.00    +0.000 A 
ATOM     21  C   UNL     1       1.981  14.152  21.050  0.00  0.00    +0.000 A 
ATOM     22  C   UNL     1       3.010  14.759  21.774  0.00  0.00    +0.000 A 
ATOM     23  C   UNL     1       3.873  15.674  21.165  0.00  0.00    +0.000 A 
ATOM     24  C   UNL     1       3.681  15.974  19.811  0.00  0.00    +0.000 A 
ATOM     25  C   UNL     1       2.673  15.343  19.073  0.00  0.00    +0.000 A 
BRANCH  23  26
ATOM     26  N   UNL     1       4.849  16.291  21.963  0.00  0.00    +0.000 NA
ATOM     27  C   UNL     1       5.726  15.552  22.568  0.00  0.00    +0.000 C 
BRANCH  27  28
ATOM     28  C   UNL     1       6.811  16.134  23.399  0.00  0.00    +0.000 A 
ATOM     29  C   UNL     1       7.269  17.416  23.064  0.00  0.00    +0.000 A 
ATOM     30  C   UNL     1       8.362  17.965  23.725  0.00  0.00    +0.000 A 
ATOM     31  C   UNL     1       9.029  17.217  24.691  0.00  0.00    +0.000 A 
ATOM     32  C   UNL     1       8.593  15.928  25.040  0.00  0.00    +0.000 A 
ATOM     33  C   UNL     1       9.318  15.174  25.978  0.00  0.00    +0.000 A 
ATOM     34  C   UNL     1       8.891  13.907  26.368  0.00  0.00    +0.000 A 
ATOM     35  C   UNL     1       7.706  13.395  25.860  0.00  0.00    +0.000 A 
ATOM     36  C   UNL     1       6.984  14.123  24.912  0.00  0.00    +0.000 A 
ATOM     37  C   UNL     1       7.432  15.382  24.436  0.00  0.00    +0.000 A 
ENDBRANCH  27  28
ENDBRANCH  23  26
ENDBRANCH   1  20
TORSDOF 6
ENDMDL
MODEL 9
REMARK VINA RESULT:      -7.2      5.046      7.944
REMARK  Name = 
REMARK  6 active torsions:
REMARK  status: ('A' for Active; 'I' for Inactive)
REMARK    1  A    between atoms: C_1  and  C_28
REMARK    2  A    between atoms: N_2  and  C_3
REMARK    3  A    between atoms: C_6  and  O_7
REMARK    4  A    between atoms: O_7  and  C_8
REMARK    5  A    between atoms: C_11  and  N_12
REMARK    6  A    between atoms: C_13  and  C_14
REMARK                            x       y       z     vdW  Elec       q    Type
REMARK                         _______ _______ _______ _____ _____    ______ ____
ROOT
ATOM      1  O   UNL     1      10.122  12.275  20.033  0.00  0.00    +0.000 OA
ENDROOT
BRANCH   1   5
ATOM      2  C   UNL     1       8.328  13.591  23.583  0.00  0.00    +0.000 A 
ATOM      3  C   UNL     1       8.248  12.263  23.157  0.00  0.00    +0.000 A 
ATOM      4  C   UNL     1       8.848  11.857  21.958  0.00  0.00    +0.000 A 
ATOM      5  C   UNL     1       9.538  12.780  21.171  0.00  0.00    +0.000 A 
ATOM      6  C   UNL     1       9.654  14.099  21.606  0.00  0.00    +0.000 A 
ATOM      7  C   UNL     1       9.015  14.511  22.776  0.00  0.00    +0.000 A 
BRANCH   2   9
ATOM      8  C   UNL     1       6.772  14.869  24.766  0.00  0.00    +0.000 C 
ATOM      9  N   UNL     1       7.677  13.941  24.779  0.00  0.00    +0.000 NA
BRANCH   8  10
ATOM     10  C   UNL     1       6.038  15.264  25.994  0.00  0.00    +0.000 A 
ATOM     11  C   UNL     1       6.472  14.710  27.208  0.00  0.00    +0.000 A 
ATOM     12  C   UNL     1       5.790  14.986  28.386  0.00  0.00    +0.000 A 
ATOM     13  C   UNL     1       4.644  15.775  28.350  0.00  0.00    +0.000 A 
ATOM     14  C   UNL     1       4.177  16.323  27.144  0.00  0.00    +0.000 A 
ATOM     15  C   UNL     1       2.981  17.058  27.133  0.00  0.00    +0.000 A 
ATOM     16  C   UNL     1       2.496  17.629  25.959  0.00  0.00    +0.000 A 
ATOM     17  C   UNL     1       3.225  17.507  24.785  0.00  0.00    +0.000 A 
ATOM     18  C   UNL     1       4.409  16.765  24.775  0.00  0.00    +0.000 A 
ATOM     19  C   UNL     1       4.899  16.119  25.940  0.00  0.00    +0.000 A 
ENDBRANCH   8  10
ENDBRANCH   2   9
ENDBRANCH   1   5
BRANCH   1  20
ATOM     20  C   UNL     1       9.465  11.347  19.260  0.00  0.00    +0.000 A 
ATOM     21  C   UNL     1       9.578  10.020  19.678  0.00  0.00    +0.000 A 
ATOM     22  C   UNL     1       8.924   9.003  18.979  0.00  0.00    +0.000 A 
ATOM     23  C   UNL     1       8.143   9.292  17.857  0.00  0.00    +0.000 A 
ATOM     24  C   UNL     1       8.034  10.625  17.444  0.00  0.00    +0.000 A 
ATOM     25  C   UNL     1       8.659  11.651  18.162  0.00  0.00    +0.000 A 
BRANCH  23  26
ATOM     26  N   UNL     1       7.560   8.218  17.166  0.00  0.00    +0.000 NA
ATOM     27  C   UNL     1       7.417   7.082  17.774  0.00  0.00    +0.000 C 
BRANCH  27  28
ATOM     28  C   UNL     1       6.777   5.911  17.121  0.00  0.00    +0.000 A 
ATOM     29  C   UNL     1       7.292   5.497  15.884  0.00  0.00    +0.000 A 
ATOM     30  C   UNL     1       6.662   4.487  15.166  0.00  0.00    +0.000 A 
ATOM     31  C   UNL     1       5.489   3.921  15.658  0.00  0.00    +0.000 A 
ATOM     32  C   UNL     1       4.951   4.324  16.891  0.00  0.00    +0.000 A 
ATOM     33  C   UNL     1       3.737   3.775  17.337  0.00  0.00    +0.000 A 
ATOM     34  C   UNL     1       3.196   4.131  18.571  0.00  0.00    +0.000 A 
ATOM     35  C   UNL     1       3.886   5.005  19.397  0.00  0.00    +0.000 A 
ATOM     36  C   UNL     1       5.084   5.575  18.960  0.00  0.00    +0.000 A 
ATOM     37  C   UNL     1       5.622   5.294  17.678  0.00  0.00    +0.000 A 
ENDBRANCH  27  28
ENDBRANCH  23  26
ENDBRANCH   1  20
TORSDOF 6
ENDMDL
