MODEL 1
REMARK VINA RESULT:      -8.3      0.000      0.000
REMARK  Name = 
REMARK  5 active torsions:
REMARK  status: ('A' for Active; 'I' for Inactive)
REMARK    1  A    between atoms: C_2  and  C_3
REMARK    2  A    between atoms: C_3  and  S_4
REMARK    3  A    between atoms: S_4  and  C_5
REMARK    4  A    between atoms: N_12  and  C_13
REMARK    5  A    between atoms: C_15  and  C_16
REMARK                            x       y       z     vdW  Elec       q    Type
REMARK                         _______ _______ _______ _____ _____    ______ ____
ROOT
ATOM      1  O   UNL     1       1.026   4.597  20.263  0.00  0.00    +0.000 OA
ATOM      2  C   UNL     1       2.237   4.798  20.203  0.00  0.00    +0.000 C 
ATOM      3  N   UNL     1       2.834   6.040  20.055  0.00  0.00    +0.000 N 
ATOM      4  H   UNL     1       3.789   6.059  19.701  0.00  0.00    +0.000 HD
ENDROOT
BRANCH   3   5
ATOM      5  C   UNL     1       2.158   7.287  20.016  0.00  0.00    +0.000 A 
ATOM      6  C   UNL     1       1.442   7.779  21.114  0.00  0.00    +0.000 A 
ATOM      7  C   UNL     1       0.675   8.953  21.023  0.00  0.00    +0.000 A 
ATOM      8  C   UNL     1       0.682   9.677  19.823  0.00  0.00    +0.000 A 
ATOM      9  C   UNL     1       1.448   9.239  18.741  0.00  0.00    +0.000 A 
ATOM     10  C   UNL     1       2.182   8.053  18.837  0.00  0.00    +0.000 A 
ATOM     11 CL   UNL     1       3.093   7.542  17.458  0.00  0.00    +0.000 Cl
BRANCH   7  12
ATOM     12  C   UNL     1      -0.181   9.399  22.185  0.00  0.00    +0.000 C 
ATOM     13  F   UNL     1      -1.104   8.478  22.575  0.00  0.00    +0.000 F 
ATOM     14  F   UNL     1       0.553   9.684  23.295  0.00  0.00    +0.000 F 
ATOM     15  F   UNL     1      -0.882  10.531  21.898  0.00  0.00    +0.000 F 
ENDBRANCH   7  12
ENDBRANCH   3   5
BRANCH   2  16
ATOM     16  C   UNL     1       3.222   3.640  20.274  0.00  0.00    +0.000 C 
BRANCH  16  17
ATOM     17  S   UNL     1       3.837   3.210  18.615  0.00  0.00    +0.000 S 
BRANCH  17  18
ATOM     18  C   UNL     1       5.340   4.073  18.635  0.00  0.00    +0.000 A 
ATOM     19  N   UNL     1       5.743   4.726  19.676  0.00  0.00    +0.000 NA
ATOM     20  N   UNL     1       6.973   5.404  19.631  0.00  0.00    +0.000 NA
ATOM     21  C   UNL     1       7.665   5.349  18.538  0.00  0.00    +0.000 A 
ATOM     22  C   UNL     1       7.214   4.596  17.327  0.00  0.00    +0.000 A 
ATOM     23  O   UNL     1       7.903   4.581  16.319  0.00  0.00    +0.000 OA
ATOM     24  N   UNL     1       6.016   3.968  17.471  0.00  0.00    +0.000 N 
ATOM     25  H   UNL     1       5.629   3.453  16.696  0.00  0.00    +0.000 HD
ENDBRANCH  17  18
ENDBRANCH  16  17
ENDBRANCH   2  16
TORSDOF 5
ENDMDL
MODEL 2
REMARK VINA RESULT:      -7.8      3.570      4.597
REMARK  Name = 
REMARK  5 active torsions:
REMARK  status: ('A' for Active; 'I' for Inactive)
REMARK    1  A    between atoms: C_2  and  C_3
REMARK    2  A    between atoms: C_3  and  S_4
REMARK    3  A    between atoms: S_4  and  C_5
REMARK    4  A    between atoms: N_12  and  C_13
REMARK    5  A    between atoms: C_15  and  C_16
REMARK                            x       y       z     vdW  Elec       q    Type
REMARK                         _______ _______ _______ _____ _____    ______ ____
ROOT
ATOM      1  O   UNL     1       4.798   3.193  17.189  0.00  0.00    +0.000 OA
ATOM      2  C   UNL     1       4.541   4.250  16.616  0.00  0.00    +0.000 C 
ATOM      3  N   UNL     1       3.725   5.252  17.116  0.00  0.00    +0.000 N 
ATOM      4  H   UNL     1       3.333   5.912  16.446  0.00  0.00    +0.000 HD
ENDROOT
BRANCH   3   5
ATOM      5  C   UNL     1       3.104   5.258  18.392  0.00  0.00    +0.000 A 
ATOM      6  C   UNL     1       2.927   4.086  19.138  0.00  0.00    +0.000 A 
ATOM      7  C   UNL     1       2.202   4.086  20.341  0.00  0.00    +0.000 A 
ATOM      8  C   UNL     1       1.703   5.299  20.834  0.00  0.00    +0.000 A 
ATOM      9  C   UNL     1       1.933   6.489  20.140  0.00  0.00    +0.000 A 
ATOM     10  C   UNL     1       2.630   6.469  18.928  0.00  0.00    +0.000 A 
ATOM     11 CL   UNL     1       2.864   7.967  18.096  0.00  0.00    +0.000 Cl
BRANCH   7  12
ATOM     12  C   UNL     1       1.925   2.790  21.066  0.00  0.00    +0.000 C 
ATOM     13  F   UNL     1       1.722   1.728  20.239  0.00  0.00    +0.000 F 
ATOM     14  F   UNL     1       2.941   2.428  21.895  0.00  0.00    +0.000 F 
ATOM     15  F   UNL     1       0.813   2.870  21.850  0.00  0.00    +0.000 F 
ENDBRANCH   7  12
ENDBRANCH   3   5
BRANCH   2  16
ATOM     16  C   UNL     1       5.117   4.547  15.239  0.00  0.00    +0.000 C 
BRANCH  16  17
ATOM     17  S   UNL     1       6.927   4.349  15.237  0.00  0.00    +0.000 S 
BRANCH  17  18
ATOM     18  C   UNL     1       7.336   5.455  16.508  0.00  0.00    +0.000 A 
ATOM     19  N   UNL     1       7.346   6.735  16.327  0.00  0.00    +0.000 NA
ATOM     20  N   UNL     1       7.684   7.580  17.398  0.00  0.00    +0.000 NA
ATOM     21  C   UNL     1       7.977   7.040  18.538  0.00  0.00    +0.000 A 
ATOM     22  C   UNL     1       7.968   5.561  18.763  0.00  0.00    +0.000 A 
ATOM     23  O   UNL     1       8.257   5.103  19.857  0.00  0.00    +0.000 OA
ATOM     24  N   UNL     1       7.622   4.830  17.670  0.00  0.00    +0.000 N 
ATOM     25  H   UNL     1       7.608   3.824  17.730  0.00  0.00    +0.000 HD
ENDBRANCH  17  18
ENDBRANCH  16  17
ENDBRANCH   2  16
TORSDOF 5
ENDMDL
MODEL 3
REMARK VINA RESULT:      -7.7      3.516      4.525
REMARK  Name = 
REMARK  5 active torsions:
REMARK  status: ('A' for Active; 'I' for Inactive)
REMARK    1  A    between atoms: C_2  and  C_3
REMARK    2  A    between atoms: C_3  and  S_4
REMARK    3  A    between atoms: S_4  and  C_5
REMARK    4  A    between atoms: N_12  and  C_13
REMARK    5  A    between atoms: C_15  and  C_16
REMARK                            x       y       z     vdW  Elec       q    Type
REMARK                         _______ _______ _______ _____ _____    ______ ____
ROOT
ATOM      1  O   UNL     1       3.517   3.407  16.421  0.00  0.00    +0.000 OA
ATOM      2  C   UNL     1       4.182   4.442  16.434  0.00  0.00    +0.000 C 
ATOM      3  N   UNL     1       4.112   5.423  17.411  0.00  0.00    +0.000 N 
ATOM      4  H   UNL     1       4.451   6.351  17.164  0.00  0.00    +0.000 HD
ENDROOT
BRANCH   3   5
ATOM      5  C   UNL     1       3.318   5.370  18.586  0.00  0.00    +0.000 A 
ATOM      6  C   UNL     1       3.191   4.201  19.346  0.00  0.00    +0.000 A 
ATOM      7  C   UNL     1       2.306   4.126  20.434  0.00  0.00    +0.000 A 
ATOM      8  C   UNL     1       1.585   5.269  20.802  0.00  0.00    +0.000 A 
ATOM      9  C   UNL     1       1.753   6.465  20.101  0.00  0.00    +0.000 A 
ATOM     10  C   UNL     1       2.615   6.515  19.000  0.00  0.00    +0.000 A 
ATOM     11 CL   UNL     1       2.766   8.014  18.150  0.00  0.00    +0.000 Cl
BRANCH   7  12
ATOM     12  C   UNL     1       2.101   2.820  21.164  0.00  0.00    +0.000 C 
ATOM     13  F   UNL     1       3.242   2.300  21.694  0.00  0.00    +0.000 F 
ATOM     14  F   UNL     1       1.227   2.932  22.201  0.00  0.00    +0.000 F 
ATOM     15  F   UNL     1       1.594   1.853  20.350  0.00  0.00    +0.000 F 
ENDBRANCH   7  12
ENDBRANCH   3   5
BRANCH   2  16
ATOM     16  C   UNL     1       5.169   4.746  15.317  0.00  0.00    +0.000 C 
BRANCH  16  17
ATOM     17  S   UNL     1       6.786   3.982  15.656  0.00  0.00    +0.000 S 
BRANCH  17  18
ATOM     18  C   UNL     1       7.315   4.998  16.957  0.00  0.00    +0.000 A 
ATOM     19  N   UNL     1       7.695   4.516  18.095  0.00  0.00    +0.000 NA
ATOM     20  N   UNL     1       8.114   5.392  19.110  0.00  0.00    +0.000 NA
ATOM     21  C   UNL     1       8.105   6.664  18.867  0.00  0.00    +0.000 A 
ATOM     22  C   UNL     1       7.671   7.237  17.556  0.00  0.00    +0.000 A 
ATOM     23  O   UNL     1       7.676   8.445  17.380  0.00  0.00    +0.000 OA
ATOM     24  N   UNL     1       7.290   6.310  16.637  0.00  0.00    +0.000 N 
ATOM     25  H   UNL     1       6.965   6.612  15.732  0.00  0.00    +0.000 HD
ENDBRANCH  17  18
ENDBRANCH  16  17
ENDBRANCH   2  16
TORSDOF 5
ENDMDL
MODEL 4
REMARK VINA RESULT:      -7.6      0.986      1.602
REMARK  Name = 
REMARK  5 active torsions:
REMARK  status: ('A' for Active; 'I' for Inactive)
REMARK    1  A    between atoms: C_2  and  C_3
REMARK    2  A    between atoms: C_3  and  S_4
REMARK    3  A    between atoms: S_4  and  C_5
REMARK    4  A    between atoms: N_12  and  C_13
REMARK    5  A    between atoms: C_15  and  C_16
REMARK                            x       y       z     vdW  Elec       q    Type
REMARK                         _______ _______ _______ _____ _____    ______ ____
ROOT
ATOM      1  O   UNL     1       1.391   4.563  18.802  0.00  0.00    +0.000 OA
ATOM      2  C   UNL     1       2.414   4.681  19.475  0.00  0.00    +0.000 C 
ATOM      3  N   UNL     1       2.899   5.875  19.985  0.00  0.00    +0.000 N 
ATOM      4  H   UNL     1       3.886   5.907  20.239  0.00  0.00    +0.000 HD
ENDROOT
BRANCH   3   5
ATOM      5  C   UNL     1       2.270   7.143  19.875  0.00  0.00    +0.000 A 
ATOM      6  C   UNL     1       1.495   7.680  20.910  0.00  0.00    +0.000 A 
ATOM      7  C   UNL     1       0.776   8.876  20.744  0.00  0.00    +0.000 A 
ATOM      8  C   UNL     1       0.894   9.575  19.535  0.00  0.00    +0.000 A 
ATOM      9  C   UNL     1       1.720   9.091  18.518  0.00  0.00    +0.000 A 
ATOM     10  C   UNL     1       2.404   7.883  18.688  0.00  0.00    +0.000 A 
ATOM     11 CL   UNL     1       3.393   7.316  17.387  0.00  0.00    +0.000 Cl
BRANCH   7  12
ATOM     12  C   UNL     1      -0.144   9.373  21.833  0.00  0.00    +0.000 C 
ATOM     13  F   UNL     1      -0.967  10.384  21.441  0.00  0.00    +0.000 F 
ATOM     14  F   UNL     1      -0.959   8.395  22.315  0.00  0.00    +0.000 F 
ATOM     15  F   UNL     1       0.546   9.849  22.907  0.00  0.00    +0.000 F 
ENDBRANCH   7  12
ENDBRANCH   3   5
BRANCH   2  16
ATOM     16  C   UNL     1       3.274   3.470  19.803  0.00  0.00    +0.000 C 
BRANCH  16  17
ATOM     17  S   UNL     1       3.664   2.525  18.296  0.00  0.00    +0.000 S 
BRANCH  17  18
ATOM     18  C   UNL     1       4.801   3.610  17.566  0.00  0.00    +0.000 A 
ATOM     19  N   UNL     1       4.581   4.168  16.421  0.00  0.00    +0.000 NA
ATOM     20  N   UNL     1       5.541   5.041  15.882  0.00  0.00    +0.000 NA
ATOM     21  C   UNL     1       6.623   5.257  16.560  0.00  0.00    +0.000 A 
ATOM     22  C   UNL     1       6.892   4.622  17.887  0.00  0.00    +0.000 A 
ATOM     23  O   UNL     1       7.932   4.856  18.482  0.00  0.00    +0.000 OA
ATOM     24  N   UNL     1       5.902   3.800  18.325  0.00  0.00    +0.000 N 
ATOM     25  H   UNL     1       6.010   3.317  19.203  0.00  0.00    +0.000 HD
ENDBRANCH  17  18
ENDBRANCH  16  17
ENDBRANCH   2  16
TORSDOF 5
ENDMDL
MODEL 5
REMARK VINA RESULT:      -7.6      0.914      1.250
REMARK  Name = 
REMARK  5 active torsions:
REMARK  status: ('A' for Active; 'I' for Inactive)
REMARK    1  A    between atoms: C_2  and  C_3
REMARK    2  A    between atoms: C_3  and  S_4
REMARK    3  A    between atoms: S_4  and  C_5
REMARK    4  A    between atoms: N_12  and  C_13
REMARK    5  A    between atoms: C_15  and  C_16
REMARK                            x       y       z     vdW  Elec       q    Type
REMARK                         _______ _______ _______ _____ _____    ______ ____
ROOT
ATOM      1  O   UNL     1       1.124   4.808  20.288  0.00  0.00    +0.000 OA
ATOM      2  C   UNL     1       2.311   5.080  20.117  0.00  0.00    +0.000 C 
ATOM      3  N   UNL     1       2.822   6.359  19.963  0.00  0.00    +0.000 N 
ATOM      4  H   UNL     1       3.735   6.445  19.518  0.00  0.00    +0.000 HD
ENDROOT
BRANCH   3   5
ATOM      5  C   UNL     1       2.079   7.565  20.041  0.00  0.00    +0.000 A 
ATOM      6  C   UNL     1       1.453   7.978  21.223  0.00  0.00    +0.000 A 
ATOM      7  C   UNL     1       0.619   9.108  21.256  0.00  0.00    +0.000 A 
ATOM      8  C   UNL     1       0.466   9.872  20.091  0.00  0.00    +0.000 A 
ATOM      9  C   UNL     1       1.140   9.516  18.921  0.00  0.00    +0.000 A 
ATOM     10  C   UNL     1       1.943   8.371  18.896  0.00  0.00    +0.000 A 
ATOM     11 CL   UNL     1       2.735   7.962  17.414  0.00  0.00    +0.000 Cl
BRANCH   7  12
ATOM     12  C   UNL     1      -0.137   9.464  22.513  0.00  0.00    +0.000 C 
ATOM     13  F   UNL     1      -1.157   8.611  22.804  0.00  0.00    +0.000 F 
ATOM     14  F   UNL     1       0.661   9.480  23.616  0.00  0.00    +0.000 F 
ATOM     15  F   UNL     1      -0.698  10.703  22.439  0.00  0.00    +0.000 F 
ENDBRANCH   7  12
ENDBRANCH   3   5
BRANCH   2  16
ATOM     16  C   UNL     1       3.358   3.979  20.044  0.00  0.00    +0.000 C 
BRANCH  16  17
ATOM     17  S   UNL     1       3.427   3.259  18.373  0.00  0.00    +0.000 S 
BRANCH  17  18
ATOM     18  C   UNL     1       4.707   4.216  17.703  0.00  0.00    +0.000 A 
ATOM     19  N   UNL     1       4.494   5.098  16.782  0.00  0.00    +0.000 NA
ATOM     20  N   UNL     1       5.574   5.845  16.279  0.00  0.00    +0.000 NA
ATOM     21  C   UNL     1       6.754   5.620  16.764  0.00  0.00    +0.000 A 
ATOM     22  C   UNL     1       7.015   4.606  17.831  0.00  0.00    +0.000 A 
ATOM     23  O   UNL     1       8.149   4.430  18.249  0.00  0.00    +0.000 OA
ATOM     24  N   UNL     1       5.908   3.941  18.255  0.00  0.00    +0.000 N 
ATOM     25  H   UNL     1       5.997   3.226  18.960  0.00  0.00    +0.000 HD
ENDBRANCH  17  18
ENDBRANCH  16  17
ENDBRANCH   2  16
TORSDOF 5
ENDMDL
MODEL 6
REMARK VINA RESULT:      -7.6      2.548      3.118
REMARK  Name = 
REMARK  5 active torsions:
REMARK  status: ('A' for Active; 'I' for Inactive)
REMARK    1  A    between atoms: C_2  and  C_3
REMARK    2  A    between atoms: C_3  and  S_4
REMARK    3  A    between atoms: S_4  and  C_5
REMARK    4  A    between atoms: N_12  and  C_13
REMARK    5  A    between atoms: C_15  and  C_16
REMARK                            x       y       z     vdW  Elec       q    Type
REMARK                         _______ _______ _______ _____ _____    ______ ____
ROOT
ATOM      1  O   UNL     1       1.775   4.065  17.478  0.00  0.00    +0.000 OA
ATOM      2  C   UNL     1       2.960   4.325  17.679  0.00  0.00    +0.000 C 
ATOM      3  N   UNL     1       3.428   5.433  18.367  0.00  0.00    +0.000 N 
ATOM      4  H   UNL     1       4.393   5.713  18.199  0.00  0.00    +0.000 HD
ENDROOT
BRANCH   3   5
ATOM      5  C   UNL     1       2.626   6.412  19.009  0.00  0.00    +0.000 A 
ATOM      6  C   UNL     1       2.321   7.637  18.404  0.00  0.00    +0.000 A 
ATOM      7  C   UNL     1       1.632   8.646  19.097  0.00  0.00    +0.000 A 
ATOM      8  C   UNL     1       1.187   8.392  20.401  0.00  0.00    +0.000 A 
ATOM      9  C   UNL     1       1.419   7.149  20.995  0.00  0.00    +0.000 A 
ATOM     10  C   UNL     1       2.133   6.165  20.303  0.00  0.00    +0.000 A 
ATOM     11 CL   UNL     1       2.416   4.654  21.095  0.00  0.00    +0.000 Cl
BRANCH   7  12
ATOM     12  C   UNL     1       1.418  10.000  18.462  0.00  0.00    +0.000 C 
ATOM     13  F   UNL     1       1.362  11.025  19.355  0.00  0.00    +0.000 F 
ATOM     14  F   UNL     1       2.403  10.326  17.582  0.00  0.00    +0.000 F 
ATOM     15  F   UNL     1       0.253  10.055  17.758  0.00  0.00    +0.000 F 
ENDBRANCH   7  12
ENDBRANCH   3   5
BRANCH   2  16
ATOM     16  C   UNL     1       4.057   3.414  17.148  0.00  0.00    +0.000 C 
BRANCH  16  17
ATOM     17  S   UNL     1       5.131   4.307  15.979  0.00  0.00    +0.000 S 
BRANCH  17  18
ATOM     18  C   UNL     1       6.204   5.072  17.105  0.00  0.00    +0.000 A 
ATOM     19  N   UNL     1       6.588   4.489  18.192  0.00  0.00    +0.000 NA
ATOM     20  N   UNL     1       7.461   5.161  19.064  0.00  0.00    +0.000 NA
ATOM     21  C   UNL     1       7.854   6.352  18.742  0.00  0.00    +0.000 A 
ATOM     22  C   UNL     1       7.421   7.040  17.487  0.00  0.00    +0.000 A 
ATOM     23  O   UNL     1       7.816   8.166  17.233  0.00  0.00    +0.000 OA
ATOM     24  N   UNL     1       6.582   6.306  16.707  0.00  0.00    +0.000 N 
ATOM     25  H   UNL     1       6.227   6.701  15.850  0.00  0.00    +0.000 HD
ENDBRANCH  17  18
ENDBRANCH  16  17
ENDBRANCH   2  16
TORSDOF 5
ENDMDL
MODEL 7
REMARK VINA RESULT:      -7.5      1.042      1.579
REMARK  Name = 
REMARK  5 active torsions:
REMARK  status: ('A' for Active; 'I' for Inactive)
REMARK    1  A    between atoms: C_2  and  C_3
REMARK    2  A    between atoms: C_3  and  S_4
REMARK    3  A    between atoms: S_4  and  C_5
REMARK    4  A    between atoms: N_12  and  C_13
REMARK    5  A    between atoms: C_15  and  C_16
REMARK                            x       y       z     vdW  Elec       q    Type
REMARK                         _______ _______ _______ _____ _____    ______ ____
ROOT
ATOM      1  O   UNL     1       1.067   4.927  20.552  0.00  0.00    +0.000 OA
ATOM      2  C   UNL     1       2.229   5.194  20.253  0.00  0.00    +0.000 C 
ATOM      3  N   UNL     1       2.717   6.468  20.007  0.00  0.00    +0.000 N 
ATOM      4  H   UNL     1       3.579   6.541  19.469  0.00  0.00    +0.000 HD
ENDROOT
BRANCH   3   5
ATOM      5  C   UNL     1       1.982   7.676  20.123  0.00  0.00    +0.000 A 
ATOM      6  C   UNL     1       1.374   8.065  21.323  0.00  0.00    +0.000 A 
ATOM      7  C   UNL     1       0.546   9.197  21.394  0.00  0.00    +0.000 A 
ATOM      8  C   UNL     1       0.381   9.988  20.249  0.00  0.00    +0.000 A 
ATOM      9  C   UNL     1       1.037   9.657  19.062  0.00  0.00    +0.000 A 
ATOM     10  C   UNL     1       1.834   8.509  19.000  0.00  0.00    +0.000 A 
ATOM     11 CL   UNL     1       2.603   8.130  17.498  0.00  0.00    +0.000 Cl
BRANCH   7  12
ATOM     12  C   UNL     1      -0.190   9.528  22.670  0.00  0.00    +0.000 C 
ATOM     13  F   UNL     1       0.588   9.473  23.785  0.00  0.00    +0.000 F 
ATOM     14  F   UNL     1      -0.729  10.778  22.653  0.00  0.00    +0.000 F 
ATOM     15  F   UNL     1      -1.228   8.676  22.897  0.00  0.00    +0.000 F 
ENDBRANCH   7  12
ENDBRANCH   3   5
BRANCH   2  16
ATOM     16  C   UNL     1       3.268   4.092  20.108  0.00  0.00    +0.000 C 
BRANCH  16  17
ATOM     17  S   UNL     1       3.461   3.610  18.363  0.00  0.00    +0.000 S 
BRANCH  17  18
ATOM     18  C   UNL     1       5.084   4.155  18.094  0.00  0.00    +0.000 A 
ATOM     19  N   UNL     1       5.628   4.141  16.921  0.00  0.00    +0.000 NA
ATOM     20  N   UNL     1       6.948   4.599  16.767  0.00  0.00    +0.000 NA
ATOM     21  C   UNL     1       7.577   5.024  17.817  0.00  0.00    +0.000 A 
ATOM     22  C   UNL     1       6.961   5.049  19.179  0.00  0.00    +0.000 A 
ATOM     23  O   UNL     1       7.600   5.455  20.137  0.00  0.00    +0.000 OA
ATOM     24  N   UNL     1       5.680   4.593  19.224  0.00  0.00    +0.000 N 
ATOM     25  H   UNL     1       5.196   4.559  20.107  0.00  0.00    +0.000 HD
ENDBRANCH  17  18
ENDBRANCH  16  17
ENDBRANCH   2  16
TORSDOF 5
ENDMDL
MODEL 8
REMARK VINA RESULT:      -7.5      1.164      1.586
REMARK  Name = 
REMARK  5 active torsions:
REMARK  status: ('A' for Active; 'I' for Inactive)
REMARK    1  A    between atoms: C_2  and  C_3
REMARK    2  A    between atoms: C_3  and  S_4
REMARK    3  A    between atoms: S_4  and  C_5
REMARK    4  A    between atoms: N_12  and  C_13
REMARK    5  A    between atoms: C_15  and  C_16
REMARK                            x       y       z     vdW  Elec       q    Type
REMARK                         _______ _______ _______ _____ _____    ______ ____
ROOT
ATOM      1  O   UNL     1       1.347   4.621  19.175  0.00  0.00    +0.000 OA
ATOM      2  C   UNL     1       2.403   4.828  19.770  0.00  0.00    +0.000 C 
ATOM      3  N   UNL     1       2.959   6.077  19.997  0.00  0.00    +0.000 N 
ATOM      4  H   UNL     1       3.957   6.113  20.202  0.00  0.00    +0.000 HD
ENDROOT
BRANCH   3   5
ATOM      5  C   UNL     1       2.377   7.322  19.645  0.00  0.00    +0.000 A 
ATOM      6  C   UNL     1       1.544   8.028  20.521  0.00  0.00    +0.000 A 
ATOM      7  C   UNL     1       0.875   9.195  20.117  0.00  0.00    +0.000 A 
ATOM      8  C   UNL     1       1.101   9.695  18.827  0.00  0.00    +0.000 A 
ATOM      9  C   UNL     1       1.985   9.044  17.964  0.00  0.00    +0.000 A 
ATOM     10  C   UNL     1       2.620   7.866  18.371  0.00  0.00    +0.000 A 
ATOM     11 CL   UNL     1       3.685   7.085  17.254  0.00  0.00    +0.000 Cl
BRANCH   7  12
ATOM     12  C   UNL     1      -0.108   9.872  21.041  0.00  0.00    +0.000 C 
ATOM     13  F   UNL     1      -0.734   9.021  21.900  0.00  0.00    +0.000 F 
ATOM     14  F   UNL     1       0.476  10.823  21.820  0.00  0.00    +0.000 F 
ATOM     15  F   UNL     1      -1.101  10.507  20.357  0.00  0.00    +0.000 F 
ENDBRANCH   7  12
ENDBRANCH   3   5
BRANCH   2  16
ATOM     16  C   UNL     1       3.228   3.672  20.315  0.00  0.00    +0.000 C 
BRANCH  16  17
ATOM     17  S   UNL     1       3.569   2.448  19.011  0.00  0.00    +0.000 S 
BRANCH  17  18
ATOM     18  C   UNL     1       4.661   3.372  18.032  0.00  0.00    +0.000 A 
ATOM     19  N   UNL     1       4.423   3.621  16.786  0.00  0.00    +0.000 NA
ATOM     20  N   UNL     1       5.347   4.378  16.045  0.00  0.00    +0.000 NA
ATOM     21  C   UNL     1       6.413   4.803  16.644  0.00  0.00    +0.000 A 
ATOM     22  C   UNL     1       6.702   4.526  18.085  0.00  0.00    +0.000 A 
ATOM     23  O   UNL     1       7.726   4.945  18.600  0.00  0.00    +0.000 OA
ATOM     24  N   UNL     1       5.747   3.792  18.717  0.00  0.00    +0.000 N 
ATOM     25  H   UNL     1       5.871   3.544  19.686  0.00  0.00    +0.000 HD
ENDBRANCH  17  18
ENDBRANCH  16  17
ENDBRANCH   2  16
TORSDOF 5
ENDMDL
MODEL 9
REMARK VINA RESULT:      -7.4      1.376      1.747
REMARK  Name = 
REMARK  5 active torsions:
REMARK  status: ('A' for Active; 'I' for Inactive)
REMARK    1  A    between atoms: C_2  and  C_3
REMARK    2  A    between atoms: C_3  and  S_4
REMARK    3  A    between atoms: S_4  and  C_5
REMARK    4  A    between atoms: N_12  and  C_13
REMARK    5  A    between atoms: C_15  and  C_16
REMARK                            x       y       z     vdW  Elec       q    Type
REMARK                         _______ _______ _______ _____ _____    ______ ____
ROOT
ATOM      1  O   UNL     1       1.540   4.938  18.001  0.00  0.00    +0.000 OA
ATOM      2  C   UNL     1       2.514   4.944  18.752  0.00  0.00    +0.000 C 
ATOM      3  N   UNL     1       2.928   6.026  19.513  0.00  0.00    +0.000 N 
ATOM      4  H   UNL     1       3.895   6.028  19.834  0.00  0.00    +0.000 HD
ENDROOT
BRANCH   3   5
ATOM      5  C   UNL     1       2.267   7.278  19.606  0.00  0.00    +0.000 A 
ATOM      6  C   UNL     1       1.545   7.655  20.745  0.00  0.00    +0.000 A 
ATOM      7  C   UNL     1       0.792   8.841  20.777  0.00  0.00    +0.000 A 
ATOM      8  C   UNL     1       0.821   9.693  19.665  0.00  0.00    +0.000 A 
ATOM      9  C   UNL     1       1.594   9.369  18.548  0.00  0.00    +0.000 A 
ATOM     10  C   UNL     1       2.313   8.170  18.519  0.00  0.00    +0.000 A 
ATOM     11 CL   UNL     1       3.232   7.804  17.100  0.00  0.00    +0.000 Cl
BRANCH   7  12
ATOM     12  C   UNL     1      -0.071   9.166  21.973  0.00  0.00    +0.000 C 
ATOM     13  F   UNL     1       0.629   9.334  23.128  0.00  0.00    +0.000 F 
ATOM     14  F   UNL     1      -0.789  10.310  21.804  0.00  0.00    +0.000 F 
ATOM     15  F   UNL     1      -0.982   8.186  22.228  0.00  0.00    +0.000 F 
ENDBRANCH   7  12
ENDBRANCH   3   5
BRANCH   2  16
ATOM     16  C   UNL     1       3.391   3.709  18.899  0.00  0.00    +0.000 C 
BRANCH  16  17
ATOM     17  S   UNL     1       4.356   3.416  17.382  0.00  0.00    +0.000 S 
BRANCH  17  18
ATOM     18  C   UNL     1       5.593   4.611  17.596  0.00  0.00    +0.000 A 
ATOM     19  N   UNL     1       5.919   5.438  16.658  0.00  0.00    +0.000 NA
ATOM     20  N   UNL     1       6.929   6.385  16.893  0.00  0.00    +0.000 NA
ATOM     21  C   UNL     1       7.503   6.396  18.054  0.00  0.00    +0.000 A 
ATOM     22  C   UNL     1       7.136   5.447  19.151  0.00  0.00    +0.000 A 
ATOM     23  O   UNL     1       7.713   5.496  20.226  0.00  0.00    +0.000 OA
ATOM     24  N   UNL     1       6.145   4.574  18.829  0.00  0.00    +0.000 N 
ATOM     25  H   UNL     1       5.848   3.888  19.504  0.00  0.00    +0.000 HD
ENDBRANCH  17  18
ENDBRANCH  16  17
ENDBRANCH   2  16
TORSDOF 5
ENDMDL
