MODEL 1
REMARK VINA RESULT:      -7.8      0.000      0.000
REMARK  Name = 
REMARK  11 active torsions:
REMARK  status: ('A' for Active; 'I' for Inactive)
REMARK    1  A    between atoms: C_1  and  O_2
REMARK    2  A    between atoms: O_2  and  C_3
REMARK    3  A    between atoms: C_5  and  C_6
REMARK    4  A    between atoms: C_9  and  C_10
REMARK    5  A    between atoms: N_12  and  S_13
REMARK    6  A    between atoms: S_13  and  C_14
REMARK    7  A    between atoms: C_25  and  C_26
REMARK    8  A    between atoms: C_26  and  C_27
REMARK    9  A    between atoms: C_26  and  C_28
REMARK   10  A    between atoms: C_26  and  C_29
REMARK   11  A    between atoms: C_29  and  O_30
REMARK                            x       y       z     vdW  Elec       q    Type
REMARK                         _______ _______ _______ _____ _____    ______ ____
ROOT
ATOM      1  C   UNL     1       0.971   9.549  19.652  0.00  0.00    +0.000 A 
ATOM      2  C   UNL     1       1.184  10.797  19.014  0.00  0.00    +0.000 A 
ATOM      3  C   UNL     1       0.578  11.978  19.473  0.00  0.00    +0.000 A 
ATOM      4  C   UNL     1       0.825  13.372  19.249  0.00  0.00    +0.000 A 
ATOM      5  C   UNL     1      -0.111  14.047  20.018  0.00  0.00    +0.000 A 
ATOM      6  N   UNL     1      -0.888  13.126  20.679  0.00  0.00    +0.000 N 
ATOM      7  C   UNL     1      -0.427  11.861  20.423  0.00  0.00    +0.000 A 
ATOM      8  C   UNL     1      -0.796  10.632  20.978  0.00  0.00    +0.000 A 
ATOM      9  C   UNL     1      -0.043   9.495  20.629  0.00  0.00    +0.000 A 
ATOM     10 CL   UNL     1      -0.414   8.081  21.563  0.00  0.00    +0.000 Cl
ATOM     11  H   UNL     1      -1.624  13.347  21.331  0.00  0.00    +0.000 HD
ENDROOT
BRANCH   1  14
ATOM     12  C   UNL     1       2.855   6.203  19.577  0.00  0.00    +0.000 A 
ATOM     13  C   UNL     1       2.106   7.305  20.040  0.00  0.00    +0.000 A 
ATOM     14  C   UNL     1       1.890   8.446  19.266  0.00  0.00    +0.000 A 
ATOM     15  C   UNL     1       2.542   8.485  18.026  0.00  0.00    +0.000 A 
ATOM     16  C   UNL     1       3.313   7.422  17.566  0.00  0.00    +0.000 A 
ATOM     17  C   UNL     1       3.494   6.247  18.321  0.00  0.00    +0.000 A 
BRANCH  17  18
ATOM     18  C   UNL     1       4.308   5.108  17.661  0.00  0.00    +0.000 C 
ATOM     19  C   UNL     1       3.321   3.955  17.346  0.00  0.00    +0.000 C 
ATOM     20  C   UNL     1       4.922   5.614  16.325  0.00  0.00    +0.000 C 
BRANCH  18  21
ATOM     21  C   UNL     1       5.475   4.536  18.510  0.00  0.00    +0.000 C 
BRANCH  21  22
ATOM     22  O   UNL     1       5.142   3.290  19.131  0.00  0.00    +0.000 OA
ATOM     23  H   UNL     1       5.054   3.463  20.084  0.00  0.00    +0.000 HD
ENDBRANCH  21  22
ENDBRANCH  18  21
ENDBRANCH  17  18
BRANCH  12  25
ATOM     24  C   UNL     1       1.758   4.478  20.797  0.00  0.00    +0.000 C 
ATOM     25  O   UNL     1       2.973   5.079  20.347  0.00  0.00    +0.000 OA
ENDBRANCH  12  25
ENDBRANCH   1  14
BRANCH   4  26
ATOM     26  C   UNL     1       1.922  13.936  18.468  0.00  0.00    +0.000 C 
ATOM     27  O   UNL     1       2.551  13.308  17.624  0.00  0.00    +0.000 OA
ATOM     28  N   UNL     1       2.287  15.228  18.855  0.00  0.00    +0.000 N 
ATOM     29  H   UNL     1       1.750  15.739  19.540  0.00  0.00    +0.000 HD
BRANCH  28  30
ATOM     30  S   UNL     1       3.502  16.130  18.198  0.00  0.00    +0.000 S 
ATOM     31  C   UNL     1       4.991  15.241  18.620  0.00  0.00    +0.000 C 
ATOM     32  O   UNL     1       3.345  16.171  16.764  0.00  0.00    +0.000 OA
ATOM     33  O   UNL     1       3.498  17.353  18.976  0.00  0.00    +0.000 OA
ENDBRANCH  28  30
ENDBRANCH   4  26
TORSDOF 7
ENDMDL
MODEL 2
REMARK VINA RESULT:      -7.4      2.359      3.465
REMARK  Name = 
REMARK  11 active torsions:
REMARK  status: ('A' for Active; 'I' for Inactive)
REMARK    1  A    between atoms: C_1  and  O_2
REMARK    2  A    between atoms: O_2  and  C_3
REMARK    3  A    between atoms: C_5  and  C_6
REMARK    4  A    between atoms: C_9  and  C_10
REMARK    5  A    between atoms: N_12  and  S_13
REMARK    6  A    between atoms: S_13  and  C_14
REMARK    7  A    between atoms: C_25  and  C_26
REMARK    8  A    between atoms: C_26  and  C_27
REMARK    9  A    between atoms: C_26  and  C_28
REMARK   10  A    between atoms: C_26  and  C_29
REMARK   11  A    between atoms: C_29  and  O_30
REMARK                            x       y       z     vdW  Elec       q    Type
REMARK                         _______ _______ _______ _____ _____    ______ ____
ROOT
ATOM      1  C   UNL     1       2.243   7.370  19.212  0.00  0.00    +0.000 A 
ATOM      2  C   UNL     1       1.881   8.714  18.945  0.00  0.00    +0.000 A 
ATOM      3  C   UNL     1       1.207   9.503  19.892  0.00  0.00    +0.000 A 
ATOM      4  C   UNL     1       0.991  10.912  20.036  0.00  0.00    +0.000 A 
ATOM      5  C   UNL     1       0.263  11.062  21.207  0.00  0.00    +0.000 A 
ATOM      6  N   UNL     1       0.044   9.821  21.755  0.00  0.00    +0.000 N 
ATOM      7  C   UNL     1       0.686   8.865  21.009  0.00  0.00    +0.000 A 
ATOM      8  C   UNL     1       0.872   7.501  21.251  0.00  0.00    +0.000 A 
ATOM      9  C   UNL     1       1.707   6.782  20.375  0.00  0.00    +0.000 A 
ATOM     10 CL   UNL     1       2.078   5.172  20.906  0.00  0.00    +0.000 Cl
ATOM     11  H   UNL     1      -0.431   9.645  22.626  0.00  0.00    +0.000 HD
ENDROOT
BRANCH   1  14
ATOM     12  C   UNL     1       5.302   6.736  16.978  0.00  0.00    +0.000 A 
ATOM     13  C   UNL     1       4.321   7.401  17.744  0.00  0.00    +0.000 A 
ATOM     14  C   UNL     1       3.204   6.746  18.265  0.00  0.00    +0.000 A 
ATOM     15  C   UNL     1       3.053   5.399  17.908  0.00  0.00    +0.000 A 
ATOM     16  C   UNL     1       3.994   4.735  17.126  0.00  0.00    +0.000 A 
ATOM     17  C   UNL     1       5.148   5.377  16.637  0.00  0.00    +0.000 A 
BRANCH  17  18
ATOM     18  C   UNL     1       6.154   4.506  15.847  0.00  0.00    +0.000 C 
ATOM     19  C   UNL     1       7.419   4.342  16.729  0.00  0.00    +0.000 C 
ATOM     20  C   UNL     1       5.539   3.100  15.596  0.00  0.00    +0.000 C 
BRANCH  18  21
ATOM     21  C   UNL     1       6.590   5.066  14.466  0.00  0.00    +0.000 C 
BRANCH  21  22
ATOM     22  O   UNL     1       7.909   5.621  14.491  0.00  0.00    +0.000 OA
ATOM     23  H   UNL     1       7.870   6.416  15.049  0.00  0.00    +0.000 HD
ENDBRANCH  21  22
ENDBRANCH  18  21
ENDBRANCH  17  18
BRANCH  12  25
ATOM     24  C   UNL     1       7.354   7.796  17.558  0.00  0.00    +0.000 C 
ATOM     25  O   UNL     1       6.415   7.409  16.554  0.00  0.00    +0.000 OA
ENDBRANCH  12  25
ENDBRANCH   1  14
BRANCH   4  26
ATOM     26  C   UNL     1       1.542  11.959  19.180  0.00  0.00    +0.000 C 
ATOM     27  O   UNL     1       1.757  11.816  17.983  0.00  0.00    +0.000 OA
ATOM     28  N   UNL     1       1.931  13.109  19.872  0.00  0.00    +0.000 N 
ATOM     29  H   UNL     1       1.733  13.219  20.855  0.00  0.00    +0.000 HD
BRANCH  28  30
ATOM     30  S   UNL     1       2.614  14.455  19.207  0.00  0.00    +0.000 S 
ATOM     31  C   UNL     1       3.112  15.438  20.611  0.00  0.00    +0.000 C 
ATOM     32  O   UNL     1       3.776  14.073  18.440  0.00  0.00    +0.000 OA
ATOM     33  O   UNL     1       1.505  15.142  18.574  0.00  0.00    +0.000 OA
ENDBRANCH  28  30
ENDBRANCH   4  26
TORSDOF 7
ENDMDL
MODEL 3
REMARK VINA RESULT:      -7.3      2.083      3.072
REMARK  Name = 
REMARK  11 active torsions:
REMARK  status: ('A' for Active; 'I' for Inactive)
REMARK    1  A    between atoms: C_1  and  O_2
REMARK    2  A    between atoms: O_2  and  C_3
REMARK    3  A    between atoms: C_5  and  C_6
REMARK    4  A    between atoms: C_9  and  C_10
REMARK    5  A    between atoms: N_12  and  S_13
REMARK    6  A    between atoms: S_13  and  C_14
REMARK    7  A    between atoms: C_25  and  C_26
REMARK    8  A    between atoms: C_26  and  C_27
REMARK    9  A    between atoms: C_26  and  C_28
REMARK   10  A    between atoms: C_26  and  C_29
REMARK   11  A    between atoms: C_29  and  O_30
REMARK                            x       y       z     vdW  Elec       q    Type
REMARK                         _______ _______ _______ _____ _____    ______ ____
ROOT
ATOM      1  C   UNL     1       2.163   7.540  19.214  0.00  0.00    +0.000 A 
ATOM      2  C   UNL     1       1.849   8.891  18.919  0.00  0.00    +0.000 A 
ATOM      3  C   UNL     1       1.195   9.720  19.846  0.00  0.00    +0.000 A 
ATOM      4  C   UNL     1       1.025  11.138  19.961  0.00  0.00    +0.000 A 
ATOM      5  C   UNL     1       0.295  11.335  21.124  0.00  0.00    +0.000 A 
ATOM      6  N   UNL     1       0.031  10.112  21.693  0.00  0.00    +0.000 N 
ATOM      7  C   UNL     1       0.645   9.122  20.971  0.00  0.00    +0.000 A 
ATOM      8  C   UNL     1       0.783   7.757  21.241  0.00  0.00    +0.000 A 
ATOM      9  C   UNL     1       1.600   6.994  20.385  0.00  0.00    +0.000 A 
ATOM     10 CL   UNL     1       1.913   5.383  20.950  0.00  0.00    +0.000 Cl
ATOM     11  H   UNL     1      -0.456   9.969  22.564  0.00  0.00    +0.000 HD
ENDROOT
BRANCH   1  14
ATOM     12  C   UNL     1       5.208   6.767  17.005  0.00  0.00    +0.000 A 
ATOM     13  C   UNL     1       4.243   7.477  17.751  0.00  0.00    +0.000 A 
ATOM     14  C   UNL     1       3.110   6.866  18.288  0.00  0.00    +0.000 A 
ATOM     15  C   UNL     1       2.925   5.514  17.967  0.00  0.00    +0.000 A 
ATOM     16  C   UNL     1       3.850   4.805  17.206  0.00  0.00    +0.000 A 
ATOM     17  C   UNL     1       5.020   5.404  16.702  0.00  0.00    +0.000 A 
BRANCH  17  18
ATOM     18  C   UNL     1       6.005   4.485  15.938  0.00  0.00    +0.000 C 
ATOM     19  C   UNL     1       5.386   3.064  15.910  0.00  0.00    +0.000 C 
ATOM     20  C   UNL     1       6.156   4.989  14.475  0.00  0.00    +0.000 C 
BRANCH  18  21
ATOM     21  C   UNL     1       7.434   4.385  16.537  0.00  0.00    +0.000 C 
BRANCH  21  22
ATOM     22  O   UNL     1       7.422   4.186  17.954  0.00  0.00    +0.000 OA
ATOM     23  H   UNL     1       8.221   3.678  18.174  0.00  0.00    +0.000 HD
ENDBRANCH  21  22
ENDBRANCH  18  21
ENDBRANCH  17  18
BRANCH  12  25
ATOM     24  C   UNL     1       7.288   7.787  17.560  0.00  0.00    +0.000 C 
ATOM     25  O   UNL     1       6.339   7.400  16.565  0.00  0.00    +0.000 OA
ENDBRANCH  12  25
ENDBRANCH   1  14
BRANCH   4  26
ATOM     26  C   UNL     1       1.618  12.148  19.090  0.00  0.00    +0.000 C 
ATOM     27  O   UNL     1       1.756  12.009  17.880  0.00  0.00    +0.000 OA
ATOM     28  N   UNL     1       2.140  13.250  19.773  0.00  0.00    +0.000 N 
ATOM     29  H   UNL     1       2.005  13.360  20.767  0.00  0.00    +0.000 HD
BRANCH  28  30
ATOM     30  S   UNL     1       2.899  14.545  19.089  0.00  0.00    +0.000 S 
ATOM     31  C   UNL     1       3.502  15.489  20.478  0.00  0.00    +0.000 C 
ATOM     32  O   UNL     1       4.010  14.081  18.292  0.00  0.00    +0.000 OA
ATOM     33  O   UNL     1       1.825  15.309  18.485  0.00  0.00    +0.000 OA
ENDBRANCH  28  30
ENDBRANCH   4  26
TORSDOF 7
ENDMDL
MODEL 4
REMARK VINA RESULT:      -7.1      0.960      1.426
REMARK  Name = 
REMARK  11 active torsions:
REMARK  status: ('A' for Active; 'I' for Inactive)
REMARK    1  A    between atoms: C_1  and  O_2
REMARK    2  A    between atoms: O_2  and  C_3
REMARK    3  A    between atoms: C_5  and  C_6
REMARK    4  A    between atoms: C_9  and  C_10
REMARK    5  A    between atoms: N_12  and  S_13
REMARK    6  A    between atoms: S_13  and  C_14
REMARK    7  A    between atoms: C_25  and  C_26
REMARK    8  A    between atoms: C_26  and  C_27
REMARK    9  A    between atoms: C_26  and  C_28
REMARK   10  A    between atoms: C_26  and  C_29
REMARK   11  A    between atoms: C_29  and  O_30
REMARK                            x       y       z     vdW  Elec       q    Type
REMARK                         _______ _______ _______ _____ _____    ______ ____
ROOT
ATOM      1  C   UNL     1       0.886   9.703  19.788  0.00  0.00    +0.000 A 
ATOM      2  C   UNL     1       1.137  10.939  19.141  0.00  0.00    +0.000 A 
ATOM      3  C   UNL     1       0.584  12.145  19.605  0.00  0.00    +0.000 A 
ATOM      4  C   UNL     1       0.881  13.527  19.370  0.00  0.00    +0.000 A 
ATOM      5  C   UNL     1      -0.016  14.241  20.151  0.00  0.00    +0.000 A 
ATOM      6  N   UNL     1      -0.817  13.354  20.828  0.00  0.00    +0.000 N 
ATOM      7  C   UNL     1      -0.409  12.070  20.571  0.00  0.00    +0.000 A 
ATOM      8  C   UNL     1      -0.817  10.859  21.138  0.00  0.00    +0.000 A 
ATOM      9  C   UNL     1      -0.114   9.692  20.782  0.00  0.00    +0.000 A 
ATOM     10 CL   UNL     1      -0.525   8.297  21.728  0.00  0.00    +0.000 Cl
ATOM     11  H   UNL     1      -1.533  13.606  21.491  0.00  0.00    +0.000 HD
ENDROOT
BRANCH   1  14
ATOM     12  C   UNL     1       2.648   6.292  19.706  0.00  0.00    +0.000 A 
ATOM     13  C   UNL     1       1.950   7.424  20.175  0.00  0.00    +0.000 A 
ATOM     14  C   UNL     1       1.755   8.564  19.393  0.00  0.00    +0.000 A 
ATOM     15  C   UNL     1       2.376   8.566  18.137  0.00  0.00    +0.000 A 
ATOM     16  C   UNL     1       3.096   7.470  17.670  0.00  0.00    +0.000 A 
ATOM     17  C   UNL     1       3.255   6.299  18.434  0.00  0.00    +0.000 A 
BRANCH  17  18
ATOM     18  C   UNL     1       4.012   5.124  17.768  0.00  0.00    +0.000 C 
ATOM     19  C   UNL     1       4.656   5.666  16.466  0.00  0.00    +0.000 C 
ATOM     20  C   UNL     1       5.143   4.631  18.713  0.00  0.00    +0.000 C 
BRANCH  18  21
ATOM     21  C   UNL     1       3.147   3.886  17.407  0.00  0.00    +0.000 C 
BRANCH  21  22
ATOM     22  O   UNL     1       1.761   4.210  17.254  0.00  0.00    +0.000 OA
ATOM     23  H   UNL     1       1.406   3.618  16.570  0.00  0.00    +0.000 HD
ENDBRANCH  21  22
ENDBRANCH  18  21
ENDBRANCH  17  18
BRANCH  12  25
ATOM     24  C   UNL     1       1.532   4.469  20.757  0.00  0.00    +0.000 C 
ATOM     25  O   UNL     1       2.746   5.173  20.487  0.00  0.00    +0.000 OA
ENDBRANCH  12  25
ENDBRANCH   1  14
BRANCH   4  26
ATOM     26  C   UNL     1       1.987  14.045  18.569  0.00  0.00    +0.000 C 
ATOM     27  O   UNL     1       2.545  13.407  17.685  0.00  0.00    +0.000 OA
ATOM     28  N   UNL     1       2.449  15.297  18.985  0.00  0.00    +0.000 N 
ATOM     29  H   UNL     1       1.969  15.818  19.703  0.00  0.00    +0.000 HD
BRANCH  28  30
ATOM     30  S   UNL     1       3.698  16.140  18.314  0.00  0.00    +0.000 S 
ATOM     31  C   UNL     1       3.022  16.800  16.799  0.00  0.00    +0.000 C 
ATOM     32  O   UNL     1       4.073  17.220  19.194  0.00  0.00    +0.000 OA
ATOM     33  O   UNL     1       4.659  15.120  17.945  0.00  0.00    +0.000 OA
ENDBRANCH  28  30
ENDBRANCH   4  26
TORSDOF 7
ENDMDL
MODEL 5
REMARK VINA RESULT:      -7.1      0.709      1.051
REMARK  Name = 
REMARK  11 active torsions:
REMARK  status: ('A' for Active; 'I' for Inactive)
REMARK    1  A    between atoms: C_1  and  O_2
REMARK    2  A    between atoms: O_2  and  C_3
REMARK    3  A    between atoms: C_5  and  C_6
REMARK    4  A    between atoms: C_9  and  C_10
REMARK    5  A    between atoms: N_12  and  S_13
REMARK    6  A    between atoms: S_13  and  C_14
REMARK    7  A    between atoms: C_25  and  C_26
REMARK    8  A    between atoms: C_26  and  C_27
REMARK    9  A    between atoms: C_26  and  C_28
REMARK   10  A    between atoms: C_26  and  C_29
REMARK   11  A    between atoms: C_29  and  O_30
REMARK                            x       y       z     vdW  Elec       q    Type
REMARK                         _______ _______ _______ _____ _____    ______ ____
ROOT
ATOM      1  C   UNL     1       0.911   9.608  19.731  0.00  0.00    +0.000 A 
ATOM      2  C   UNL     1       1.145  10.853  19.094  0.00  0.00    +0.000 A 
ATOM      3  C   UNL     1       0.567  12.045  19.561  0.00  0.00    +0.000 A 
ATOM      4  C   UNL     1       0.841  13.434  19.338  0.00  0.00    +0.000 A 
ATOM      5  C   UNL     1      -0.076  14.126  20.115  0.00  0.00    +0.000 A 
ATOM      6  N   UNL     1      -0.867  13.220  20.779  0.00  0.00    +0.000 N 
ATOM      7  C   UNL     1      -0.433  11.946  20.517  0.00  0.00    +0.000 A 
ATOM      8  C   UNL     1      -0.824  10.725  21.072  0.00  0.00    +0.000 A 
ATOM      9  C   UNL     1      -0.097   9.573  20.715  0.00  0.00    +0.000 A 
ATOM     10 CL   UNL     1      -0.491   8.164  21.649  0.00  0.00    +0.000 Cl
ATOM     11  H   UNL     1      -1.594  13.455  21.437  0.00  0.00    +0.000 HD
ENDROOT
BRANCH   1  14
ATOM     12  C   UNL     1       2.717   6.220  19.628  0.00  0.00    +0.000 A 
ATOM     13  C   UNL     1       1.992   7.335  20.100  0.00  0.00    +0.000 A 
ATOM     14  C   UNL     1       1.804   8.488  19.336  0.00  0.00    +0.000 A 
ATOM     15  C   UNL     1       2.458   8.522  18.097  0.00  0.00    +0.000 A 
ATOM     16  C   UNL     1       3.204   7.445  17.628  0.00  0.00    +0.000 A 
ATOM     17  C   UNL     1       3.357   6.260  18.373  0.00  0.00    +0.000 A 
BRANCH  17  18
ATOM     18  C   UNL     1       4.145   5.108  17.703  0.00  0.00    +0.000 C 
ATOM     19  C   UNL     1       5.168   4.581  18.742  0.00  0.00    +0.000 C 
ATOM     20  C   UNL     1       3.169   3.954  17.338  0.00  0.00    +0.000 C 
BRANCH  18  21
ATOM     21  C   UNL     1       4.914   5.483  16.407  0.00  0.00    +0.000 C 
BRANCH  21  22
ATOM     22  O   UNL     1       6.243   5.942  16.671  0.00  0.00    +0.000 OA
ATOM     23  H   UNL     1       6.705   5.975  15.816  0.00  0.00    +0.000 HD
ENDBRANCH  21  22
ENDBRANCH  18  21
ENDBRANCH  17  18
BRANCH  12  25
ATOM     24  C   UNL     1       1.582   4.424  20.704  0.00  0.00    +0.000 C 
ATOM     25  O   UNL     1       2.808   5.087  20.388  0.00  0.00    +0.000 OA
ENDBRANCH  12  25
ENDBRANCH   1  14
BRANCH   4  26
ATOM     26  C   UNL     1       1.944  13.977  18.550  0.00  0.00    +0.000 C 
ATOM     27  O   UNL     1       2.628  13.309  17.784  0.00  0.00    +0.000 OA
ATOM     28  N   UNL     1       2.245  15.311  18.842  0.00  0.00    +0.000 N 
ATOM     29  H   UNL     1       1.664  15.854  19.463  0.00  0.00    +0.000 HD
BRANCH  28  30
ATOM     30  S   UNL     1       3.448  16.206  18.153  0.00  0.00    +0.000 S 
ATOM     31  C   UNL     1       4.953  15.444  18.735  0.00  0.00    +0.000 C 
ATOM     32  O   UNL     1       3.365  16.093  16.717  0.00  0.00    +0.000 OA
ATOM     33  O   UNL     1       3.344  17.499  18.800  0.00  0.00    +0.000 OA
ENDBRANCH  28  30
ENDBRANCH   4  26
TORSDOF 7
ENDMDL
MODEL 6
REMARK VINA RESULT:      -6.9      2.019      2.854
REMARK  Name = 
REMARK  11 active torsions:
REMARK  status: ('A' for Active; 'I' for Inactive)
REMARK    1  A    between atoms: C_1  and  O_2
REMARK    2  A    between atoms: O_2  and  C_3
REMARK    3  A    between atoms: C_5  and  C_6
REMARK    4  A    between atoms: C_9  and  C_10
REMARK    5  A    between atoms: N_12  and  S_13
REMARK    6  A    between atoms: S_13  and  C_14
REMARK    7  A    between atoms: C_25  and  C_26
REMARK    8  A    between atoms: C_26  and  C_27
REMARK    9  A    between atoms: C_26  and  C_28
REMARK   10  A    between atoms: C_26  and  C_29
REMARK   11  A    between atoms: C_29  and  O_30
REMARK                            x       y       z     vdW  Elec       q    Type
REMARK                         _______ _______ _______ _____ _____    ______ ____
ROOT
ATOM      1  C   UNL     1       2.140   7.541  19.496  0.00  0.00    +0.000 A 
ATOM      2  C   UNL     1       1.901   8.891  19.135  0.00  0.00    +0.000 A 
ATOM      3  C   UNL     1       1.084   9.732  19.909  0.00  0.00    +0.000 A 
ATOM      4  C   UNL     1       0.906  11.153  19.978  0.00  0.00    +0.000 A 
ATOM      5  C   UNL     1      -0.036  11.365  20.973  0.00  0.00    +0.000 A 
ATOM      6  N   UNL     1      -0.416  10.149  21.489  0.00  0.00    +0.000 N 
ATOM      7  C   UNL     1       0.320   9.148  20.909  0.00  0.00    +0.000 A 
ATOM      8  C   UNL     1       0.392   7.786  21.211  0.00  0.00    +0.000 A 
ATOM      9  C   UNL     1       1.354   7.009  20.538  0.00  0.00    +0.000 A 
ATOM     10 CL   UNL     1       1.538   5.401  21.165  0.00  0.00    +0.000 Cl
ATOM     11  H   UNL     1      -1.066  10.017  22.248  0.00  0.00    +0.000 HD
ENDROOT
BRANCH   1  14
ATOM     12  C   UNL     1       4.821   4.987  18.479  0.00  0.00    +0.000 A 
ATOM     13  C   UNL     1       3.891   5.711  19.253  0.00  0.00    +0.000 A 
ATOM     14  C   UNL     1       3.245   6.853  18.778  0.00  0.00    +0.000 A 
ATOM     15  C   UNL     1       3.641   7.306  17.512  0.00  0.00    +0.000 A 
ATOM     16  C   UNL     1       4.581   6.623  16.747  0.00  0.00    +0.000 A 
ATOM     17  C   UNL     1       5.201   5.443  17.200  0.00  0.00    +0.000 A 
BRANCH  17  18
ATOM     18  C   UNL     1       6.169   4.738  16.220  0.00  0.00    +0.000 C 
ATOM     19  C   UNL     1       7.516   4.539  16.962  0.00  0.00    +0.000 C 
ATOM     20  C   UNL     1       5.600   3.342  15.841  0.00  0.00    +0.000 C 
BRANCH  18  21
ATOM     21  C   UNL     1       6.449   5.493  14.892  0.00  0.00    +0.000 C 
BRANCH  21  22
ATOM     22  O   UNL     1       7.840   5.510  14.554  0.00  0.00    +0.000 OA
ATOM     23  H   UNL     1       8.330   5.652  15.381  0.00  0.00    +0.000 HD
ENDBRANCH  21  22
ENDBRANCH  18  21
ENDBRANCH  17  18
BRANCH  12  25
ATOM     24  C   UNL     1       4.482   2.926  19.623  0.00  0.00    +0.000 C 
ATOM     25  O   UNL     1       5.370   3.832  18.966  0.00  0.00    +0.000 OA
ENDBRANCH  12  25
ENDBRANCH   1  14
BRANCH   4  26
ATOM     26  C   UNL     1       1.666  12.152  19.231  0.00  0.00    +0.000 C 
ATOM     27  O   UNL     1       2.178  11.941  18.138  0.00  0.00    +0.000 OA
ATOM     28  N   UNL     1       1.874  13.343  19.931  0.00  0.00    +0.000 N 
ATOM     29  H   UNL     1       1.433  13.509  20.823  0.00  0.00    +0.000 HD
BRANCH  28  30
ATOM     30  S   UNL     1       2.715  14.653  19.384  0.00  0.00    +0.000 S 
ATOM     31  C   UNL     1       2.672  15.806  20.746  0.00  0.00    +0.000 C 
ATOM     32  O   UNL     1       4.079  14.267  19.112  0.00  0.00    +0.000 OA
ATOM     33  O   UNL     1       1.879  15.200  18.334  0.00  0.00    +0.000 OA
ENDBRANCH  28  30
ENDBRANCH   4  26
TORSDOF 7
ENDMDL
MODEL 7
REMARK VINA RESULT:      -6.9      1.734      2.420
REMARK  Name = 
REMARK  11 active torsions:
REMARK  status: ('A' for Active; 'I' for Inactive)
REMARK    1  A    between atoms: C_1  and  O_2
REMARK    2  A    between atoms: O_2  and  C_3
REMARK    3  A    between atoms: C_5  and  C_6
REMARK    4  A    between atoms: C_9  and  C_10
REMARK    5  A    between atoms: N_12  and  S_13
REMARK    6  A    between atoms: S_13  and  C_14
REMARK    7  A    between atoms: C_25  and  C_26
REMARK    8  A    between atoms: C_26  and  C_27
REMARK    9  A    between atoms: C_26  and  C_28
REMARK   10  A    between atoms: C_26  and  C_29
REMARK   11  A    between atoms: C_29  and  O_30
REMARK                            x       y       z     vdW  Elec       q    Type
REMARK                         _______ _______ _______ _____ _____    ______ ____
ROOT
ATOM      1  C   UNL     1       2.103   7.695  19.469  0.00  0.00    +0.000 A 
ATOM      2  C   UNL     1       1.884   9.042  19.083  0.00  0.00    +0.000 A 
ATOM      3  C   UNL     1       1.102   9.917  19.856  0.00  0.00    +0.000 A 
ATOM      4  C   UNL     1       0.955  11.342  19.897  0.00  0.00    +0.000 A 
ATOM      5  C   UNL     1       0.039  11.595  20.907  0.00  0.00    +0.000 A 
ATOM      6  N   UNL     1      -0.355  10.399  21.458  0.00  0.00    +0.000 N 
ATOM      7  C   UNL     1       0.348   9.370  20.885  0.00  0.00    +0.000 A 
ATOM      8  C   UNL     1       0.398   8.013  21.215  0.00  0.00    +0.000 A 
ATOM      9  C   UNL     1       1.329   7.202  20.538  0.00  0.00    +0.000 A 
ATOM     10 CL   UNL     1       1.493   5.605  21.197  0.00  0.00    +0.000 Cl
ATOM     11  H   UNL     1      -0.990  10.297  22.234  0.00  0.00    +0.000 HD
ENDROOT
BRANCH   1  14
ATOM     12  C   UNL     1       4.671   5.039  18.421  0.00  0.00    +0.000 A 
ATOM     13  C   UNL     1       3.772   5.793  19.204  0.00  0.00    +0.000 A 
ATOM     14  C   UNL     1       3.177   6.968  18.743  0.00  0.00    +0.000 A 
ATOM     15  C   UNL     1       3.595   7.420  17.483  0.00  0.00    +0.000 A 
ATOM     16  C   UNL     1       4.505   6.707  16.710  0.00  0.00    +0.000 A 
ATOM     17  C   UNL     1       5.072   5.495  17.149  0.00  0.00    +0.000 A 
BRANCH  17  18
ATOM     18  C   UNL     1       6.010   4.761  16.160  0.00  0.00    +0.000 C 
ATOM     19  C   UNL     1       5.498   3.303  16.031  0.00  0.00    +0.000 C 
ATOM     20  C   UNL     1       5.928   5.441  14.764  0.00  0.00    +0.000 C 
BRANCH  18  21
ATOM     21  C   UNL     1       7.509   4.719  16.560  0.00  0.00    +0.000 C 
BRANCH  21  22
ATOM     22  O   UNL     1       7.731   4.014  17.786  0.00  0.00    +0.000 OA
ATOM     23  H   UNL     1       8.616   4.264  18.100  0.00  0.00    +0.000 HD
ENDBRANCH  21  22
ENDBRANCH  18  21
ENDBRANCH  17  18
BRANCH  12  25
ATOM     24  C   UNL     1       4.258   3.013  19.603  0.00  0.00    +0.000 C 
ATOM     25  O   UNL     1       5.168   3.855  18.893  0.00  0.00    +0.000 OA
ENDBRANCH  12  25
ENDBRANCH   1  14
BRANCH   4  26
ATOM     26  C   UNL     1       1.719  12.308  19.113  0.00  0.00    +0.000 C 
ATOM     27  O   UNL     1       2.115  12.099  17.973  0.00  0.00    +0.000 OA
ATOM     28  N   UNL     1       2.077  13.457  19.824  0.00  0.00    +0.000 N 
ATOM     29  H   UNL     1       1.729  13.624  20.756  0.00  0.00    +0.000 HD
BRANCH  28  30
ATOM     30  S   UNL     1       2.962  14.721  19.240  0.00  0.00    +0.000 S 
ATOM     31  C   UNL     1       3.286  15.733  20.674  0.00  0.00    +0.000 C 
ATOM     32  O   UNL     1       4.204  14.225  18.699  0.00  0.00    +0.000 OA
ATOM     33  O   UNL     1       2.031  15.451  18.402  0.00  0.00    +0.000 OA
ENDBRANCH  28  30
ENDBRANCH   4  26
TORSDOF 7
ENDMDL
MODEL 8
REMARK VINA RESULT:      -6.8      1.170      1.564
REMARK  Name = 
REMARK  11 active torsions:
REMARK  status: ('A' for Active; 'I' for Inactive)
REMARK    1  A    between atoms: C_1  and  O_2
REMARK    2  A    between atoms: O_2  and  C_3
REMARK    3  A    between atoms: C_5  and  C_6
REMARK    4  A    between atoms: C_9  and  C_10
REMARK    5  A    between atoms: N_12  and  S_13
REMARK    6  A    between atoms: S_13  and  C_14
REMARK    7  A    between atoms: C_25  and  C_26
REMARK    8  A    between atoms: C_26  and  C_27
REMARK    9  A    between atoms: C_26  and  C_28
REMARK   10  A    between atoms: C_26  and  C_29
REMARK   11  A    between atoms: C_29  and  O_30
REMARK                            x       y       z     vdW  Elec       q    Type
REMARK                         _______ _______ _______ _____ _____    ______ ____
ROOT
ATOM      1  C   UNL     1       0.836   9.878  19.892  0.00  0.00    +0.000 A 
ATOM      2  C   UNL     1       1.145  11.173  19.405  0.00  0.00    +0.000 A 
ATOM      3  C   UNL     1       0.562  12.329  19.950  0.00  0.00    +0.000 A 
ATOM      4  C   UNL     1       0.884  13.724  19.892  0.00  0.00    +0.000 A 
ATOM      5  C   UNL     1      -0.070  14.362  20.670  0.00  0.00    +0.000 A 
ATOM      6  N   UNL     1      -0.929  13.418  21.180  0.00  0.00    +0.000 N 
ATOM      7  C   UNL     1      -0.507  12.164  20.819  0.00  0.00    +0.000 A 
ATOM      8  C   UNL     1      -0.966  10.905  21.216  0.00  0.00    +0.000 A 
ATOM      9  C   UNL     1      -0.242   9.774  20.794  0.00  0.00    +0.000 A 
ATOM     10 CL   UNL     1      -0.736   8.291  21.547  0.00  0.00    +0.000 Cl
ATOM     11  H   UNL     1      -1.696  13.607  21.806  0.00  0.00    +0.000 HD
ENDROOT
BRANCH   1  14
ATOM     12  C   UNL     1       2.648   6.501  19.642  0.00  0.00    +0.000 A 
ATOM     13  C   UNL     1       1.925   7.594  20.164  0.00  0.00    +0.000 A 
ATOM     14  C   UNL     1       1.729   8.776  19.447  0.00  0.00    +0.000 A 
ATOM     15  C   UNL     1       2.375   8.861  18.206  0.00  0.00    +0.000 A 
ATOM     16  C   UNL     1       3.120   7.806  17.690  0.00  0.00    +0.000 A 
ATOM     17  C   UNL     1       3.281   6.592  18.386  0.00  0.00    +0.000 A 
BRANCH  17  18
ATOM     18  C   UNL     1       4.067   5.470  17.666  0.00  0.00    +0.000 C 
ATOM     19  C   UNL     1       5.123   4.930  18.665  0.00  0.00    +0.000 C 
ATOM     20  C   UNL     1       3.098   4.312  17.295  0.00  0.00    +0.000 C 
BRANCH  18  21
ATOM     21  C   UNL     1       4.797   5.890  16.361  0.00  0.00    +0.000 C 
BRANCH  21  22
ATOM     22  O   UNL     1       6.203   5.629  16.411  0.00  0.00    +0.000 OA
ATOM     23  H   UNL     1       6.617   6.392  16.848  0.00  0.00    +0.000 HD
ENDBRANCH  21  22
ENDBRANCH  18  21
ENDBRANCH  17  18
BRANCH  12  25
ATOM     24  C   UNL     1       1.525   4.660  20.653  0.00  0.00    +0.000 C 
ATOM     25  O   UNL     1       2.747   5.339  20.357  0.00  0.00    +0.000 OA
ENDBRANCH  12  25
ENDBRANCH   1  14
BRANCH   4  26
ATOM     26  C   UNL     1       2.054  14.310  19.244  0.00  0.00    +0.000 C 
ATOM     27  O   UNL     1       3.181  13.833  19.311  0.00  0.00    +0.000 OA
ATOM     28  N   UNL     1       1.806  15.545  18.638  0.00  0.00    +0.000 N 
ATOM     29  H   UNL     1       0.871  15.918  18.576  0.00  0.00    +0.000 HD
BRANCH  28  30
ATOM     30  S   UNL     1       2.916  16.478  17.851  0.00  0.00    +0.000 S 
ATOM     31  C   UNL     1       1.939  17.711  17.008  0.00  0.00    +0.000 C 
ATOM     32  O   UNL     1       3.779  17.114  18.818  0.00  0.00    +0.000 OA
ATOM     33  O   UNL     1       3.465  15.599  16.837  0.00  0.00    +0.000 OA
ENDBRANCH  28  30
ENDBRANCH   4  26
TORSDOF 7
ENDMDL
MODEL 9
REMARK VINA RESULT:      -6.6      2.102      2.385
REMARK  Name = 
REMARK  11 active torsions:
REMARK  status: ('A' for Active; 'I' for Inactive)
REMARK    1  A    between atoms: C_1  and  O_2
REMARK    2  A    between atoms: O_2  and  C_3
REMARK    3  A    between atoms: C_5  and  C_6
REMARK    4  A    between atoms: C_9  and  C_10
REMARK    5  A    between atoms: N_12  and  S_13
REMARK    6  A    between atoms: S_13  and  C_14
REMARK    7  A    between atoms: C_25  and  C_26
REMARK    8  A    between atoms: C_26  and  C_27
REMARK    9  A    between atoms: C_26  and  C_28
REMARK   10  A    between atoms: C_26  and  C_29
REMARK   11  A    between atoms: C_29  and  O_30
REMARK                            x       y       z     vdW  Elec       q    Type
REMARK                         _______ _______ _______ _____ _____    ______ ____
ROOT
ATOM      1  C   UNL     1       0.491  10.857  18.805  0.00  0.00    +0.000 A 
ATOM      2  C   UNL     1       1.090  12.029  19.331  0.00  0.00    +0.000 A 
ATOM      3  C   UNL     1       0.331  13.163  19.668  0.00  0.00    +0.000 A 
ATOM      4  C   UNL     1       0.585  14.324  20.468  0.00  0.00    +0.000 A 
ATOM      5  C   UNL     1      -0.585  15.069  20.430  0.00  0.00    +0.000 A 
ATOM      6  N   UNL     1      -1.506  14.406  19.655  0.00  0.00    +0.000 N 
ATOM      7  C   UNL     1      -0.992  13.201  19.252  0.00  0.00    +0.000 A 
ATOM      8  C   UNL     1      -1.601  12.135  18.582  0.00  0.00    +0.000 A 
ATOM      9  C   UNL     1      -0.863  10.946  18.424  0.00  0.00    +0.000 A 
ATOM     10 CL   UNL     1      -1.789   9.609  17.818  0.00  0.00    +0.000 Cl
ATOM     11  H   UNL     1      -2.452  14.711  19.487  0.00  0.00    +0.000 HD
ENDROOT
BRANCH   1  14
ATOM     12  C   UNL     1       2.096   7.482  19.686  0.00  0.00    +0.000 A 
ATOM     13  C   UNL     1       1.407   8.706  19.809  0.00  0.00    +0.000 A 
ATOM     14  C   UNL     1       1.343   9.639  18.773  0.00  0.00    +0.000 A 
ATOM     15  C   UNL     1       2.086   9.340  17.623  0.00  0.00    +0.000 A 
ATOM     16  C   UNL     1       2.799   8.151  17.497  0.00  0.00    +0.000 A 
ATOM     17  C   UNL     1       2.827   7.183  18.519  0.00  0.00    +0.000 A 
BRANCH  17  18
ATOM     18  C   UNL     1       3.592   5.871  18.221  0.00  0.00    +0.000 C 
ATOM     19  C   UNL     1       2.544   4.808  17.802  0.00  0.00    +0.000 C 
ATOM     20  C   UNL     1       4.570   6.098  17.033  0.00  0.00    +0.000 C 
BRANCH  18  21
ATOM     21  C   UNL     1       4.428   5.297  19.397  0.00  0.00    +0.000 C 
BRANCH  21  22
ATOM     22  O   UNL     1       5.830   5.266  19.110  0.00  0.00    +0.000 OA
ATOM     23  H   UNL     1       5.987   5.910  18.399  0.00  0.00    +0.000 HD
ENDBRANCH  21  22
ENDBRANCH  18  21
ENDBRANCH  17  18
BRANCH  12  25
ATOM     24  C   UNL     1       1.012   5.604  20.673  0.00  0.00    +0.000 C 
ATOM     25  O   UNL     1       2.065   6.570  20.706  0.00  0.00    +0.000 OA
ENDBRANCH  12  25
ENDBRANCH   1  14
BRANCH   4  26
ATOM     26  C   UNL     1       1.789  14.582  21.252  0.00  0.00    +0.000 C 
ATOM     27  O   UNL     1       1.800  14.679  22.473  0.00  0.00    +0.000 OA
ATOM     28  N   UNL     1       2.924  14.840  20.478  0.00  0.00    +0.000 N 
ATOM     29  H   UNL     1       2.905  14.740  19.474  0.00  0.00    +0.000 HD
BRANCH  28  30
ATOM     30  S   UNL     1       4.429  15.195  21.053  0.00  0.00    +0.000 S 
ATOM     31  C   UNL     1       5.475  15.157  19.607  0.00  0.00    +0.000 C 
ATOM     32  O   UNL     1       4.423  16.523  21.619  0.00  0.00    +0.000 OA
ATOM     33  O   UNL     1       4.780  14.047  21.866  0.00  0.00    +0.000 OA
ENDBRANCH  28  30
ENDBRANCH   4  26
TORSDOF 7
ENDMDL
