MODEL 1
REMARK VINA RESULT:      -7.5      0.000      0.000
REMARK  Name = 
REMARK  6 active torsions:
REMARK  status: ('A' for Active; 'I' for Inactive)
REMARK    1  A    between atoms: C_2  and  C_4
REMARK    2  A    between atoms: C_4  and  C_5
REMARK    3  A    between atoms: C_5  and  C_6
REMARK    4  A    between atoms: C_6  and  C_7
REMARK    5  A    between atoms: C_9  and  C_10
REMARK    6  A    between atoms: C_13  and  C_14
REMARK                            x       y       z     vdW  Elec       q    Type
REMARK                         _______ _______ _______ _____ _____    ______ ____
ROOT
ATOM      1  C   UNL     1       6.859   4.533  15.089  0.00  0.00    +0.000 A 
ATOM      2  N   UNL     1       5.656   4.249  15.517  0.00  0.00    +0.000 NA
ATOM      3  C   UNL     1       5.807   4.286  16.882  0.00  0.00    +0.000 A 
ATOM      4  N   UNL     1       7.068   4.524  17.284  0.00  0.00    +0.000 NA
ATOM      5  O   UNL     1       7.769   4.690  16.091  0.00  0.00    +0.000 OA
ENDROOT
BRANCH   3   6
ATOM      6  C   UNL     1       4.672   4.114  17.780  0.00  0.00    +0.000 A 
ATOM      7  C   UNL     1       3.900   2.943  17.724  0.00  0.00    +0.000 A 
ATOM      8  C   UNL     1       2.793   2.778  18.562  0.00  0.00    +0.000 A 
ATOM      9  C   UNL     1       2.439   3.785  19.471  0.00  0.00    +0.000 A 
ATOM     10  C   UNL     1       3.209   4.953  19.527  0.00  0.00    +0.000 A 
ATOM     11  C   UNL     1       4.318   5.116  18.689  0.00  0.00    +0.000 A 
BRANCH   9  12
ATOM     12  C   UNL     1       1.246   3.630  20.383  0.00  0.00    +0.000 C 
ATOM     13  F   UNL     1       1.536   3.021  21.566  0.00  0.00    +0.000 F 
ATOM     14  F   UNL     1       0.686   4.828  20.708  0.00  0.00    +0.000 F 
ATOM     15  F   UNL     1       0.250   2.893  19.818  0.00  0.00    +0.000 F 
ENDBRANCH   9  12
ENDBRANCH   3   6
BRANCH   1  16
ATOM     16  C   UNL     1       7.341   4.735  13.707  0.00  0.00    +0.000 C 
BRANCH  16  17
ATOM     17  C   UNL     1       6.291   4.292  12.689  0.00  0.00    +0.000 C 
BRANCH  17  18
ATOM     18  C   UNL     1       6.746   3.035  11.975  0.00  0.00    +0.000 C 
BRANCH  18  20
ATOM     19  O   UNL     1       4.516   2.742  11.426  0.00  0.00    +0.000 OA
ATOM     20  C   UNL     1       5.641   2.137  11.442  0.00  0.00    +0.000 C 
ATOM     21  O   UNL     1       5.898   0.951  11.175  0.00  0.00    +0.000 OA
ENDBRANCH  18  20
ENDBRANCH  17  18
ENDBRANCH  16  17
ENDBRANCH   1  16
TORSDOF 6
ENDMDL
MODEL 2
REMARK VINA RESULT:      -7.4      0.758      1.170
REMARK  Name = 
REMARK  6 active torsions:
REMARK  status: ('A' for Active; 'I' for Inactive)
REMARK    1  A    between atoms: C_2  and  C_4
REMARK    2  A    between atoms: C_4  and  C_5
REMARK    3  A    between atoms: C_5  and  C_6
REMARK    4  A    between atoms: C_6  and  C_7
REMARK    5  A    between atoms: C_9  and  C_10
REMARK    6  A    between atoms: C_13  and  C_14
REMARK                            x       y       z     vdW  Elec       q    Type
REMARK                         _______ _______ _______ _____ _____    ______ ____
ROOT
ATOM      1  C   UNL     1       6.831   4.673  15.002  0.00  0.00    +0.000 A 
ATOM      2  N   UNL     1       5.611   4.439  15.413  0.00  0.00    +0.000 NA
ATOM      3  C   UNL     1       5.778   4.273  16.765  0.00  0.00    +0.000 A 
ATOM      4  N   UNL     1       7.058   4.343  17.170  0.00  0.00    +0.000 NA
ATOM      5  O   UNL     1       7.760   4.610  15.996  0.00  0.00    +0.000 OA
ENDROOT
BRANCH   3   6
ATOM      6  C   UNL     1       4.640   4.078  17.656  0.00  0.00    +0.000 A 
ATOM      7  C   UNL     1       3.333   4.274  17.183  0.00  0.00    +0.000 A 
ATOM      8  C   UNL     1       2.236   4.116  18.035  0.00  0.00    +0.000 A 
ATOM      9  C   UNL     1       2.429   3.762  19.377  0.00  0.00    +0.000 A 
ATOM     10  C   UNL     1       3.733   3.567  19.849  0.00  0.00    +0.000 A 
ATOM     11  C   UNL     1       4.830   3.724  18.996  0.00  0.00    +0.000 A 
BRANCH   9  12
ATOM     12  C   UNL     1       1.259   3.589  20.316  0.00  0.00    +0.000 C 
ATOM     13  F   UNL     1       0.669   4.762  20.678  0.00  0.00    +0.000 F 
ATOM     14  F   UNL     1       0.270   2.826  19.775  0.00  0.00    +0.000 F 
ATOM     15  F   UNL     1       1.612   2.974  21.479  0.00  0.00    +0.000 F 
ENDBRANCH   9  12
ENDBRANCH   3   6
BRANCH   1  16
ATOM     16  C   UNL     1       7.317   5.021  13.650  0.00  0.00    +0.000 C 
BRANCH  16  17
ATOM     17  C   UNL     1       7.003   3.908  12.650  0.00  0.00    +0.000 C 
BRANCH  17  18
ATOM     18  C   UNL     1       5.528   3.565  12.691  0.00  0.00    +0.000 C 
BRANCH  18  20
ATOM     19  O   UNL     1       3.960   3.178  11.031  0.00  0.00    +0.000 OA
ATOM     20  C   UNL     1       5.018   2.691  11.555  0.00  0.00    +0.000 C 
ATOM     21  O   UNL     1       5.586   1.611  11.318  0.00  0.00    +0.000 OA
ENDBRANCH  18  20
ENDBRANCH  17  18
ENDBRANCH  16  17
ENDBRANCH   1  16
TORSDOF 6
ENDMDL
MODEL 3
REMARK VINA RESULT:      -7.4      0.840      1.493
REMARK  Name = 
REMARK  6 active torsions:
REMARK  status: ('A' for Active; 'I' for Inactive)
REMARK    1  A    between atoms: C_2  and  C_4
REMARK    2  A    between atoms: C_4  and  C_5
REMARK    3  A    between atoms: C_5  and  C_6
REMARK    4  A    between atoms: C_6  and  C_7
REMARK    5  A    between atoms: C_9  and  C_10
REMARK    6  A    between atoms: C_13  and  C_14
REMARK                            x       y       z     vdW  Elec       q    Type
REMARK                         _______ _______ _______ _____ _____    ______ ____
ROOT
ATOM      1  C   UNL     1       6.683   4.695  14.704  0.00  0.00    +0.000 A 
ATOM      2  N   UNL     1       5.640   4.039  15.146  0.00  0.00    +0.000 NA
ATOM      3  C   UNL     1       5.430   4.607  16.378  0.00  0.00    +0.000 A 
ATOM      4  N   UNL     1       6.342   5.538  16.713  0.00  0.00    +0.000 NA
ATOM      5  O   UNL     1       7.176   5.597  15.598  0.00  0.00    +0.000 OA
ENDROOT
BRANCH   3   6
ATOM      6  C   UNL     1       4.288   4.236  17.205  0.00  0.00    +0.000 A 
ATOM      7  C   UNL     1       3.380   5.218  17.635  0.00  0.00    +0.000 A 
ATOM      8  C   UNL     1       2.297   4.878  18.450  0.00  0.00    +0.000 A 
ATOM      9  C   UNL     1       2.104   3.549  18.851  0.00  0.00    +0.000 A 
ATOM     10  C   UNL     1       3.009   2.570  18.423  0.00  0.00    +0.000 A 
ATOM     11  C   UNL     1       4.092   2.911  17.606  0.00  0.00    +0.000 A 
BRANCH   9  12
ATOM     12  C   UNL     1       0.943   3.160  19.734  0.00  0.00    +0.000 C 
ATOM     13  F   UNL     1       0.306   4.221  20.303  0.00  0.00    +0.000 F 
ATOM     14  F   UNL     1      -0.015   2.471  19.054  0.00  0.00    +0.000 F 
ATOM     15  F   UNL     1       1.320   2.354  20.765  0.00  0.00    +0.000 F 
ENDBRANCH   9  12
ENDBRANCH   3   6
BRANCH   1  16
ATOM     16  C   UNL     1       7.356   4.614  13.391  0.00  0.00    +0.000 C 
BRANCH  16  17
ATOM     17  C   UNL     1       6.425   4.022  12.332  0.00  0.00    +0.000 C 
BRANCH  17  18
ATOM     18  C   UNL     1       7.052   2.790  11.711  0.00  0.00    +0.000 C 
BRANCH  18  20
ATOM     19  O   UNL     1       4.873   2.151  11.260  0.00  0.00    +0.000 OA
ATOM     20  C   UNL     1       6.081   1.740  11.195  0.00  0.00    +0.000 C 
ATOM     21  O   UNL     1       6.513   0.622  10.867  0.00  0.00    +0.000 OA
ENDBRANCH  18  20
ENDBRANCH  17  18
ENDBRANCH  16  17
ENDBRANCH   1  16
TORSDOF 6
ENDMDL
MODEL 4
REMARK VINA RESULT:      -7.3      0.763      1.068
REMARK  Name = 
REMARK  6 active torsions:
REMARK  status: ('A' for Active; 'I' for Inactive)
REMARK    1  A    between atoms: C_2  and  C_4
REMARK    2  A    between atoms: C_4  and  C_5
REMARK    3  A    between atoms: C_5  and  C_6
REMARK    4  A    between atoms: C_6  and  C_7
REMARK    5  A    between atoms: C_9  and  C_10
REMARK    6  A    between atoms: C_13  and  C_14
REMARK                            x       y       z     vdW  Elec       q    Type
REMARK                         _______ _______ _______ _____ _____    ______ ____
ROOT
ATOM      1  C   UNL     1       6.822   4.936  15.140  0.00  0.00    +0.000 A 
ATOM      2  N   UNL     1       5.766   4.320  15.606  0.00  0.00    +0.000 NA
ATOM      3  C   UNL     1       5.638   4.856  16.863  0.00  0.00    +0.000 A 
ATOM      4  N   UNL     1       6.610   5.726  17.187  0.00  0.00    +0.000 NA
ATOM      5  O   UNL     1       7.399   5.781  16.039  0.00  0.00    +0.000 OA
ENDROOT
BRANCH   3   6
ATOM      6  C   UNL     1       4.514   4.515  17.727  0.00  0.00    +0.000 A 
ATOM      7  C   UNL     1       4.679   3.583  18.764  0.00  0.00    +0.000 A 
ATOM      8  C   UNL     1       3.602   3.228  19.581  0.00  0.00    +0.000 A 
ATOM      9  C   UNL     1       2.339   3.800  19.373  0.00  0.00    +0.000 A 
ATOM     10  C   UNL     1       2.174   4.729  18.339  0.00  0.00    +0.000 A 
ATOM     11  C   UNL     1       3.253   5.085  17.522  0.00  0.00    +0.000 A 
BRANCH   9  12
ATOM     12  C   UNL     1       1.161   3.430  20.242  0.00  0.00    +0.000 C 
ATOM     13  F   UNL     1       1.497   2.695  21.338  0.00  0.00    +0.000 F 
ATOM     14  F   UNL     1       0.502   4.524  20.714  0.00  0.00    +0.000 F 
ATOM     15  F   UNL     1       0.230   2.695  19.571  0.00  0.00    +0.000 F 
ENDBRANCH   9  12
ENDBRANCH   3   6
BRANCH   1  16
ATOM     16  C   UNL     1       7.434   4.866  13.796  0.00  0.00    +0.000 C 
BRANCH  16  17
ATOM     17  C   UNL     1       6.390   4.522  12.734  0.00  0.00    +0.000 C 
BRANCH  17  18
ATOM     18  C   UNL     1       6.705   3.181  12.103  0.00  0.00    +0.000 C 
BRANCH  18  20
ATOM     19  O   UNL     1       5.847   1.217  11.226  0.00  0.00    +0.000 OA
ATOM     20  C   UNL     1       5.512   2.398  11.578  0.00  0.00    +0.000 C 
ATOM     21  O   UNL     1       4.414   2.969  11.461  0.00  0.00    +0.000 OA
ENDBRANCH  18  20
ENDBRANCH  17  18
ENDBRANCH  16  17
ENDBRANCH   1  16
TORSDOF 6
ENDMDL
MODEL 5
REMARK VINA RESULT:      -7.3      1.376      1.722
REMARK  Name = 
REMARK  6 active torsions:
REMARK  status: ('A' for Active; 'I' for Inactive)
REMARK    1  A    between atoms: C_2  and  C_4
REMARK    2  A    between atoms: C_4  and  C_5
REMARK    3  A    between atoms: C_5  and  C_6
REMARK    4  A    between atoms: C_6  and  C_7
REMARK    5  A    between atoms: C_9  and  C_10
REMARK    6  A    between atoms: C_13  and  C_14
REMARK                            x       y       z     vdW  Elec       q    Type
REMARK                         _______ _______ _______ _____ _____    ______ ____
ROOT
ATOM      1  C   UNL     1       6.226   4.269  14.326  0.00  0.00    +0.000 A 
ATOM      2  N   UNL     1       5.388   3.818  15.225  0.00  0.00    +0.000 NA
ATOM      3  C   UNL     1       5.288   4.873  16.097  0.00  0.00    +0.000 A 
ATOM      4  N   UNL     1       6.078   5.916  15.785  0.00  0.00    +0.000 NA
ATOM      5  O   UNL     1       6.702   5.514  14.605  0.00  0.00    +0.000 OA
ENDROOT
BRANCH   3   6
ATOM      6  C   UNL     1       4.369   4.844  17.228  0.00  0.00    +0.000 A 
ATOM      7  C   UNL     1       3.243   4.006  17.200  0.00  0.00    +0.000 A 
ATOM      8  C   UNL     1       2.340   3.990  18.267  0.00  0.00    +0.000 A 
ATOM      9  C   UNL     1       2.547   4.815  19.381  0.00  0.00    +0.000 A 
ATOM     10  C   UNL     1       3.670   5.651  19.409  0.00  0.00    +0.000 A 
ATOM     11  C   UNL     1       4.574   5.666  18.341  0.00  0.00    +0.000 A 
BRANCH   9  12
ATOM     12  C   UNL     1       1.584   4.816  20.543  0.00  0.00    +0.000 C 
ATOM     13  F   UNL     1       1.118   6.054  20.868  0.00  0.00    +0.000 F 
ATOM     14  F   UNL     1       0.481   4.055  20.301  0.00  0.00    +0.000 F 
ATOM     15  F   UNL     1       2.140   4.316  21.681  0.00  0.00    +0.000 F 
ENDBRANCH   9  12
ENDBRANCH   3   6
BRANCH   1  16
ATOM     16  C   UNL     1       6.684   3.640  13.070  0.00  0.00    +0.000 C 
BRANCH  16  17
ATOM     17  C   UNL     1       5.538   3.521  12.066  0.00  0.00    +0.000 C 
BRANCH  17  18
ATOM     18  C   UNL     1       5.308   2.068  11.700  0.00  0.00    +0.000 C 
BRANCH  18  20
ATOM     19  O   UNL     1       6.283   0.079  11.027  0.00  0.00    +0.000 OA
ATOM     20  C   UNL     1       6.502   1.335  11.110  0.00  0.00    +0.000 C 
ATOM     21  O   UNL     1       7.543   1.968  10.865  0.00  0.00    +0.000 OA
ENDBRANCH  18  20
ENDBRANCH  17  18
ENDBRANCH  16  17
ENDBRANCH   1  16
TORSDOF 6
ENDMDL
MODEL 6
REMARK VINA RESULT:      -7.3      0.985      1.631
REMARK  Name = 
REMARK  6 active torsions:
REMARK  status: ('A' for Active; 'I' for Inactive)
REMARK    1  A    between atoms: C_2  and  C_4
REMARK    2  A    between atoms: C_4  and  C_5
REMARK    3  A    between atoms: C_5  and  C_6
REMARK    4  A    between atoms: C_6  and  C_7
REMARK    5  A    between atoms: C_9  and  C_10
REMARK    6  A    between atoms: C_13  and  C_14
REMARK                            x       y       z     vdW  Elec       q    Type
REMARK                         _______ _______ _______ _____ _____    ______ ____
ROOT
ATOM      1  C   UNL     1       6.884   4.910  14.864  0.00  0.00    +0.000 A 
ATOM      2  N   UNL     1       5.675   4.930  15.363  0.00  0.00    +0.000 NA
ATOM      3  C   UNL     1       5.892   4.634  16.686  0.00  0.00    +0.000 A 
ATOM      4  N   UNL     1       7.179   4.381  16.984  0.00  0.00    +0.000 NA
ATOM      5  O   UNL     1       7.840   4.566  15.771  0.00  0.00    +0.000 OA
ENDROOT
BRANCH   3   6
ATOM      6  C   UNL     1       4.806   4.640  17.658  0.00  0.00    +0.000 A 
ATOM      7  C   UNL     1       3.727   5.526  17.505  0.00  0.00    +0.000 A 
ATOM      8  C   UNL     1       2.693   5.559  18.445  0.00  0.00    +0.000 A 
ATOM      9  C   UNL     1       2.722   4.706  19.557  0.00  0.00    +0.000 A 
ATOM     10  C   UNL     1       3.797   3.823  19.710  0.00  0.00    +0.000 A 
ATOM     11  C   UNL     1       4.831   3.789  18.768  0.00  0.00    +0.000 A 
BRANCH   9  12
ATOM     12  C   UNL     1       1.618   4.727  20.587  0.00  0.00    +0.000 C 
ATOM     13  F   UNL     1       0.508   4.029  20.216  0.00  0.00    +0.000 F 
ATOM     14  F   UNL     1       2.011   4.196  21.777  0.00  0.00    +0.000 F 
ATOM     15  F   UNL     1       1.190   5.989  20.865  0.00  0.00    +0.000 F 
ENDBRANCH   9  12
ENDBRANCH   3   6
BRANCH   1  16
ATOM     16  C   UNL     1       7.342   5.234  13.496  0.00  0.00    +0.000 C 
BRANCH  16  17
ATOM     17  C   UNL     1       7.058   4.081  12.534  0.00  0.00    +0.000 C 
BRANCH  17  18
ATOM     18  C   UNL     1       5.700   3.475  12.824  0.00  0.00    +0.000 C 
BRANCH  18  20
ATOM     19  O   UNL     1       5.619   1.696  11.345  0.00  0.00    +0.000 OA
ATOM     20  C   UNL     1       5.020   2.781  11.655  0.00  0.00    +0.000 C 
ATOM     21  O   UNL     1       4.064   3.339  11.089  0.00  0.00    +0.000 OA
ENDBRANCH  18  20
ENDBRANCH  17  18
ENDBRANCH  16  17
ENDBRANCH   1  16
TORSDOF 6
ENDMDL
MODEL 7
REMARK VINA RESULT:      -7.2      0.491      1.342
REMARK  Name = 
REMARK  6 active torsions:
REMARK  status: ('A' for Active; 'I' for Inactive)
REMARK    1  A    between atoms: C_2  and  C_4
REMARK    2  A    between atoms: C_4  and  C_5
REMARK    3  A    between atoms: C_5  and  C_6
REMARK    4  A    between atoms: C_6  and  C_7
REMARK    5  A    between atoms: C_9  and  C_10
REMARK    6  A    between atoms: C_13  and  C_14
REMARK                            x       y       z     vdW  Elec       q    Type
REMARK                         _______ _______ _______ _____ _____    ______ ____
ROOT
ATOM      1  C   UNL     1       6.941   4.742  15.031  0.00  0.00    +0.000 A 
ATOM      2  N   UNL     1       5.700   4.530  15.388  0.00  0.00    +0.000 NA
ATOM      3  C   UNL     1       5.809   4.320  16.740  0.00  0.00    +0.000 A 
ATOM      4  N   UNL     1       7.074   4.342  17.195  0.00  0.00    +0.000 NA
ATOM      5  O   UNL     1       7.828   4.624  16.058  0.00  0.00    +0.000 OA
ENDROOT
BRANCH   3   6
ATOM      6  C   UNL     1       4.633   4.132  17.581  0.00  0.00    +0.000 A 
ATOM      7  C   UNL     1       4.642   4.571  18.915  0.00  0.00    +0.000 A 
ATOM      8  C   UNL     1       3.530   4.371  19.738  0.00  0.00    +0.000 A 
ATOM      9  C   UNL     1       2.389   3.726  19.241  0.00  0.00    +0.000 A 
ATOM     10  C   UNL     1       2.380   3.288  17.911  0.00  0.00    +0.000 A 
ATOM     11  C   UNL     1       3.493   3.489  17.087  0.00  0.00    +0.000 A 
BRANCH   9  12
ATOM     12  C   UNL     1       1.178   3.496  20.113  0.00  0.00    +0.000 C 
ATOM     13  F   UNL     1       0.198   2.768  19.509  0.00  0.00    +0.000 F 
ATOM     14  F   UNL     1       1.486   2.830  21.259  0.00  0.00    +0.000 F 
ATOM     15  F   UNL     1       0.591   4.661  20.504  0.00  0.00    +0.000 F 
ENDBRANCH   9  12
ENDBRANCH   3   6
BRANCH   1  16
ATOM     16  C   UNL     1       7.488   5.115  13.710  0.00  0.00    +0.000 C 
BRANCH  16  17
ATOM     17  C   UNL     1       6.591   4.609  12.581  0.00  0.00    +0.000 C 
BRANCH  17  18
ATOM     18  C   UNL     1       6.385   3.112  12.704  0.00  0.00    +0.000 C 
BRANCH  18  20
ATOM     19  O   UNL     1       4.397   3.167  11.518  0.00  0.00    +0.000 OA
ATOM     20  C   UNL     1       5.465   2.482  11.671  0.00  0.00    +0.000 C 
ATOM     21  O   UNL     1       5.771   1.385  11.172  0.00  0.00    +0.000 OA
ENDBRANCH  18  20
ENDBRANCH  17  18
ENDBRANCH  16  17
ENDBRANCH   1  16
TORSDOF 6
ENDMDL
MODEL 8
REMARK VINA RESULT:      -7.1      1.103      1.812
REMARK  Name = 
REMARK  6 active torsions:
REMARK  status: ('A' for Active; 'I' for Inactive)
REMARK    1  A    between atoms: C_2  and  C_4
REMARK    2  A    between atoms: C_4  and  C_5
REMARK    3  A    between atoms: C_5  and  C_6
REMARK    4  A    between atoms: C_6  and  C_7
REMARK    5  A    between atoms: C_9  and  C_10
REMARK    6  A    between atoms: C_13  and  C_14
REMARK                            x       y       z     vdW  Elec       q    Type
REMARK                         _______ _______ _______ _____ _____    ______ ____
ROOT
ATOM      1  C   UNL     1       6.467   4.695  14.714  0.00  0.00    +0.000 A 
ATOM      2  N   UNL     1       5.802   3.921  15.533  0.00  0.00    +0.000 NA
ATOM      3  C   UNL     1       5.003   4.812  16.206  0.00  0.00    +0.000 A 
ATOM      4  N   UNL     1       5.207   6.095  15.861  0.00  0.00    +0.000 NA
ATOM      5  O   UNL     1       6.181   6.018  14.867  0.00  0.00    +0.000 OA
ENDROOT
BRANCH   3   6
ATOM      6  C   UNL     1       4.009   4.365  17.174  0.00  0.00    +0.000 A 
ATOM      7  C   UNL     1       3.101   5.283  17.726  0.00  0.00    +0.000 A 
ATOM      8  C   UNL     1       2.161   4.872  18.675  0.00  0.00    +0.000 A 
ATOM      9  C   UNL     1       2.115   3.534  19.090  0.00  0.00    +0.000 A 
ATOM     10  C   UNL     1       3.020   2.619  18.541  0.00  0.00    +0.000 A 
ATOM     11  C   UNL     1       3.960   3.031  17.589  0.00  0.00    +0.000 A 
BRANCH   9  12
ATOM     12  C   UNL     1       1.110   3.068  20.117  0.00  0.00    +0.000 C 
ATOM     13  F   UNL     1       0.666   4.059  20.939  0.00  0.00    +0.000 F 
ATOM     14  F   UNL     1      -0.003   2.533  19.545  0.00  0.00    +0.000 F 
ATOM     15  F   UNL     1       1.611   2.101  20.934  0.00  0.00    +0.000 F 
ENDBRANCH   9  12
ENDBRANCH   3   6
BRANCH   1  16
ATOM     16  C   UNL     1       7.432   4.335  13.655  0.00  0.00    +0.000 C 
BRANCH  16  17
ATOM     17  C   UNL     1       6.727   4.147  12.311  0.00  0.00    +0.000 C 
BRANCH  17  18
ATOM     18  C   UNL     1       5.317   3.636  12.523  0.00  0.00    +0.000 C 
BRANCH  18  20
ATOM     19  O   UNL     1       5.526   1.714  11.249  0.00  0.00    +0.000 OA
ATOM     20  C   UNL     1       4.769   2.726  11.435  0.00  0.00    +0.000 C 
ATOM     21  O   UNL     1       3.754   3.073  10.806  0.00  0.00    +0.000 OA
ENDBRANCH  18  20
ENDBRANCH  17  18
ENDBRANCH  16  17
ENDBRANCH   1  16
TORSDOF 6
ENDMDL
MODEL 9
REMARK VINA RESULT:      -7.1      1.172      1.692
REMARK  Name = 
REMARK  6 active torsions:
REMARK  status: ('A' for Active; 'I' for Inactive)
REMARK    1  A    between atoms: C_2  and  C_4
REMARK    2  A    between atoms: C_4  and  C_5
REMARK    3  A    between atoms: C_5  and  C_6
REMARK    4  A    between atoms: C_6  and  C_7
REMARK    5  A    between atoms: C_9  and  C_10
REMARK    6  A    between atoms: C_13  and  C_14
REMARK                            x       y       z     vdW  Elec       q    Type
REMARK                         _______ _______ _______ _____ _____    ______ ____
ROOT
ATOM      1  C   UNL     1       6.341   4.995  14.734  0.00  0.00    +0.000 A 
ATOM      2  N   UNL     1       5.730   4.177  15.552  0.00  0.00    +0.000 NA
ATOM      3  C   UNL     1       4.909   5.020  16.260  0.00  0.00    +0.000 A 
ATOM      4  N   UNL     1       5.049   6.317  15.935  0.00  0.00    +0.000 NA
ATOM      5  O   UNL     1       6.002   6.301  14.918  0.00  0.00    +0.000 OA
ENDROOT
BRANCH   3   6
ATOM      6  C   UNL     1       3.958   4.512  17.241  0.00  0.00    +0.000 A 
ATOM      7  C   UNL     1       3.834   3.130  17.453  0.00  0.00    +0.000 A 
ATOM      8  C   UNL     1       2.906   2.631  18.372  0.00  0.00    +0.000 A 
ATOM      9  C   UNL     1       2.084   3.507  19.093  0.00  0.00    +0.000 A 
ATOM     10  C   UNL     1       2.206   4.886  18.881  0.00  0.00    +0.000 A 
ATOM     11  C   UNL     1       3.136   5.385  17.962  0.00  0.00    +0.000 A 
BRANCH   9  12
ATOM     12  C   UNL     1       1.072   2.990  20.088  0.00  0.00    +0.000 C 
ATOM     13  F   UNL     1       0.020   2.344  19.514  0.00  0.00    +0.000 F 
ATOM     14  F   UNL     1       1.618   2.106  20.967  0.00  0.00    +0.000 F 
ATOM     15  F   UNL     1       0.532   3.985  20.845  0.00  0.00    +0.000 F 
ENDBRANCH   9  12
ENDBRANCH   3   6
BRANCH   1  16
ATOM     16  C   UNL     1       7.296   4.697  13.646  0.00  0.00    +0.000 C 
BRANCH  16  17
ATOM     17  C   UNL     1       6.729   3.649  12.689  0.00  0.00    +0.000 C 
BRANCH  17  18
ATOM     18  C   UNL     1       5.244   3.874  12.483  0.00  0.00    +0.000 C 
BRANCH  18  20
ATOM     19  O   UNL     1       5.178   1.881  11.306  0.00  0.00    +0.000 OA
ATOM     20  C   UNL     1       4.581   3.004  11.427  0.00  0.00    +0.000 C 
ATOM     21  O   UNL     1       3.641   3.469  10.759  0.00  0.00    +0.000 OA
ENDBRANCH  18  20
ENDBRANCH  17  18
ENDBRANCH  16  17
ENDBRANCH   1  16
TORSDOF 6
ENDMDL
