MODEL 1
REMARK VINA RESULT:      -8.4      0.000      0.000
REMARK  Name = 
REMARK  7 active torsions:
REMARK  status: ('A' for Active; 'I' for Inactive)
REMARK    1  A    between atoms: C_1  and  S_2
REMARK    2  A    between atoms: S_2  and  N_5
REMARK    3  A    between atoms: C_8  and  C_9
REMARK    4  A    between atoms: C_9  and  N_10
REMARK    5  A    between atoms: N_10  and  C_11
REMARK    6  A    between atoms: C_16  and  C_17
REMARK    7  A    between atoms: N_19  and  C_20
REMARK                            x       y       z     vdW  Elec       q    Type
REMARK                         _______ _______ _______ _____ _____    ______ ____
ROOT
ATOM      1  C   UNL     1       0.086   9.786  20.107  0.00  0.00    +0.000 A 
ATOM      2  C   UNL     1      -0.563  10.502  21.128  0.00  0.00    +0.000 A 
ATOM      3  C   UNL     1      -0.243  10.319  22.478  0.00  0.00    +0.000 A 
ATOM      4  C   UNL     1       0.705   9.378  22.851  0.00  0.00    +0.000 A 
ATOM      5  C   UNL     1       1.318   8.610  21.874  0.00  0.00    +0.000 A 
ATOM      6  C   UNL     1       1.006   8.793  20.511  0.00  0.00    +0.000 A 
ENDROOT
BRANCH   6   7
ATOM      7  C   UNL     1       1.753   7.931  19.557  0.00  0.00    +0.000 C 
ATOM      8  O   UNL     1       2.274   8.477  18.587  0.00  0.00    +0.000 OA
ATOM      9  N   UNL     1       1.853   6.579  19.883  0.00  0.00    +0.000 N 
ATOM     10  H   UNL     1       1.545   6.340  20.825  0.00  0.00    +0.000 HD
BRANCH   9  11
ATOM     11  C   UNL     1       2.736   5.679  19.249  0.00  0.00    +0.000 A 
ATOM     12  C   UNL     1       2.495   5.173  17.952  0.00  0.00    +0.000 A 
ATOM     13  C   UNL     1       3.529   4.643  17.178  0.00  0.00    +0.000 A 
ATOM     14  C   UNL     1       4.779   4.636  17.747  0.00  0.00    +0.000 A 
ATOM     15  C   UNL     1       4.977   4.969  19.075  0.00  0.00    +0.000 A 
ATOM     16  C   UNL     1       3.962   5.443  19.875  0.00  0.00    +0.000 A 
ATOM     17  O   UNL     1       6.302   4.968  19.403  0.00  0.00    +0.000 OA
ATOM     18  C   UNL     1       6.823   5.044  18.065  0.00  0.00    +0.000 C 
ATOM     19  F   UNL     1       6.994   6.361  17.766  0.00  0.00    +0.000 F 
ATOM     20  F   UNL     1       8.036   4.454  18.015  0.00  0.00    +0.000 F 
ATOM     21  O   UNL     1       5.956   4.456  17.088  0.00  0.00    +0.000 OA
ENDBRANCH   9  11
ENDBRANCH   6   7
BRANCH   1  22
ATOM     22  N   UNL     1      -0.252   9.957  18.749  0.00  0.00    +0.000 N 
ATOM     23  H   UNL     1       0.500   9.609  18.149  0.00  0.00    +0.000 HD
BRANCH  22  24
ATOM     24  C   UNL     1      -0.658  11.285  18.295  0.00  0.00    +0.000 C 
BRANCH  24  28
ATOM     25  N   UNL     1      -5.564  10.685  18.644  0.00  0.00    +0.000 N 
ATOM     26  C   UNL     1      -4.380  10.842  17.901  0.00  0.00    +0.000 A 
ATOM     27  C   UNL     1      -3.148  10.995  18.504  0.00  0.00    +0.000 A 
ATOM     28  C   UNL     1      -2.030  11.169  17.683  0.00  0.00    +0.000 A 
ATOM     29  C   UNL     1      -2.220  11.216  16.299  0.00  0.00    +0.000 A 
ATOM     30  C   UNL     1      -3.508  11.081  15.801  0.00  0.00    +0.000 A 
ATOM     31  N   UNL     1      -4.600  10.894  16.574  0.00  0.00    +0.000 NA
ATOM     32  H   UNL     1      -6.252  10.156  18.113  0.00  0.00    +0.000 HD
BRANCH  25  34
ATOM     33  C   UNL     1      -7.342  12.601  17.934  0.00  0.00    +0.000 C 
ATOM     34  S   UNL     1      -6.229  12.109  19.239  0.00  0.00    +0.000 S 
ATOM     35  O   UNL     1      -5.192  13.109  19.368  0.00  0.00    +0.000 OA
ATOM     36  O   UNL     1      -7.043  11.725  20.374  0.00  0.00    +0.000 OA
ENDBRANCH  25  34
ENDBRANCH  24  28
ENDBRANCH  22  24
ENDBRANCH   1  22
TORSDOF 6
ENDMDL
MODEL 2
REMARK VINA RESULT:      -8.3      1.121      1.193
REMARK  Name = 
REMARK  7 active torsions:
REMARK  status: ('A' for Active; 'I' for Inactive)
REMARK    1  A    between atoms: C_1  and  S_2
REMARK    2  A    between atoms: S_2  and  N_5
REMARK    3  A    between atoms: C_8  and  C_9
REMARK    4  A    between atoms: C_9  and  N_10
REMARK    5  A    between atoms: N_10  and  C_11
REMARK    6  A    between atoms: C_16  and  C_17
REMARK    7  A    between atoms: N_19  and  C_20
REMARK                            x       y       z     vdW  Elec       q    Type
REMARK                         _______ _______ _______ _____ _____    ______ ____
ROOT
ATOM      1  C   UNL     1       0.094  10.022  20.006  0.00  0.00    +0.000 A 
ATOM      2  C   UNL     1      -0.603  10.530  21.117  0.00  0.00    +0.000 A 
ATOM      3  C   UNL     1      -0.282  10.156  22.426  0.00  0.00    +0.000 A 
ATOM      4  C   UNL     1       0.717   9.223  22.662  0.00  0.00    +0.000 A 
ATOM      5  C   UNL     1       1.381   8.654  21.586  0.00  0.00    +0.000 A 
ATOM      6  C   UNL     1       1.068   9.033  20.264  0.00  0.00    +0.000 A 
ENDROOT
BRANCH   6   7
ATOM      7  C   UNL     1       1.871   8.375  19.198  0.00  0.00    +0.000 C 
ATOM      8  O   UNL     1       2.090   9.019  18.175  0.00  0.00    +0.000 OA
ATOM      9  N   UNL     1       2.362   7.102  19.483  0.00  0.00    +0.000 N 
ATOM     10  H   UNL     1       2.263   6.809  20.454  0.00  0.00    +0.000 HD
BRANCH   9  11
ATOM     11  C   UNL     1       3.350   6.450  18.714  0.00  0.00    +0.000 A 
ATOM     12  C   UNL     1       3.584   6.770  17.358  0.00  0.00    +0.000 A 
ATOM     13  C   UNL     1       4.791   6.447  16.735  0.00  0.00    +0.000 A 
ATOM     14  C   UNL     1       5.726   5.802  17.508  0.00  0.00    +0.000 A 
ATOM     15  C   UNL     1       5.427   5.338  18.777  0.00  0.00    +0.000 A 
ATOM     16  C   UNL     1       4.223   5.596  19.392  0.00  0.00    +0.000 A 
ATOM     17  O   UNL     1       6.524   4.801  19.388  0.00  0.00    +0.000 OA
ATOM     18  C   UNL     1       7.519   5.403  18.542  0.00  0.00    +0.000 C 
ATOM     19  F   UNL     1       7.890   6.579  19.120  0.00  0.00    +0.000 F 
ATOM     20  F   UNL     1       8.612   4.611  18.492  0.00  0.00    +0.000 F 
ATOM     21  O   UNL     1       7.049   5.666  17.216  0.00  0.00    +0.000 OA
ENDBRANCH   9  11
ENDBRANCH   6   7
BRANCH   1  22
ATOM     22  N   UNL     1      -0.244  10.386  18.687  0.00  0.00    +0.000 N 
ATOM     23  H   UNL     1       0.550  10.232  18.061  0.00  0.00    +0.000 HD
BRANCH  22  24
ATOM     24  C   UNL     1      -0.793  11.720  18.451  0.00  0.00    +0.000 C 
BRANCH  24  28
ATOM     25  N   UNL     1      -5.701  11.589  19.121  0.00  0.00    +0.000 N 
ATOM     26  C   UNL     1      -4.552  11.471  18.319  0.00  0.00    +0.000 A 
ATOM     27  C   UNL     1      -3.281  11.675  18.819  0.00  0.00    +0.000 A 
ATOM     28  C   UNL     1      -2.201  11.560  17.939  0.00  0.00    +0.000 A 
ATOM     29  C   UNL     1      -2.463  11.281  16.595  0.00  0.00    +0.000 A 
ATOM     30  C   UNL     1      -3.782  11.125  16.194  0.00  0.00    +0.000 A 
ATOM     31  N   UNL     1      -4.840  11.214  17.029  0.00  0.00    +0.000 NA
ATOM     32  H   UNL     1      -6.449  10.999  18.765  0.00  0.00    +0.000 HD
BRANCH  25  34
ATOM     33  C   UNL     1      -7.530  12.947  20.587  0.00  0.00    +0.000 C 
ATOM     34  S   UNL     1      -6.242  13.161  19.371  0.00  0.00    +0.000 S 
ATOM     35  O   UNL     1      -6.833  13.667  18.151  0.00  0.00    +0.000 OA
ATOM     36  O   UNL     1      -5.152  13.859  20.019  0.00  0.00    +0.000 OA
ENDBRANCH  25  34
ENDBRANCH  24  28
ENDBRANCH  22  24
ENDBRANCH   1  22
TORSDOF 6
ENDMDL
MODEL 3
REMARK VINA RESULT:      -8.3      5.141      9.932
REMARK  Name = 
REMARK  7 active torsions:
REMARK  status: ('A' for Active; 'I' for Inactive)
REMARK    1  A    between atoms: C_1  and  S_2
REMARK    2  A    between atoms: S_2  and  N_5
REMARK    3  A    between atoms: C_8  and  C_9
REMARK    4  A    between atoms: C_9  and  N_10
REMARK    5  A    between atoms: N_10  and  C_11
REMARK    6  A    between atoms: C_16  and  C_17
REMARK    7  A    between atoms: N_19  and  C_20
REMARK                            x       y       z     vdW  Elec       q    Type
REMARK                         _______ _______ _______ _____ _____    ______ ____
ROOT
ATOM      1  C   UNL     1       3.369   3.542  19.725  0.00  0.00    +0.000 A 
ATOM      2  C   UNL     1       3.291   2.329  20.431  0.00  0.00    +0.000 A 
ATOM      3  C   UNL     1       2.201   2.022  21.255  0.00  0.00    +0.000 A 
ATOM      4  C   UNL     1       1.178   2.942  21.433  0.00  0.00    +0.000 A 
ATOM      5  C   UNL     1       1.256   4.173  20.801  0.00  0.00    +0.000 A 
ATOM      6  C   UNL     1       2.348   4.487  19.965  0.00  0.00    +0.000 A 
ENDROOT
BRANCH   6   7
ATOM      7  C   UNL     1       2.301   5.826  19.319  0.00  0.00    +0.000 C 
ATOM      8  O   UNL     1       2.313   5.865  18.092  0.00  0.00    +0.000 OA
ATOM      9  N   UNL     1       2.182   6.924  20.170  0.00  0.00    +0.000 N 
ATOM     10  H   UNL     1       1.974   6.697  21.141  0.00  0.00    +0.000 HD
BRANCH   9  11
ATOM     11  C   UNL     1       1.857   8.227  19.732  0.00  0.00    +0.000 A 
ATOM     12  C   UNL     1       2.239   8.714  18.462  0.00  0.00    +0.000 A 
ATOM     13  C   UNL     1       1.585   9.798  17.875  0.00  0.00    +0.000 A 
ATOM     14  C   UNL     1       0.562  10.361  18.598  0.00  0.00    +0.000 A 
ATOM     15  C   UNL     1       0.307   9.994  19.907  0.00  0.00    +0.000 A 
ATOM     16  C   UNL     1       0.977   8.964  20.528  0.00  0.00    +0.000 A 
ATOM     17  O   UNL     1      -0.799  10.624  20.401  0.00  0.00    +0.000 OA
ATOM     18  C   UNL     1      -1.370  11.010  19.139  0.00  0.00    +0.000 C 
ATOM     19  F   UNL     1      -2.221  10.019  18.754  0.00  0.00    +0.000 F 
ATOM     20  F   UNL     1      -2.099  12.136  19.295  0.00  0.00    +0.000 F 
ATOM     21  O   UNL     1      -0.391  11.204  18.112  0.00  0.00    +0.000 OA
ENDBRANCH   9  11
ENDBRANCH   6   7
BRANCH   1  22
ATOM     22  N   UNL     1       4.478   3.857  18.912  0.00  0.00    +0.000 N 
ATOM     23  H   UNL     1       4.824   3.017  18.443  0.00  0.00    +0.000 HD
BRANCH  22  24
ATOM     24  C   UNL     1       5.601   4.573  19.513  0.00  0.00    +0.000 C 
BRANCH  24  28
ATOM     25  N   UNL     1       7.768   4.717  15.059  0.00  0.00    +0.000 N 
ATOM     26  C   UNL     1       7.395   5.307  16.281  0.00  0.00    +0.000 A 
ATOM     27  C   UNL     1       6.680   4.620  17.242  0.00  0.00    +0.000 A 
ATOM     28  C   UNL     1       6.334   5.298  18.414  0.00  0.00    +0.000 A 
ATOM     29  C   UNL     1       6.696   6.641  18.540  0.00  0.00    +0.000 A 
ATOM     30  C   UNL     1       7.389   7.242  17.498  0.00  0.00    +0.000 A 
ATOM     31  N   UNL     1       7.750   6.603  16.364  0.00  0.00    +0.000 NA
ATOM     32  H   UNL     1       8.617   5.147  14.699  0.00  0.00    +0.000 HD
BRANCH  25  34
ATOM     33  C   UNL     1       7.452   5.116  12.399  0.00  0.00    +0.000 C 
ATOM     34  S   UNL     1       6.566   4.681  13.886  0.00  0.00    +0.000 S 
ATOM     35  O   UNL     1       5.589   5.712  14.164  0.00  0.00    +0.000 OA
ATOM     36  O   UNL     1       6.173   3.294  13.761  0.00  0.00    +0.000 OA
ENDBRANCH  25  34
ENDBRANCH  24  28
ENDBRANCH  22  24
ENDBRANCH   1  22
TORSDOF 6
ENDMDL
MODEL 4
REMARK VINA RESULT:      -8.2      2.664      4.004
REMARK  Name = 
REMARK  7 active torsions:
REMARK  status: ('A' for Active; 'I' for Inactive)
REMARK    1  A    between atoms: C_1  and  S_2
REMARK    2  A    between atoms: S_2  and  N_5
REMARK    3  A    between atoms: C_8  and  C_9
REMARK    4  A    between atoms: C_9  and  N_10
REMARK    5  A    between atoms: N_10  and  C_11
REMARK    6  A    between atoms: C_16  and  C_17
REMARK    7  A    between atoms: N_19  and  C_20
REMARK                            x       y       z     vdW  Elec       q    Type
REMARK                         _______ _______ _______ _____ _____    ______ ____
ROOT
ATOM      1  C   UNL     1       0.100  11.424  18.948  0.00  0.00    +0.000 A 
ATOM      2  C   UNL     1      -0.937  12.252  18.483  0.00  0.00    +0.000 A 
ATOM      3  C   UNL     1      -1.951  11.770  17.647  0.00  0.00    +0.000 A 
ATOM      4  C   UNL     1      -1.930  10.453  17.211  0.00  0.00    +0.000 A 
ATOM      5  C   UNL     1      -0.887   9.627  17.599  0.00  0.00    +0.000 A 
ATOM      6  C   UNL     1       0.134  10.104  18.447  0.00  0.00    +0.000 A 
ENDROOT
BRANCH   6   7
ATOM      7  C   UNL     1       1.181   9.114  18.816  0.00  0.00    +0.000 C 
ATOM      8  O   UNL     1       1.363   8.902  20.012  0.00  0.00    +0.000 OA
ATOM      9  N   UNL     1       1.821   8.461  17.764  0.00  0.00    +0.000 N 
ATOM     10  H   UNL     1       1.400   8.604  16.847  0.00  0.00    +0.000 HD
BRANCH   9  11
ATOM     11  C   UNL     1       2.633   7.317  17.925  0.00  0.00    +0.000 A 
ATOM     12  C   UNL     1       2.096   6.047  18.232  0.00  0.00    +0.000 A 
ATOM     13  C   UNL     1       2.815   4.877  17.982  0.00  0.00    +0.000 A 
ATOM     14  C   UNL     1       4.063   5.031  17.431  0.00  0.00    +0.000 A 
ATOM     15  C   UNL     1       4.651   6.275  17.296  0.00  0.00    +0.000 A 
ATOM     16  C   UNL     1       3.983   7.443  17.588  0.00  0.00    +0.000 A 
ATOM     17  O   UNL     1       5.855   6.197  16.656  0.00  0.00    +0.000 OA
ATOM     18  C   UNL     1       5.668   4.897  16.071  0.00  0.00    +0.000 C 
ATOM     19  F   UNL     1       5.129   5.079  14.834  0.00  0.00    +0.000 F 
ATOM     20  F   UNL     1       6.866   4.295  15.908  0.00  0.00    +0.000 F 
ATOM     21  O   UNL     1       4.800   4.053  16.835  0.00  0.00    +0.000 OA
ENDBRANCH   9  11
ENDBRANCH   6   7
BRANCH   1  22
ATOM     22  N   UNL     1       1.131  11.918  19.773  0.00  0.00    +0.000 N 
ATOM     23  H   UNL     1       1.585  11.149  20.273  0.00  0.00    +0.000 HD
BRANCH  22  24
ATOM     24  C   UNL     1       0.815  12.987  20.718  0.00  0.00    +0.000 C 
BRANCH  24  28
ATOM     25  N   UNL     1      -3.391  13.581  23.270  0.00  0.00    +0.000 N 
ATOM     26  C   UNL     1      -2.264  12.831  22.886  0.00  0.00    +0.000 A 
ATOM     27  C   UNL     1      -1.331  13.312  21.989  0.00  0.00    +0.000 A 
ATOM     28  C   UNL     1      -0.257  12.484  21.649  0.00  0.00    +0.000 A 
ATOM     29  C   UNL     1      -0.202  11.203  22.204  0.00  0.00    +0.000 A 
ATOM     30  C   UNL     1      -1.211  10.810  23.072  0.00  0.00    +0.000 A 
ATOM     31  N   UNL     1      -2.248  11.599  23.429  0.00  0.00    +0.000 NA
ATOM     32  H   UNL     1      -3.696  13.316  24.204  0.00  0.00    +0.000 HD
BRANCH  25  34
ATOM     33  C   UNL     1      -5.873  14.620  22.961  0.00  0.00    +0.000 C 
ATOM     34  S   UNL     1      -4.675  13.549  22.186  0.00  0.00    +0.000 S 
ATOM     35  O   UNL     1      -5.220  12.210  22.122  0.00  0.00    +0.000 OA
ATOM     36  O   UNL     1      -4.206  14.223  20.993  0.00  0.00    +0.000 OA
ENDBRANCH  25  34
ENDBRANCH  24  28
ENDBRANCH  22  24
ENDBRANCH   1  22
TORSDOF 6
ENDMDL
MODEL 5
REMARK VINA RESULT:      -8.2      1.124      1.195
REMARK  Name = 
REMARK  7 active torsions:
REMARK  status: ('A' for Active; 'I' for Inactive)
REMARK    1  A    between atoms: C_1  and  S_2
REMARK    2  A    between atoms: S_2  and  N_5
REMARK    3  A    between atoms: C_8  and  C_9
REMARK    4  A    between atoms: C_9  and  N_10
REMARK    5  A    between atoms: N_10  and  C_11
REMARK    6  A    between atoms: C_16  and  C_17
REMARK    7  A    between atoms: N_19  and  C_20
REMARK                            x       y       z     vdW  Elec       q    Type
REMARK                         _______ _______ _______ _____ _____    ______ ____
ROOT
ATOM      1  C   UNL     1       0.191   9.920  20.005  0.00  0.00    +0.000 A 
ATOM      2  C   UNL     1      -0.413  10.611  21.070  0.00  0.00    +0.000 A 
ATOM      3  C   UNL     1      -0.116  10.317  22.406  0.00  0.00    +0.000 A 
ATOM      4  C   UNL     1       0.762   9.289  22.717  0.00  0.00    +0.000 A 
ATOM      5  C   UNL     1       1.326   8.546  21.692  0.00  0.00    +0.000 A 
ATOM      6  C   UNL     1       1.036   8.841  20.343  0.00  0.00    +0.000 A 
ENDROOT
BRANCH   6   7
ATOM      7  C   UNL     1       1.727   7.993  19.335  0.00  0.00    +0.000 C 
ATOM      8  O   UNL     1       2.108   8.538  18.302  0.00  0.00    +0.000 OA
ATOM      9  N   UNL     1       1.941   6.660  19.682  0.00  0.00    +0.000 N 
ATOM     10  H   UNL     1       1.750   6.433  20.657  0.00  0.00    +0.000 HD
BRANCH   9  11
ATOM     11  C   UNL     1       2.803   5.793  18.978  0.00  0.00    +0.000 A 
ATOM     12  C   UNL     1       2.342   4.613  18.352  0.00  0.00    +0.000 A 
ATOM     13  C   UNL     1       3.074   3.998  17.335  0.00  0.00    +0.000 A 
ATOM     14  C   UNL     1       4.259   4.597  16.986  0.00  0.00    +0.000 A 
ATOM     15  C   UNL     1       4.789   5.645  17.716  0.00  0.00    +0.000 A 
ATOM     16  C   UNL     1       4.111   6.234  18.759  0.00  0.00    +0.000 A 
ATOM     17  O   UNL     1       5.929   6.132  17.144  0.00  0.00    +0.000 OA
ATOM     18  C   UNL     1       5.733   5.571  15.836  0.00  0.00    +0.000 C 
ATOM     19  F   UNL     1       5.074   6.498  15.086  0.00  0.00    +0.000 F 
ATOM     20  F   UNL     1       6.931   5.351  15.251  0.00  0.00    +0.000 F 
ATOM     21  O   UNL     1       4.971   4.359  15.849  0.00  0.00    +0.000 OA
ENDBRANCH   9  11
ENDBRANCH   6   7
BRANCH   1  22
ATOM     22  N   UNL     1      -0.126  10.205  18.661  0.00  0.00    +0.000 N 
ATOM     23  H   UNL     1       0.685  10.036  18.061  0.00  0.00    +0.000 HD
BRANCH  22  24
ATOM     24  C   UNL     1      -0.698  11.511  18.342  0.00  0.00    +0.000 C 
BRANCH  24  28
ATOM     25  N   UNL     1      -5.623  11.050  18.640  0.00  0.00    +0.000 N 
ATOM     26  C   UNL     1      -4.414  11.037  17.921  0.00  0.00    +0.000 A 
ATOM     27  C   UNL     1      -3.198  11.297  18.521  0.00  0.00    +0.000 A 
ATOM     28  C   UNL     1      -2.053  11.287  17.721  0.00  0.00    +0.000 A 
ATOM     29  C   UNL     1      -2.199  11.049  16.351  0.00  0.00    +0.000 A 
ATOM     30  C   UNL     1      -3.473  10.829  15.848  0.00  0.00    +0.000 A 
ATOM     31  N   UNL     1      -4.592  10.817  16.605  0.00  0.00    +0.000 NA
ATOM     32  H   UNL     1      -6.304  10.430  18.206  0.00  0.00    +0.000 HD
BRANCH  25  34
ATOM     33  C   UNL     1      -6.460  13.221  17.254  0.00  0.00    +0.000 C 
ATOM     34  S   UNL     1      -6.281  12.573  18.907  0.00  0.00    +0.000 S 
ATOM     35  O   UNL     1      -5.328  13.390  19.626  0.00  0.00    +0.000 OA
ATOM     36  O   UNL     1      -7.613  12.347  19.425  0.00  0.00    +0.000 OA
ENDBRANCH  25  34
ENDBRANCH  24  28
ENDBRANCH  22  24
ENDBRANCH   1  22
TORSDOF 6
ENDMDL
MODEL 6
REMARK VINA RESULT:      -8.1      4.000      5.201
REMARK  Name = 
REMARK  7 active torsions:
REMARK  status: ('A' for Active; 'I' for Inactive)
REMARK    1  A    between atoms: C_1  and  S_2
REMARK    2  A    between atoms: S_2  and  N_5
REMARK    3  A    between atoms: C_8  and  C_9
REMARK    4  A    between atoms: C_9  and  N_10
REMARK    5  A    between atoms: N_10  and  C_11
REMARK    6  A    between atoms: C_16  and  C_17
REMARK    7  A    between atoms: N_19  and  C_20
REMARK                            x       y       z     vdW  Elec       q    Type
REMARK                         _______ _______ _______ _____ _____    ______ ____
ROOT
ATOM      1  C   UNL     1       0.934  10.058  20.063  0.00  0.00    +0.000 A 
ATOM      2  C   UNL     1       0.205  10.756  21.041  0.00  0.00    +0.000 A 
ATOM      3  C   UNL     1      -0.092  10.190  22.287  0.00  0.00    +0.000 A 
ATOM      4  C   UNL     1       0.292   8.888  22.573  0.00  0.00    +0.000 A 
ATOM      5  C   UNL     1       0.957   8.150  21.606  0.00  0.00    +0.000 A 
ATOM      6  C   UNL     1       1.265   8.716  20.352  0.00  0.00    +0.000 A 
ENDROOT
BRANCH   6   7
ATOM      7  C   UNL     1       2.008   7.835  19.411  0.00  0.00    +0.000 C 
ATOM      8  O   UNL     1       2.564   8.367  18.454  0.00  0.00    +0.000 OA
ATOM      9  N   UNL     1       2.064   6.481  19.738  0.00  0.00    +0.000 N 
ATOM     10  H   UNL     1       1.731   6.249  20.673  0.00  0.00    +0.000 HD
BRANCH   9  11
ATOM     11  C   UNL     1       2.935   5.557  19.121  0.00  0.00    +0.000 A 
ATOM     12  C   UNL     1       2.671   5.005  17.847  0.00  0.00    +0.000 A 
ATOM     13  C   UNL     1       3.690   4.446  17.074  0.00  0.00    +0.000 A 
ATOM     14  C   UNL     1       4.950   4.459  17.620  0.00  0.00    +0.000 A 
ATOM     15  C   UNL     1       5.172   4.839  18.931  0.00  0.00    +0.000 A 
ATOM     16  C   UNL     1       4.173   5.343  19.732  0.00  0.00    +0.000 A 
ATOM     17  O   UNL     1       6.504   4.849  19.234  0.00  0.00    +0.000 OA
ATOM     18  C   UNL     1       6.999   4.876  17.885  0.00  0.00    +0.000 C 
ATOM     19  F   UNL     1       7.166   6.181  17.536  0.00  0.00    +0.000 F 
ATOM     20  F   UNL     1       8.212   4.283  17.834  0.00  0.00    +0.000 F 
ATOM     21  O   UNL     1       6.115   4.254  16.946  0.00  0.00    +0.000 OA
ENDBRANCH   9  11
ENDBRANCH   6   7
BRANCH   1  22
ATOM     22  N   UNL     1       1.214  10.623  18.802  0.00  0.00    +0.000 N 
ATOM     23  H   UNL     1       2.126  11.087  18.815  0.00  0.00    +0.000 HD
BRANCH  22  24
ATOM     24  C   UNL     1       0.226  11.519  18.205  0.00  0.00    +0.000 C 
BRANCH  24  28
ATOM     25  N   UNL     1       3.542  14.987  19.444  0.00  0.00    +0.000 N 
ATOM     26  C   UNL     1       2.225  14.556  19.198  0.00  0.00    +0.000 A 
ATOM     27  C   UNL     1       1.934  13.262  18.817  0.00  0.00    +0.000 A 
ATOM     28  C   UNL     1       0.598  12.933  18.570  0.00  0.00    +0.000 A 
ATOM     29  C   UNL     1      -0.368  13.936  18.686  0.00  0.00    +0.000 A 
ATOM     30  C   UNL     1       0.040  15.212  19.046  0.00  0.00    +0.000 A 
ATOM     31  N   UNL     1       1.322  15.549  19.307  0.00  0.00    +0.000 NA
ATOM     32  H   UNL     1       3.548  15.754  20.113  0.00  0.00    +0.000 HD
BRANCH  25  34
ATOM     33  C   UNL     1       5.403  16.773  18.619  0.00  0.00    +0.000 C 
ATOM     34  S   UNL     1       4.435  15.376  18.075  0.00  0.00    +0.000 S 
ATOM     35  O   UNL     1       3.541  15.811  17.023  0.00  0.00    +0.000 OA
ATOM     36  O   UNL     1       5.350  14.274  17.870  0.00  0.00    +0.000 OA
ENDBRANCH  25  34
ENDBRANCH  24  28
ENDBRANCH  22  24
ENDBRANCH   1  22
TORSDOF 6
ENDMDL
MODEL 7
REMARK VINA RESULT:      -8.1      2.756      4.088
REMARK  Name = 
REMARK  7 active torsions:
REMARK  status: ('A' for Active; 'I' for Inactive)
REMARK    1  A    between atoms: C_1  and  S_2
REMARK    2  A    between atoms: S_2  and  N_5
REMARK    3  A    between atoms: C_8  and  C_9
REMARK    4  A    between atoms: C_9  and  N_10
REMARK    5  A    between atoms: N_10  and  C_11
REMARK    6  A    between atoms: C_16  and  C_17
REMARK    7  A    between atoms: N_19  and  C_20
REMARK                            x       y       z     vdW  Elec       q    Type
REMARK                         _______ _______ _______ _____ _____    ______ ____
ROOT
ATOM      1  C   UNL     1      -0.589  11.607  18.758  0.00  0.00    +0.000 A 
ATOM      2  C   UNL     1      -1.725  12.176  18.156  0.00  0.00    +0.000 A 
ATOM      3  C   UNL     1      -2.547  11.447  17.290  0.00  0.00    +0.000 A 
ATOM      4  C   UNL     1      -2.229  10.137  16.961  0.00  0.00    +0.000 A 
ATOM      5  C   UNL     1      -1.080   9.566  17.487  0.00  0.00    +0.000 A 
ATOM      6  C   UNL     1      -0.251  10.294  18.366  0.00  0.00    +0.000 A 
ENDROOT
BRANCH   6   7
ATOM      7  C   UNL     1       0.935   9.562  18.887  0.00  0.00    +0.000 C 
ATOM      8  O   UNL     1       1.191   9.677  20.083  0.00  0.00    +0.000 OA
ATOM      9  N   UNL     1       1.617   8.753  17.980  0.00  0.00    +0.000 N 
ATOM     10  H   UNL     1       1.144   8.612  17.088  0.00  0.00    +0.000 HD
BRANCH   9  11
ATOM     11  C   UNL     1       2.583   7.793  18.352  0.00  0.00    +0.000 A 
ATOM     12  C   UNL     1       2.394   6.915  19.443  0.00  0.00    +0.000 A 
ATOM     13  C   UNL     1       3.120   5.729  19.552  0.00  0.00    +0.000 A 
ATOM     14  C   UNL     1       4.024   5.470  18.551  0.00  0.00    +0.000 A 
ATOM     15  C   UNL     1       4.330   6.410  17.584  0.00  0.00    +0.000 A 
ATOM     16  C   UNL     1       3.665   7.611  17.488  0.00  0.00    +0.000 A 
ATOM     17  O   UNL     1       5.192   5.911  16.649  0.00  0.00    +0.000 OA
ATOM     18  C   UNL     1       4.982   4.517  16.932  0.00  0.00    +0.000 C 
ATOM     19  F   UNL     1       3.987   4.077  16.112  0.00  0.00    +0.000 F 
ATOM     20  F   UNL     1       6.098   3.818  16.630  0.00  0.00    +0.000 F 
ATOM     21  O   UNL     1       4.607   4.266  18.291  0.00  0.00    +0.000 OA
ENDBRANCH   9  11
ENDBRANCH   6   7
BRANCH   1  22
ATOM     22  N   UNL     1       0.249  12.351  19.614  0.00  0.00    +0.000 N 
ATOM     23  H   UNL     1       0.720  11.731  20.277  0.00  0.00    +0.000 HD
BRANCH  22  24
ATOM     24  C   UNL     1      -0.325  13.484  20.338  0.00  0.00    +0.000 C 
BRANCH  24  28
ATOM     25  N   UNL     1      -4.257  13.718  23.344  0.00  0.00    +0.000 N 
ATOM     26  C   UNL     1      -3.065  13.116  22.898  0.00  0.00    +0.000 A 
ATOM     27  C   UNL     1      -2.338  13.621  21.839  0.00  0.00    +0.000 A 
ATOM     28  C   UNL     1      -1.180  12.940  21.452  0.00  0.00    +0.000 A 
ATOM     29  C   UNL     1      -0.837  11.768  22.131  0.00  0.00    +0.000 A 
ATOM     30  C   UNL     1      -1.658  11.334  23.163  0.00  0.00    +0.000 A 
ATOM     31  N   UNL     1      -2.772  11.985  23.566  0.00  0.00    +0.000 NA
ATOM     32  H   UNL     1      -4.403  13.531  24.334  0.00  0.00    +0.000 HD
BRANCH  25  34
ATOM     33  C   UNL     1      -6.860  13.065  23.712  0.00  0.00    +0.000 C 
ATOM     34  S   UNL     1      -5.628  13.338  22.450  0.00  0.00    +0.000 S 
ATOM     35  O   UNL     1      -5.410  12.099  21.736  0.00  0.00    +0.000 OA
ATOM     36  O   UNL     1      -5.995  14.550  21.749  0.00  0.00    +0.000 OA
ENDBRANCH  25  34
ENDBRANCH  24  28
ENDBRANCH  22  24
ENDBRANCH   1  22
TORSDOF 6
ENDMDL
MODEL 8
REMARK VINA RESULT:      -8.1      4.147      5.150
REMARK  Name = 
REMARK  7 active torsions:
REMARK  status: ('A' for Active; 'I' for Inactive)
REMARK    1  A    between atoms: C_1  and  S_2
REMARK    2  A    between atoms: S_2  and  N_5
REMARK    3  A    between atoms: C_8  and  C_9
REMARK    4  A    between atoms: C_9  and  N_10
REMARK    5  A    between atoms: N_10  and  C_11
REMARK    6  A    between atoms: C_16  and  C_17
REMARK    7  A    between atoms: N_19  and  C_20
REMARK                            x       y       z     vdW  Elec       q    Type
REMARK                         _______ _______ _______ _____ _____    ______ ____
ROOT
ATOM      1  C   UNL     1       0.860   9.956  19.746  0.00  0.00    +0.000 A 
ATOM      2  C   UNL     1       0.150  10.690  20.712  0.00  0.00    +0.000 A 
ATOM      3  C   UNL     1       0.040  10.256  22.038  0.00  0.00    +0.000 A 
ATOM      4  C   UNL     1       0.598   9.046  22.426  0.00  0.00    +0.000 A 
ATOM      5  C   UNL     1       1.250   8.267  21.483  0.00  0.00    +0.000 A 
ATOM      6  C   UNL     1       1.370   8.702  20.147  0.00  0.00    +0.000 A 
ENDROOT
BRANCH   6   7
ATOM      7  C   UNL     1       2.118   7.792  19.238  0.00  0.00    +0.000 C 
ATOM      8  O   UNL     1       2.689   8.297  18.275  0.00  0.00    +0.000 OA
ATOM      9  N   UNL     1       2.158   6.446  19.597  0.00  0.00    +0.000 N 
ATOM     10  H   UNL     1       1.811   6.239  20.533  0.00  0.00    +0.000 HD
BRANCH   9  11
ATOM     11  C   UNL     1       3.030   5.502  19.013  0.00  0.00    +0.000 A 
ATOM     12  C   UNL     1       2.761   4.897  17.765  0.00  0.00    +0.000 A 
ATOM     13  C   UNL     1       3.778   4.311  17.010  0.00  0.00    +0.000 A 
ATOM     14  C   UNL     1       5.041   4.350  17.548  0.00  0.00    +0.000 A 
ATOM     15  C   UNL     1       5.268   4.784  18.842  0.00  0.00    +0.000 A 
ATOM     16  C   UNL     1       4.271   5.316  19.627  0.00  0.00    +0.000 A 
ATOM     17  O   UNL     1       6.601   4.810  19.137  0.00  0.00    +0.000 OA
ATOM     18  C   UNL     1       7.090   4.784  17.786  0.00  0.00    +0.000 C 
ATOM     19  F   UNL     1       7.250   6.075  17.383  0.00  0.00    +0.000 F 
ATOM     20  F   UNL     1       8.304   4.194  17.752  0.00  0.00    +0.000 F 
ATOM     21  O   UNL     1       6.203   4.122  16.877  0.00  0.00    +0.000 OA
ENDBRANCH   9  11
ENDBRANCH   6   7
BRANCH   1  22
ATOM     22  N   UNL     1       0.952  10.386  18.407  0.00  0.00    +0.000 N 
ATOM     23  H   UNL     1       0.949   9.582  17.774  0.00  0.00    +0.000 HD
BRANCH  22  24
ATOM     24  C   UNL     1       2.042  11.287  18.038  0.00  0.00    +0.000 C 
BRANCH  24  28
ATOM     25  N   UNL     1       3.144  15.617  20.180  0.00  0.00    +0.000 N 
ATOM     26  C   UNL     1       2.245  14.725  19.568  0.00  0.00    +0.000 A 
ATOM     27  C   UNL     1       2.635  13.481  19.116  0.00  0.00    +0.000 A 
ATOM     28  C   UNL     1       1.676  12.675  18.497  0.00  0.00    +0.000 A 
ATOM     29  C   UNL     1       0.383  13.180  18.335  0.00  0.00    +0.000 A 
ATOM     30  C   UNL     1       0.107  14.458  18.800  0.00  0.00    +0.000 A 
ATOM     31  N   UNL     1       1.013  15.249  19.417  0.00  0.00    +0.000 NA
ATOM     32  H   UNL     1       2.654  16.233  20.826  0.00  0.00    +0.000 HD
BRANCH  25  34
ATOM     33  C   UNL     1       3.088  16.625  17.667  0.00  0.00    +0.000 C 
ATOM     34  S   UNL     1       4.110  16.498  19.124  0.00  0.00    +0.000 S 
ATOM     35  O   UNL     1       5.292  15.731  18.798  0.00  0.00    +0.000 OA
ATOM     36  O   UNL     1       4.214  17.825  19.692  0.00  0.00    +0.000 OA
ENDBRANCH  25  34
ENDBRANCH  24  28
ENDBRANCH  22  24
ENDBRANCH   1  22
TORSDOF 6
ENDMDL
MODEL 9
REMARK VINA RESULT:      -8.1      3.099      4.402
REMARK  Name = 
REMARK  7 active torsions:
REMARK  status: ('A' for Active; 'I' for Inactive)
REMARK    1  A    between atoms: C_1  and  S_2
REMARK    2  A    between atoms: S_2  and  N_5
REMARK    3  A    between atoms: C_8  and  C_9
REMARK    4  A    between atoms: C_9  and  N_10
REMARK    5  A    between atoms: N_10  and  C_11
REMARK    6  A    between atoms: C_16  and  C_17
REMARK    7  A    between atoms: N_19  and  C_20
REMARK                            x       y       z     vdW  Elec       q    Type
REMARK                         _______ _______ _______ _____ _____    ______ ____
ROOT
ATOM      1  C   UNL     1      -1.023  11.358  19.580  0.00  0.00    +0.000 A 
ATOM      2  C   UNL     1      -2.116  12.016  18.989  0.00  0.00    +0.000 A 
ATOM      3  C   UNL     1      -2.679  11.578  17.784  0.00  0.00    +0.000 A 
ATOM      4  C   UNL     1      -2.133  10.496  17.110  0.00  0.00    +0.000 A 
ATOM      5  C   UNL     1      -1.015   9.864  17.633  0.00  0.00    +0.000 A 
ATOM      6  C   UNL     1      -0.447  10.295  18.850  0.00  0.00    +0.000 A 
ENDROOT
BRANCH   6   7
ATOM      7  C   UNL     1       0.729   9.518  19.323  0.00  0.00    +0.000 C 
ATOM      8  O   UNL     1       0.937   9.484  20.533  0.00  0.00    +0.000 OA
ATOM      9  N   UNL     1       1.460   8.838  18.350  0.00  0.00    +0.000 N 
ATOM     10  H   UNL     1       1.024   8.804  17.429  0.00  0.00    +0.000 HD
BRANCH   9  11
ATOM     11  C   UNL     1       2.427   7.850  18.638  0.00  0.00    +0.000 A 
ATOM     12  C   UNL     1       2.345   7.024  19.781  0.00  0.00    +0.000 A 
ATOM     13  C   UNL     1       3.031   5.811  19.849  0.00  0.00    +0.000 A 
ATOM     14  C   UNL     1       3.788   5.473  18.754  0.00  0.00    +0.000 A 
ATOM     15  C   UNL     1       4.003   6.361  17.715  0.00  0.00    +0.000 A 
ATOM     16  C   UNL     1       3.381   7.587  17.652  0.00  0.00    +0.000 A 
ATOM     17  O   UNL     1       4.717   5.788  16.702  0.00  0.00    +0.000 OA
ATOM     18  C   UNL     1       4.490   4.417  17.070  0.00  0.00    +0.000 C 
ATOM     19  F   UNL     1       3.382   3.992  16.403  0.00  0.00    +0.000 F 
ATOM     20  F   UNL     1       5.529   3.658  16.659  0.00  0.00    +0.000 F 
ATOM     21  O   UNL     1       4.283   4.236  18.475  0.00  0.00    +0.000 OA
ENDBRANCH   9  11
ENDBRANCH   6   7
BRANCH   1  22
ATOM     22  N   UNL     1      -0.445  11.813  20.783  0.00  0.00    +0.000 N 
ATOM     23  H   UNL     1       0.564  11.643  20.780  0.00  0.00    +0.000 HD
BRANCH  22  24
ATOM     24  C   UNL     1      -1.009  11.345  22.047  0.00  0.00    +0.000 C 
BRANCH  24  28
ATOM     25  N   UNL     1      -5.355  13.667  22.581  0.00  0.00    +0.000 N 
ATOM     26  C   UNL     1      -3.971  13.549  22.807  0.00  0.00    +0.000 A 
ATOM     27  C   UNL     1      -3.232  12.493  22.313  0.00  0.00    +0.000 A 
ATOM     28  C   UNL     1      -1.867  12.448  22.611  0.00  0.00    +0.000 A 
ATOM     29  C   UNL     1      -1.328  13.451  23.422  0.00  0.00    +0.000 A 
ATOM     30  C   UNL     1      -2.170  14.450  23.890  0.00  0.00    +0.000 A 
ATOM     31  N   UNL     1      -3.488  14.524  23.600  0.00  0.00    +0.000 NA
ATOM     32  H   UNL     1      -5.638  14.644  22.597  0.00  0.00    +0.000 HD
BRANCH  25  34
ATOM     33  C   UNL     1      -7.471  13.943  24.249  0.00  0.00    +0.000 C 
ATOM     34  S   UNL     1      -6.327  12.741  23.592  0.00  0.00    +0.000 S 
ATOM     35  O   UNL     1      -5.529  12.215  24.679  0.00  0.00    +0.000 OA
ATOM     36  O   UNL     1      -7.081  11.861  22.725  0.00  0.00    +0.000 OA
ENDBRANCH  25  34
ENDBRANCH  24  28
ENDBRANCH  22  24
ENDBRANCH   1  22
TORSDOF 6
ENDMDL
