MODEL 1
REMARK VINA RESULT:      -9.3      0.000      0.000
REMARK  Name = 
REMARK  8 active torsions:
REMARK  status: ('A' for Active; 'I' for Inactive)
REMARK    1  A    between atoms: C_1  and  C_2
REMARK    2  A    between atoms: C_2  and  C_3
REMARK    3  A    between atoms: C_2  and  C_4
REMARK    4  A    between atoms: C_2  and  C_5
REMARK    5  A    between atoms: C_10  and  C_12
REMARK    6  A    between atoms: C_12  and  C_13
REMARK    7  A    between atoms: C_12  and  C_20
REMARK    8  A    between atoms: C_13  and  C_14
REMARK                            x       y       z     vdW  Elec       q    Type
REMARK                         _______ _______ _______ _____ _____    ______ ____
ROOT
ATOM      1  C   UNL     1       2.903   6.380  18.126  0.00  0.00    +0.000 C 
ENDROOT
BRANCH   1   2
ATOM      2  C   UNL     1       3.992   5.847  16.888  0.00  0.00    +0.000 A 
ATOM      3  C   UNL     1       4.957   5.298  17.810  0.00  0.00    +0.000 A 
ATOM      4  S   UNL     1       6.351   6.370  17.618  0.00  0.00    +0.000 S 
ATOM      5  C   UNL     1       6.450   5.623  16.072  0.00  0.00    +0.000 A 
ATOM      6  C   UNL     1       7.616   5.257  15.323  0.00  0.00    +0.000 A 
ATOM      7  C   UNL     1       7.494   4.474  14.187  0.00  0.00    +0.000 A 
ATOM      8  C   UNL     1       6.216   4.146  13.761  0.00  0.00    +0.000 A 
ATOM      9 CL   UNL     1       6.112   3.095  12.378  0.00  0.00    +0.000 Cl
ATOM     10  C   UNL     1       5.033   4.605  14.468  0.00  0.00    +0.000 A 
ATOM     11  C   UNL     1       5.087   5.358  15.741  0.00  0.00    +0.000 A 
ENDBRANCH   1   2
BRANCH   1  17
ATOM     12  C   UNL     1       0.213  11.580  20.436  0.00  0.00    +0.000 A 
ATOM     13  C   UNL     1      -0.506  10.894  21.396  0.00  0.00    +0.000 A 
ATOM     14  S   UNL     1       0.061   9.266  21.469  0.00  0.00    +0.000 S 
ATOM     15  C   UNL     1       1.100   9.485  20.086  0.00  0.00    +0.000 A 
ATOM     16  N   UNL     1       1.732   8.288  19.623  0.00  0.00    +0.000 N 
ATOM     17  C   UNL     1       2.322   7.989  18.332  0.00  0.00    +0.000 C 
ATOM     18  O   UNL     1       2.345   8.807  17.415  0.00  0.00    +0.000 OA
ATOM     19  N   UNL     1       1.086  10.735  19.664  0.00  0.00    +0.000 NA
ATOM     20  H   UNL     1       1.653   7.536  20.301  0.00  0.00    +0.000 HD
BRANCH  12  22
ATOM     21  C   UNL     1      -0.475  13.440  18.779  0.00  0.00    +0.000 C 
ATOM     22  C   UNL     1       0.142  13.103  20.158  0.00  0.00    +0.000 C 
ATOM     23  C   UNL     1       1.572  13.660  20.199  0.00  0.00    +0.000 C 
ATOM     24  C   UNL     1      -0.698  13.868  21.215  0.00  0.00    +0.000 C 
ENDBRANCH  12  22
ENDBRANCH   1  17
BRANCH   1  25
ATOM     25  C   UNL     1       1.669   5.423  18.262  0.00  0.00    +0.000 C 
BRANCH  25  26
ATOM     26  C   UNL     1       1.682   4.431  19.436  0.00  0.00    +0.000 A 
ATOM     27  C   UNL     1       2.114   4.777  20.728  0.00  0.00    +0.000 A 
ATOM     28  C   UNL     1       2.265   3.803  21.732  0.00  0.00    +0.000 A 
ATOM     29  C   UNL     1       1.888   2.487  21.496  0.00  0.00    +0.000 A 
ATOM     30  C   UNL     1       1.338   2.153  20.266  0.00  0.00    +0.000 A 
ATOM     31  C   UNL     1       1.255   3.110  19.242  0.00  0.00    +0.000 A 
ENDBRANCH  25  26
ENDBRANCH   1  25
TORSDOF 5
ENDMDL
MODEL 2
REMARK VINA RESULT:      -9.2      0.295      1.097
REMARK  Name = 
REMARK  8 active torsions:
REMARK  status: ('A' for Active; 'I' for Inactive)
REMARK    1  A    between atoms: C_1  and  C_2
REMARK    2  A    between atoms: C_2  and  C_3
REMARK    3  A    between atoms: C_2  and  C_4
REMARK    4  A    between atoms: C_2  and  C_5
REMARK    5  A    between atoms: C_10  and  C_12
REMARK    6  A    between atoms: C_12  and  C_13
REMARK    7  A    between atoms: C_12  and  C_20
REMARK    8  A    between atoms: C_13  and  C_14
REMARK                            x       y       z     vdW  Elec       q    Type
REMARK                         _______ _______ _______ _____ _____    ______ ____
ROOT
ATOM      1  C   UNL     1       2.866   6.528  18.188  0.00  0.00    +0.000 C 
ENDROOT
BRANCH   1   2
ATOM      2  C   UNL     1       3.963   5.974  16.966  0.00  0.00    +0.000 A 
ATOM      3  C   UNL     1       4.904   5.409  17.901  0.00  0.00    +0.000 A 
ATOM      4  S   UNL     1       6.320   6.456  17.729  0.00  0.00    +0.000 S 
ATOM      5  C   UNL     1       6.428   5.706  16.185  0.00  0.00    +0.000 A 
ATOM      6  C   UNL     1       7.597   5.319  15.453  0.00  0.00    +0.000 A 
ATOM      7  C   UNL     1       7.478   4.537  14.316  0.00  0.00    +0.000 A 
ATOM      8  C   UNL     1       6.200   4.232  13.872  0.00  0.00    +0.000 A 
ATOM      9 CL   UNL     1       6.097   3.183  12.488  0.00  0.00    +0.000 Cl
ATOM     10  C   UNL     1       5.016   4.713  14.561  0.00  0.00    +0.000 A 
ATOM     11  C   UNL     1       5.065   5.466  15.835  0.00  0.00    +0.000 A 
ENDBRANCH   1   2
BRANCH   1  17
ATOM     12  C   UNL     1       0.117  11.755  20.363  0.00  0.00    +0.000 A 
ATOM     13  C   UNL     1      -0.609  11.084  21.328  0.00  0.00    +0.000 A 
ATOM     14  S   UNL     1      -0.034   9.460  21.439  0.00  0.00    +0.000 S 
ATOM     15  C   UNL     1       1.021   9.659  20.064  0.00  0.00    +0.000 A 
ATOM     16  N   UNL     1       1.665   8.457  19.633  0.00  0.00    +0.000 N 
ATOM     17  C   UNL     1       2.273   8.137  18.356  0.00  0.00    +0.000 C 
ATOM     18  O   UNL     1       2.301   8.936  17.423  0.00  0.00    +0.000 OA
ATOM     19  N   UNL     1       1.004  10.900  19.618  0.00  0.00    +0.000 NA
ATOM     20  H   UNL     1       1.583   7.718  20.325  0.00  0.00    +0.000 HD
BRANCH  12  22
ATOM     21  C   UNL     1      -1.290  13.918  20.512  0.00  0.00    +0.000 C 
ATOM     22  C   UNL     1       0.039  13.271  20.054  0.00  0.00    +0.000 C 
ATOM     23  C   UNL     1       0.168  13.452  18.534  0.00  0.00    +0.000 C 
ATOM     24  C   UNL     1       1.179  14.080  20.728  0.00  0.00    +0.000 C 
ENDBRANCH  12  22
ENDBRANCH   1  17
BRANCH   1  25
ATOM     25  C   UNL     1       1.638   5.565  18.342  0.00  0.00    +0.000 C 
BRANCH  25  26
ATOM     26  C   UNL     1       1.750   4.458  19.403  0.00  0.00    +0.000 A 
ATOM     27  C   UNL     1       1.409   3.118  19.152  0.00  0.00    +0.000 A 
ATOM     28  C   UNL     1       1.369   2.168  20.190  0.00  0.00    +0.000 A 
ATOM     29  C   UNL     1       1.771   2.515  21.474  0.00  0.00    +0.000 A 
ATOM     30  C   UNL     1       2.235   3.802  21.712  0.00  0.00    +0.000 A 
ATOM     31  C   UNL     1       2.205   4.767  20.692  0.00  0.00    +0.000 A 
ENDBRANCH  25  26
ENDBRANCH   1  25
TORSDOF 5
ENDMDL
MODEL 3
REMARK VINA RESULT:      -9.2      0.686      1.135
REMARK  Name = 
REMARK  8 active torsions:
REMARK  status: ('A' for Active; 'I' for Inactive)
REMARK    1  A    between atoms: C_1  and  C_2
REMARK    2  A    between atoms: C_2  and  C_3
REMARK    3  A    between atoms: C_2  and  C_4
REMARK    4  A    between atoms: C_2  and  C_5
REMARK    5  A    between atoms: C_10  and  C_12
REMARK    6  A    between atoms: C_12  and  C_13
REMARK    7  A    between atoms: C_12  and  C_20
REMARK    8  A    between atoms: C_13  and  C_14
REMARK                            x       y       z     vdW  Elec       q    Type
REMARK                         _______ _______ _______ _____ _____    ______ ____
ROOT
ATOM      1  C   UNL     1       3.050   6.195  18.127  0.00  0.00    +0.000 C 
ENDROOT
BRANCH   1   2
ATOM      2  C   UNL     1       4.093   5.708  16.832  0.00  0.00    +0.000 A 
ATOM      3  C   UNL     1       5.174   5.305  17.698  0.00  0.00    +0.000 A 
ATOM      4  S   UNL     1       6.434   6.497  17.351  0.00  0.00    +0.000 S 
ATOM      5  C   UNL     1       6.494   5.686  15.836  0.00  0.00    +0.000 A 
ATOM      6  C   UNL     1       7.633   5.398  15.014  0.00  0.00    +0.000 A 
ATOM      7  C   UNL     1       7.508   4.549  13.927  0.00  0.00    +0.000 A 
ATOM      8  C   UNL     1       6.242   4.075  13.618  0.00  0.00    +0.000 A 
ATOM      9 CL   UNL     1       6.144   2.950  12.295  0.00  0.00    +0.000 Cl
ATOM     10  C   UNL     1       5.074   4.452  14.394  0.00  0.00    +0.000 A 
ATOM     11  C   UNL     1       5.145   5.271  15.625  0.00  0.00    +0.000 A 
ENDBRANCH   1   2
BRANCH   1  17
ATOM     12  C   UNL     1       0.181  11.251  20.540  0.00  0.00    +0.000 A 
ATOM     13  C   UNL     1      -0.481  10.527  21.513  0.00  0.00    +0.000 A 
ATOM     14  S   UNL     1       0.163   8.926  21.560  0.00  0.00    +0.000 S 
ATOM     15  C   UNL     1       1.155   9.201  20.153  0.00  0.00    +0.000 A 
ATOM     16  N   UNL     1       1.830   8.037  19.666  0.00  0.00    +0.000 N 
ATOM     17  C   UNL     1       2.400   7.774  18.359  0.00  0.00    +0.000 C 
ATOM     18  O   UNL     1       2.361   8.597  17.447  0.00  0.00    +0.000 OA
ATOM     19  N   UNL     1       1.072  10.451  19.740  0.00  0.00    +0.000 NA
ATOM     20  H   UNL     1       1.803   7.279  20.341  0.00  0.00    +0.000 HD
BRANCH  12  22
ATOM     21  C   UNL     1       1.038  13.630  21.076  0.00  0.00    +0.000 C 
ATOM     22  C   UNL     1       0.032  12.770  20.273  0.00  0.00    +0.000 C 
ATOM     23  C   UNL     1      -1.391  13.184  20.676  0.00  0.00    +0.000 C 
ATOM     24  C   UNL     1       0.231  13.139  18.779  0.00  0.00    +0.000 C 
ENDBRANCH  12  22
ENDBRANCH   1  17
BRANCH   1  25
ATOM     25  C   UNL     1       1.875   5.177  18.337  0.00  0.00    +0.000 C 
BRANCH  25  26
ATOM     26  C   UNL     1       2.041   4.145  19.464  0.00  0.00    +0.000 A 
ATOM     27  C   UNL     1       1.051   3.900  20.432  0.00  0.00    +0.000 A 
ATOM     28  C   UNL     1       1.303   3.069  21.539  0.00  0.00    +0.000 A 
ATOM     29  C   UNL     1       2.508   2.385  21.643  0.00  0.00    +0.000 A 
ATOM     30  C   UNL     1       3.447   2.514  20.630  0.00  0.00    +0.000 A 
ATOM     31  C   UNL     1       3.224   3.399  19.563  0.00  0.00    +0.000 A 
ENDBRANCH  25  26
ENDBRANCH   1  25
TORSDOF 5
ENDMDL
MODEL 4
REMARK VINA RESULT:      -8.8      4.324      9.749
REMARK  Name = 
REMARK  8 active torsions:
REMARK  status: ('A' for Active; 'I' for Inactive)
REMARK    1  A    between atoms: C_1  and  C_2
REMARK    2  A    between atoms: C_2  and  C_3
REMARK    3  A    between atoms: C_2  and  C_4
REMARK    4  A    between atoms: C_2  and  C_5
REMARK    5  A    between atoms: C_10  and  C_12
REMARK    6  A    between atoms: C_12  and  C_13
REMARK    7  A    between atoms: C_12  and  C_20
REMARK    8  A    between atoms: C_13  and  C_14
REMARK                            x       y       z     vdW  Elec       q    Type
REMARK                         _______ _______ _______ _____ _____    ______ ____
ROOT
ATOM      1  C   UNL     1       0.137  10.345  18.197  0.00  0.00    +0.000 C 
ENDROOT
BRANCH   1   2
ATOM      2  C   UNL     1      -0.331  11.143  19.662  0.00  0.00    +0.000 A 
ATOM      3  C   UNL     1      -0.215  12.472  19.113  0.00  0.00    +0.000 A 
ATOM      4  S   UNL     1       1.163  13.151  19.991  0.00  0.00    +0.000 S 
ATOM      5  C   UNL     1       0.074  13.103  21.321  0.00  0.00    +0.000 A 
ATOM      6  C   UNL     1      -0.072  14.038  22.397  0.00  0.00    +0.000 A 
ATOM      7  C   UNL     1      -1.149  13.938  23.263  0.00  0.00    +0.000 A 
ATOM      8  C   UNL     1      -2.007  12.860  23.106  0.00  0.00    +0.000 A 
ATOM      9 CL   UNL     1      -3.388  12.816  24.162  0.00  0.00    +0.000 Cl
ATOM     10  C   UNL     1      -1.795  11.858  22.076  0.00  0.00    +0.000 A 
ATOM     11  C   UNL     1      -0.729  11.954  21.054  0.00  0.00    +0.000 A 
ENDBRANCH   1   2
BRANCH   1  17
ATOM     12  C   UNL     1       4.859   6.187  18.045  0.00  0.00    +0.000 A 
ATOM     13  C   UNL     1       4.328   5.405  19.053  0.00  0.00    +0.000 A 
ATOM     14  S   UNL     1       2.713   5.923  19.376  0.00  0.00    +0.000 S 
ATOM     15  C   UNL     1       2.855   7.291  18.304  0.00  0.00    +0.000 A 
ATOM     16  N   UNL     1       1.739   8.184  18.331  0.00  0.00    +0.000 N 
ATOM     17  C   UNL     1       1.648   9.569  17.909  0.00  0.00    +0.000 C 
ATOM     18  O   UNL     1       2.608  10.177  17.441  0.00  0.00    +0.000 OA
ATOM     19  N   UNL     1       4.015   7.293  17.675  0.00  0.00    +0.000 NA
ATOM     20  H   UNL     1       0.940   7.773  18.804  0.00  0.00    +0.000 HD
BRANCH  12  22
ATOM     21  C   UNL     1       6.071   5.582  15.844  0.00  0.00    +0.000 C 
ATOM     22  C   UNL     1       6.218   5.961  17.337  0.00  0.00    +0.000 C 
ATOM     23  C   UNL     1       6.945   4.817  18.059  0.00  0.00    +0.000 C 
ATOM     24  C   UNL     1       7.135   7.213  17.386  0.00  0.00    +0.000 C 
ENDBRANCH  12  22
ENDBRANCH   1  17
BRANCH   1  25
ATOM     25  C   UNL     1      -0.984   9.375  17.684  0.00  0.00    +0.000 C 
BRANCH  25  26
ATOM     26  C   UNL     1      -2.286  10.020  17.182  0.00  0.00    +0.000 A 
ATOM     27  C   UNL     1      -2.503  10.366  15.837  0.00  0.00    +0.000 A 
ATOM     28  C   UNL     1      -3.638  11.100  15.446  0.00  0.00    +0.000 A 
ATOM     29  C   UNL     1      -4.627  11.408  16.372  0.00  0.00    +0.000 A 
ATOM     30  C   UNL     1      -4.492  10.962  17.679  0.00  0.00    +0.000 A 
ATOM     31  C   UNL     1      -3.326  10.292  18.083  0.00  0.00    +0.000 A 
ENDBRANCH  25  26
ENDBRANCH   1  25
TORSDOF 5
ENDMDL
MODEL 5
REMARK VINA RESULT:      -8.6      4.368      9.814
REMARK  Name = 
REMARK  8 active torsions:
REMARK  status: ('A' for Active; 'I' for Inactive)
REMARK    1  A    between atoms: C_1  and  C_2
REMARK    2  A    between atoms: C_2  and  C_3
REMARK    3  A    between atoms: C_2  and  C_4
REMARK    4  A    between atoms: C_2  and  C_5
REMARK    5  A    between atoms: C_10  and  C_12
REMARK    6  A    between atoms: C_12  and  C_13
REMARK    7  A    between atoms: C_12  and  C_20
REMARK    8  A    between atoms: C_13  and  C_14
REMARK                            x       y       z     vdW  Elec       q    Type
REMARK                         _______ _______ _______ _____ _____    ______ ____
ROOT
ATOM      1  C   UNL     1       0.142  10.601  18.425  0.00  0.00    +0.000 C 
ENDROOT
BRANCH   1   2
ATOM      2  C   UNL     1      -0.092  11.629  19.801  0.00  0.00    +0.000 A 
ATOM      3  C   UNL     1       0.072  12.855  19.059  0.00  0.00    +0.000 A 
ATOM      4  S   UNL     1       1.590  13.508  19.692  0.00  0.00    +0.000 S 
ATOM      5  C   UNL     1       0.655  13.743  21.115  0.00  0.00    +0.000 A 
ATOM      6  C   UNL     1       0.707  14.823  22.057  0.00  0.00    +0.000 A 
ATOM      7  C   UNL     1      -0.271  14.943  23.030  0.00  0.00    +0.000 A 
ATOM      8  C   UNL     1      -1.228  13.942  23.113  0.00  0.00    +0.000 A 
ATOM      9 CL   UNL     1      -2.482  14.174  24.296  0.00  0.00    +0.000 Cl
ATOM     10  C   UNL     1      -1.216  12.797  22.221  0.00  0.00    +0.000 A 
ATOM     11  C   UNL     1      -0.265  12.652  21.096  0.00  0.00    +0.000 A 
ENDBRANCH   1   2
BRANCH   1  17
ATOM     12  C   UNL     1       4.624   6.198  18.057  0.00  0.00    +0.000 A 
ATOM     13  C   UNL     1       4.142   5.484  19.137  0.00  0.00    +0.000 A 
ATOM     14  S   UNL     1       2.588   6.097  19.570  0.00  0.00    +0.000 S 
ATOM     15  C   UNL     1       2.706   7.414  18.434  0.00  0.00    +0.000 A 
ATOM     16  N   UNL     1       1.641   8.366  18.516  0.00  0.00    +0.000 N 
ATOM     17  C   UNL     1       1.584   9.737  18.046  0.00  0.00    +0.000 C 
ATOM     18  O   UNL     1       2.529  10.276  17.476  0.00  0.00    +0.000 OA
ATOM     19  N   UNL     1       3.807   7.332  17.712  0.00  0.00    +0.000 NA
ATOM     20  H   UNL     1       0.867   8.015  19.071  0.00  0.00    +0.000 HD
BRANCH  12  22
ATOM     21  C   UNL     1       6.974   6.991  17.332  0.00  0.00    +0.000 C 
ATOM     22  C   UNL     1       5.905   5.875  17.249  0.00  0.00    +0.000 C 
ATOM     23  C   UNL     1       5.505   5.694  15.777  0.00  0.00    +0.000 C 
ATOM     24  C   UNL     1       6.597   4.567  17.718  0.00  0.00    +0.000 C 
ENDBRANCH  12  22
ENDBRANCH   1  17
BRANCH   1  25
ATOM     25  C   UNL     1      -1.055   9.606  18.237  0.00  0.00    +0.000 C 
BRANCH  25  26
ATOM     26  C   UNL     1      -2.282  10.130  17.471  0.00  0.00    +0.000 A 
ATOM     27  C   UNL     1      -2.430  10.002  16.079  0.00  0.00    +0.000 A 
ATOM     28  C   UNL     1      -3.485  10.636  15.397  0.00  0.00    +0.000 A 
ATOM     29  C   UNL     1      -4.468  11.317  16.103  0.00  0.00    +0.000 A 
ATOM     30  C   UNL     1      -4.409  11.344  17.489  0.00  0.00    +0.000 A 
ATOM     31  C   UNL     1      -3.317  10.773  18.164  0.00  0.00    +0.000 A 
ENDBRANCH  25  26
ENDBRANCH   1  25
TORSDOF 5
ENDMDL
MODEL 6
REMARK VINA RESULT:      -8.5      4.379      9.709
REMARK  Name = 
REMARK  8 active torsions:
REMARK  status: ('A' for Active; 'I' for Inactive)
REMARK    1  A    between atoms: C_1  and  C_2
REMARK    2  A    between atoms: C_2  and  C_3
REMARK    3  A    between atoms: C_2  and  C_4
REMARK    4  A    between atoms: C_2  and  C_5
REMARK    5  A    between atoms: C_10  and  C_12
REMARK    6  A    between atoms: C_12  and  C_13
REMARK    7  A    between atoms: C_12  and  C_20
REMARK    8  A    between atoms: C_13  and  C_14
REMARK                            x       y       z     vdW  Elec       q    Type
REMARK                         _______ _______ _______ _____ _____    ______ ____
ROOT
ATOM      1  C   UNL     1       0.407  11.108  18.672  0.00  0.00    +0.000 C 
ENDROOT
BRANCH   1   2
ATOM      2  C   UNL     1       0.638  12.402  19.802  0.00  0.00    +0.000 A 
ATOM      3  C   UNL     1       0.933  13.388  18.791  0.00  0.00    +0.000 A 
ATOM      4  S   UNL     1       2.642  13.753  19.072  0.00  0.00    +0.000 S 
ATOM      5  C   UNL     1       2.037  14.475  20.510  0.00  0.00    +0.000 A 
ATOM      6  C   UNL     1       2.480  15.666  21.174  0.00  0.00    +0.000 A 
ATOM      7  C   UNL     1       1.732  16.204  22.208  0.00  0.00    +0.000 A 
ATOM      8  C   UNL     1       0.611  15.504  22.628  0.00  0.00    +0.000 A 
ATOM      9 CL   UNL     1      -0.343  16.256  23.873  0.00  0.00    +0.000 Cl
ATOM     10  C   UNL     1       0.223  14.244  22.019  0.00  0.00    +0.000 A 
ATOM     11  C   UNL     1       0.914  13.661  20.847  0.00  0.00    +0.000 A 
ENDBRANCH   1   2
BRANCH   1  17
ATOM     12  C   UNL     1       4.002   5.961  18.228  0.00  0.00    +0.000 A 
ATOM     13  C   UNL     1       3.624   5.477  19.465  0.00  0.00    +0.000 A 
ATOM     14  S   UNL     1       2.292   6.405  20.051  0.00  0.00    +0.000 S 
ATOM     15  C   UNL     1       2.401   7.537  18.729  0.00  0.00    +0.000 A 
ATOM     16  N   UNL     1       1.531   8.667  18.844  0.00  0.00    +0.000 N 
ATOM     17  C   UNL     1       1.601   9.962  18.194  0.00  0.00    +0.000 C 
ATOM     18  O   UNL     1       2.496  10.253  17.404  0.00  0.00    +0.000 OA
ATOM     19  N   UNL     1       3.322   7.175  17.858  0.00  0.00    +0.000 NA
ATOM     20  H   UNL     1       0.827   8.528  19.563  0.00  0.00    +0.000 HD
BRANCH  12  22
ATOM     21  C   UNL     1       6.397   5.023  17.971  0.00  0.00    +0.000 C 
ATOM     22  C   UNL     1       5.046   5.322  17.277  0.00  0.00    +0.000 C 
ATOM     23  C   UNL     1       5.299   6.303  16.123  0.00  0.00    +0.000 C 
ATOM     24  C   UNL     1       4.558   3.982  16.665  0.00  0.00    +0.000 C 
ENDBRANCH  12  22
ENDBRANCH   1  17
BRANCH   1  25
ATOM     25  C   UNL     1      -0.908  10.308  18.971  0.00  0.00    +0.000 C 
BRANCH  25  26
ATOM     26  C   UNL     1      -2.057  10.453  17.960  0.00  0.00    +0.000 A 
ATOM     27  C   UNL     1      -2.070   9.805  16.713  0.00  0.00    +0.000 A 
ATOM     28  C   UNL     1      -3.057  10.090  15.752  0.00  0.00    +0.000 A 
ATOM     29  C   UNL     1      -4.107  10.947  16.058  0.00  0.00    +0.000 A 
ATOM     30  C   UNL     1      -4.182  11.496  17.330  0.00  0.00    +0.000 A 
ATOM     31  C   UNL     1      -3.158  11.267  18.264  0.00  0.00    +0.000 A 
ENDBRANCH  25  26
ENDBRANCH   1  25
TORSDOF 5
ENDMDL
MODEL 7
REMARK VINA RESULT:      -8.4      1.075      1.466
REMARK  Name = 
REMARK  8 active torsions:
REMARK  status: ('A' for Active; 'I' for Inactive)
REMARK    1  A    between atoms: C_1  and  C_2
REMARK    2  A    between atoms: C_2  and  C_3
REMARK    3  A    between atoms: C_2  and  C_4
REMARK    4  A    between atoms: C_2  and  C_5
REMARK    5  A    between atoms: C_10  and  C_12
REMARK    6  A    between atoms: C_12  and  C_13
REMARK    7  A    between atoms: C_12  and  C_20
REMARK    8  A    between atoms: C_13  and  C_14
REMARK                            x       y       z     vdW  Elec       q    Type
REMARK                         _______ _______ _______ _____ _____    ______ ____
ROOT
ATOM      1  C   UNL     1       3.144   6.602  18.317  0.00  0.00    +0.000 C 
ENDROOT
BRANCH   1   2
ATOM      2  C   UNL     1       4.128   6.025  17.012  0.00  0.00    +0.000 A 
ATOM      3  C   UNL     1       5.235   5.650  17.858  0.00  0.00    +0.000 A 
ATOM      4  S   UNL     1       6.500   6.799  17.397  0.00  0.00    +0.000 S 
ATOM      5  C   UNL     1       6.488   5.904  15.929  0.00  0.00    +0.000 A 
ATOM      6  C   UNL     1       7.589   5.550  15.082  0.00  0.00    +0.000 A 
ATOM      7  C   UNL     1       7.408   4.645  14.049  0.00  0.00    +0.000 A 
ATOM      8  C   UNL     1       6.123   4.179  13.815  0.00  0.00    +0.000 A 
ATOM      9 CL   UNL     1       5.956   2.984  12.562  0.00  0.00    +0.000 Cl
ATOM     10  C   UNL     1       4.992   4.619  14.613  0.00  0.00    +0.000 A 
ATOM     11  C   UNL     1       5.124   5.504  15.793  0.00  0.00    +0.000 A 
ENDBRANCH   1   2
BRANCH   1  17
ATOM     12  C   UNL     1      -0.131  11.628  20.221  0.00  0.00    +0.000 A 
ATOM     13  C   UNL     1      -0.739  10.954  21.263  0.00  0.00    +0.000 A 
ATOM     14  S   UNL     1       0.030   9.422  21.468  0.00  0.00    +0.000 S 
ATOM     15  C   UNL     1       1.005   9.634  20.038  0.00  0.00    +0.000 A 
ATOM     16  N   UNL     1       1.772   8.485  19.668  0.00  0.00    +0.000 N 
ATOM     17  C   UNL     1       2.369   8.139  18.392  0.00  0.00    +0.000 C 
ATOM     18  O   UNL     1       2.270   8.862  17.403  0.00  0.00    +0.000 OA
ATOM     19  N   UNL     1       0.825  10.827  19.503  0.00  0.00    +0.000 NA
ATOM     20  H   UNL     1       1.803   7.798  20.415  0.00  0.00    +0.000 HD
BRANCH  12  22
ATOM     21  C   UNL     1       0.631  14.092  20.390  0.00  0.00    +0.000 C 
ATOM     22  C   UNL     1      -0.399  13.096  19.805  0.00  0.00    +0.000 C 
ATOM     23  C   UNL     1      -1.795  13.486  20.314  0.00  0.00    +0.000 C 
ATOM     24  C   UNL     1      -0.382  13.296  18.266  0.00  0.00    +0.000 C 
ENDBRANCH  12  22
ENDBRANCH   1  17
BRANCH   1  25
ATOM     25  C   UNL     1       2.088   5.531  18.762  0.00  0.00    +0.000 C 
BRANCH  25  26
ATOM     26  C   UNL     1       2.555   4.067  18.802  0.00  0.00    +0.000 A 
ATOM     27  C   UNL     1       3.336   3.539  19.844  0.00  0.00    +0.000 A 
ATOM     28  C   UNL     1       3.878   2.243  19.764  0.00  0.00    +0.000 A 
ATOM     29  C   UNL     1       3.564   1.415  18.694  0.00  0.00    +0.000 A 
ATOM     30  C   UNL     1       2.689   1.874  17.719  0.00  0.00    +0.000 A 
ATOM     31  C   UNL     1       2.206   3.193  17.762  0.00  0.00    +0.000 A 
ENDBRANCH  25  26
ENDBRANCH   1  25
TORSDOF 5
ENDMDL
MODEL 8
REMARK VINA RESULT:      -8.4      4.238      9.462
REMARK  Name = 
REMARK  8 active torsions:
REMARK  status: ('A' for Active; 'I' for Inactive)
REMARK    1  A    between atoms: C_1  and  C_2
REMARK    2  A    between atoms: C_2  and  C_3
REMARK    3  A    between atoms: C_2  and  C_4
REMARK    4  A    between atoms: C_2  and  C_5
REMARK    5  A    between atoms: C_10  and  C_12
REMARK    6  A    between atoms: C_12  and  C_13
REMARK    7  A    between atoms: C_12  and  C_20
REMARK    8  A    between atoms: C_13  and  C_14
REMARK                            x       y       z     vdW  Elec       q    Type
REMARK                         _______ _______ _______ _____ _____    ______ ____
ROOT
ATOM      1  C   UNL     1      -0.209  10.583  21.498  0.00  0.00    +0.000 C 
ENDROOT
BRANCH   1   2
ATOM      2  C   UNL     1       0.850  11.855  20.982  0.00  0.00    +0.000 A 
ATOM      3  C   UNL     1       0.195  12.043  19.710  0.00  0.00    +0.000 A 
ATOM      4  S   UNL     1       1.410  11.491  18.547  0.00  0.00    +0.000 S 
ATOM      5  C   UNL     1       2.238  12.911  19.054  0.00  0.00    +0.000 A 
ATOM      6  C   UNL     1       3.037  13.811  18.277  0.00  0.00    +0.000 A 
ATOM      7  C   UNL     1       3.451  15.017  18.819  0.00  0.00    +0.000 A 
ATOM      8  C   UNL     1       3.147  15.267  20.149  0.00  0.00    +0.000 A 
ATOM      9 CL   UNL     1       3.616  16.825  20.765  0.00  0.00    +0.000 Cl
ATOM     10  C   UNL     1       2.424  14.305  20.962  0.00  0.00    +0.000 A 
ATOM     11  C   UNL     1       1.865  13.044  20.425  0.00  0.00    +0.000 A 
ENDBRANCH   1   2
BRANCH   1  17
ATOM     12  C   UNL     1       2.172   5.004  19.818  0.00  0.00    +0.000 A 
ATOM     13  C   UNL     1       2.840   5.514  18.722  0.00  0.00    +0.000 A 
ATOM     14  S   UNL     1       2.801   7.239  18.790  0.00  0.00    +0.000 S 
ATOM     15  C   UNL     1       1.729   7.237  20.165  0.00  0.00    +0.000 A 
ATOM     16  N   UNL     1       1.250   8.530  20.545  0.00  0.00    +0.000 N 
ATOM     17  C   UNL     1       0.093   8.894  21.340  0.00  0.00    +0.000 C 
ATOM     18  O   UNL     1      -0.669   8.055  21.814  0.00  0.00    +0.000 OA
ATOM     19  N   UNL     1       1.499   6.011  20.596  0.00  0.00    +0.000 NA
ATOM     20  H   UNL     1       1.779   9.272  20.097  0.00  0.00    +0.000 HD
BRANCH  12  22
ATOM     21  C   UNL     1       2.091   3.310  21.768  0.00  0.00    +0.000 C 
ATOM     22  C   UNL     1       2.106   3.513  20.234  0.00  0.00    +0.000 C 
ATOM     23  C   UNL     1       3.344   2.807  19.663  0.00  0.00    +0.000 C 
ATOM     24  C   UNL     1       0.848   2.791  19.681  0.00  0.00    +0.000 C 
ENDBRANCH  12  22
ENDBRANCH   1  17
BRANCH   1  25
ATOM     25  C   UNL     1      -0.734  10.824  22.955  0.00  0.00    +0.000 C 
BRANCH  25  26
ATOM     26  C   UNL     1      -1.603  12.071  23.186  0.00  0.00    +0.000 A 
ATOM     27  C   UNL     1      -1.084  13.377  23.196  0.00  0.00    +0.000 A 
ATOM     28  C   UNL     1      -1.880  14.476  23.571  0.00  0.00    +0.000 A 
ATOM     29  C   UNL     1      -3.233  14.303  23.838  0.00  0.00    +0.000 A 
ATOM     30  C   UNL     1      -3.791  13.040  23.707  0.00  0.00    +0.000 A 
ATOM     31  C   UNL     1      -2.982  11.933  23.403  0.00  0.00    +0.000 A 
ENDBRANCH  25  26
ENDBRANCH   1  25
TORSDOF 5
ENDMDL
MODEL 9
REMARK VINA RESULT:      -8.4      4.356      9.658
REMARK  Name = 
REMARK  8 active torsions:
REMARK  status: ('A' for Active; 'I' for Inactive)
REMARK    1  A    between atoms: C_1  and  C_2
REMARK    2  A    between atoms: C_2  and  C_3
REMARK    3  A    between atoms: C_2  and  C_4
REMARK    4  A    between atoms: C_2  and  C_5
REMARK    5  A    between atoms: C_10  and  C_12
REMARK    6  A    between atoms: C_12  and  C_13
REMARK    7  A    between atoms: C_12  and  C_20
REMARK    8  A    between atoms: C_13  and  C_14
REMARK                            x       y       z     vdW  Elec       q    Type
REMARK                         _______ _______ _______ _____ _____    ______ ____
ROOT
ATOM      1  C   UNL     1       0.504  11.131  18.635  0.00  0.00    +0.000 C 
ENDROOT
BRANCH   1   2
ATOM      2  C   UNL     1       0.784  12.440  19.736  0.00  0.00    +0.000 A 
ATOM      3  C   UNL     1       1.049  13.409  18.700  0.00  0.00    +0.000 A 
ATOM      4  S   UNL     1       2.769  13.766  18.914  0.00  0.00    +0.000 S 
ATOM      5  C   UNL     1       2.221  14.514  20.361  0.00  0.00    +0.000 A 
ATOM      6  C   UNL     1       2.696  15.711  20.990  0.00  0.00    +0.000 A 
ATOM      7  C   UNL     1       1.989  16.271  22.041  0.00  0.00    +0.000 A 
ATOM      8  C   UNL     1       0.879  15.586  22.512  0.00  0.00    +0.000 A 
ATOM      9 CL   UNL     1      -0.025  16.364  23.779  0.00  0.00    +0.000 Cl
ATOM     10  C   UNL     1       0.461  14.319  21.937  0.00  0.00    +0.000 A 
ATOM     11  C   UNL     1       1.106  13.713  20.750  0.00  0.00    +0.000 A 
ENDBRANCH   1   2
BRANCH   1  17
ATOM     12  C   UNL     1       3.938   5.868  18.286  0.00  0.00    +0.000 A 
ATOM     13  C   UNL     1       3.560   5.427  19.540  0.00  0.00    +0.000 A 
ATOM     14  S   UNL     1       2.264   6.410  20.116  0.00  0.00    +0.000 S 
ATOM     15  C   UNL     1       2.391   7.504  18.764  0.00  0.00    +0.000 A 
ATOM     16  N   UNL     1       1.556   8.663  18.859  0.00  0.00    +0.000 N 
ATOM     17  C   UNL     1       1.657   9.937  18.174  0.00  0.00    +0.000 C 
ATOM     18  O   UNL     1       2.551  10.180  17.367  0.00  0.00    +0.000 OA
ATOM     19  N   UNL     1       3.290   7.092  17.892  0.00  0.00    +0.000 NA
ATOM     20  H   UNL     1       0.858   8.563  19.589  0.00  0.00    +0.000 HD
BRANCH  12  22
ATOM     21  C   UNL     1       5.262   6.000  16.071  0.00  0.00    +0.000 C 
ATOM     22  C   UNL     1       4.951   5.173  17.342  0.00  0.00    +0.000 C 
ATOM     23  C   UNL     1       4.350   3.828  16.910  0.00  0.00    +0.000 C 
ATOM     24  C   UNL     1       6.313   4.889  18.028  0.00  0.00    +0.000 C 
ENDBRANCH  12  22
ENDBRANCH   1  17
BRANCH   1  25
ATOM     25  C   UNL     1      -0.834  10.379  18.959  0.00  0.00    +0.000 C 
BRANCH  25  26
ATOM     26  C   UNL     1      -2.024  10.639  18.021  0.00  0.00    +0.000 A 
ATOM     27  C   UNL     1      -3.100  11.476  18.361  0.00  0.00    +0.000 A 
ATOM     28  C   UNL     1      -4.245  11.560  17.547  0.00  0.00    +0.000 A 
ATOM     29  C   UNL     1      -4.290  10.893  16.329  0.00  0.00    +0.000 A 
ATOM     30  C   UNL     1      -3.183  10.165  15.917  0.00  0.00    +0.000 A 
ATOM     31  C   UNL     1      -2.070  10.023  16.762  0.00  0.00    +0.000 A 
ENDBRANCH  25  26
ENDBRANCH   1  25
TORSDOF 5
ENDMDL
