MODEL 1
REMARK VINA RESULT:      -8.1      0.000      0.000
REMARK  Name = 
REMARK  7 active torsions:
REMARK  status: ('A' for Active; 'I' for Inactive)
REMARK    1  A    between atoms: C_1  and  O_2
REMARK    2  A    between atoms: O_2  and  C_3
REMARK    3  A    between atoms: C_13  and  C_14
REMARK    4  A    between atoms: C_15  and  C_16
REMARK    5  A    between atoms: N_25  and  C_26
REMARK    6  A    between atoms: C_26  and  C_27
REMARK    7  A    between atoms: N_30  and  C_31
REMARK                            x       y       z     vdW  Elec       q    Type
REMARK                         _______ _______ _______ _____ _____    ______ ____
ROOT
ATOM      1  C   UNL     1       0.100  14.269  21.735  0.00  0.00    +0.000 C 
ATOM      2  C   UNL     1      -0.316  14.460  20.271  0.00  0.00    +0.000 C 
ATOM      3  C   UNL     1      -0.150  13.168  19.424  0.00  0.00    +0.000 C 
ATOM      4  C   UNL     1      -0.840  11.922  20.041  0.00  0.00    +0.000 C 
ATOM      5  C   UNL     1      -0.648  11.905  21.628  0.00  0.00    +0.000 C 
ATOM      6  C   UNL     1      -0.829  13.227  22.352  0.00  0.00    +0.000 C 
ATOM      7  C   UNL     1      -2.397  12.070  19.953  0.00  0.00    +0.000 C 
ATOM      8  C   UNL     1      -2.733  11.479  18.630  0.00  0.00    +0.000 A 
ATOM      9  C   UNL     1      -3.906  11.823  17.950  0.00  0.00    +0.000 A 
ATOM     10  C   UNL     1      -4.104  11.296  16.685  0.00  0.00    +0.000 A 
ATOM     11  C   UNL     1      -3.149  10.446  16.127  0.00  0.00    +0.000 A 
ATOM     12  C   UNL     1      -1.961  10.100  16.855  0.00  0.00    +0.000 A 
ATOM     13  C   UNL     1      -1.779  10.594  18.161  0.00  0.00    +0.000 A 
ATOM     14  C   UNL     1      -0.602  10.487  19.183  0.00  0.00    +0.000 C 
ATOM     15  N   UNL     1      -0.733   9.581  20.373  0.00  0.00    +0.000 NA
ATOM     16  C   UNL     1       0.531   9.334  20.558  0.00  0.00    +0.000 C 
ATOM     17  N   UNL     1       1.517  10.122  21.142  0.00  0.00    +0.000 N 
ATOM     18  N   UNL     1       1.029   8.658  19.542  0.00  0.00    +0.000 N 
ATOM     19  C   UNL     1       0.724   9.621  18.577  0.00  0.00    +0.000 C 
ATOM     20  O   UNL     1       1.398   9.884  17.589  0.00  0.00    +0.000 OA
ATOM     21  H   UNL     1       1.477  11.083  20.789  0.00  0.00    +0.000 HD
ATOM     22  H   UNL     1       2.466   9.894  20.867  0.00  0.00    +0.000 HD
ENDROOT
BRANCH   1  24
ATOM     23  C   UNL     1       2.424  14.925  21.720  0.00  0.00    +0.000 C 
ATOM     24  O   UNL     1       1.479  13.865  21.712  0.00  0.00    +0.000 OA
ENDBRANCH   1  24
BRANCH  11  25
ATOM     25  C   UNL     1      -3.409  10.001  14.770  0.00  0.00    +0.000 C 
ATOM     26  C   UNL     1      -3.721   9.855  13.610  0.00  0.00    +0.000 C 
BRANCH  26  27
ATOM     27  C   UNL     1      -4.094   9.748  12.212  0.00  0.00    +0.000 C 
ATOM     28  C   UNL     1      -5.360   8.997  11.861  0.00  0.00    +0.000 C 
ATOM     29  C   UNL     1      -5.299  10.493  11.681  0.00  0.00    +0.000 C 
ENDBRANCH  26  27
ENDBRANCH  11  25
BRANCH  18  30
ATOM     30  C   UNL     1       2.207   7.796  19.821  0.00  0.00    +0.000 C 
BRANCH  30  31
ATOM     31  C   UNL     1       2.254   6.388  19.197  0.00  0.00    +0.000 C 
ATOM     32  C   UNL     1       1.907   5.284  20.182  0.00  0.00    +0.000 C 
ATOM     33  C   UNL     1       3.124   4.383  20.179  0.00  0.00    +0.000 C 
ATOM     34  N   UNL     1       3.637   4.517  18.814  0.00  0.00    +0.000 NA
ATOM     35  C   UNL     1       5.004   4.013  18.705  0.00  0.00    +0.000 C 
ATOM     36  C   UNL     1       3.559   5.954  18.515  0.00  0.00    +0.000 C 
ENDBRANCH  30  31
ENDBRANCH  18  30
TORSDOF 5
ENDMDL
MODEL 2
REMARK VINA RESULT:      -7.8      4.417      7.805
REMARK  Name = 
REMARK  7 active torsions:
REMARK  status: ('A' for Active; 'I' for Inactive)
REMARK    1  A    between atoms: C_1  and  O_2
REMARK    2  A    between atoms: O_2  and  C_3
REMARK    3  A    between atoms: C_13  and  C_14
REMARK    4  A    between atoms: C_15  and  C_16
REMARK    5  A    between atoms: N_25  and  C_26
REMARK    6  A    between atoms: C_26  and  C_27
REMARK    7  A    between atoms: N_30  and  C_31
REMARK                            x       y       z     vdW  Elec       q    Type
REMARK                         _______ _______ _______ _____ _____    ______ ____
ROOT
ATOM      1  C   UNL     1       2.200  15.650  19.714  0.00  0.00    +0.000 C 
ATOM      2  C   UNL     1       3.044  14.398  19.982  0.00  0.00    +0.000 C 
ATOM      3  C   UNL     1       2.230  13.251  20.642  0.00  0.00    +0.000 C 
ATOM      4  C   UNL     1       0.925  12.892  19.881  0.00  0.00    +0.000 C 
ATOM      5  C   UNL     1       0.209  14.216  19.343  0.00  0.00    +0.000 C 
ATOM      6  C   UNL     1       1.105  15.271  18.721  0.00  0.00    +0.000 C 
ATOM      7  C   UNL     1       1.269  12.191  18.523  0.00  0.00    +0.000 C 
ATOM      8  C   UNL     1       1.343  10.750  18.879  0.00  0.00    +0.000 A 
ATOM      9  C   UNL     1       2.073   9.840  18.106  0.00  0.00    +0.000 A 
ATOM     10  C   UNL     1       2.164   8.533  18.552  0.00  0.00    +0.000 A 
ATOM     11  C   UNL     1       1.534   8.155  19.738  0.00  0.00    +0.000 A 
ATOM     12  C   UNL     1       0.779   9.108  20.503  0.00  0.00    +0.000 A 
ATOM     13  C   UNL     1       0.643  10.426  20.028  0.00  0.00    +0.000 A 
ATOM     14  C   UNL     1      -0.022  11.707  20.625  0.00  0.00    +0.000 C 
ATOM     15  N   UNL     1      -1.329  12.194  20.069  0.00  0.00    +0.000 NA
ATOM     16  C   UNL     1      -1.771  12.796  21.135  0.00  0.00    +0.000 C 
ATOM     17  N   UNL     1      -1.424  14.033  21.667  0.00  0.00    +0.000 N 
ATOM     18  N   UNL     1      -1.998  11.930  22.102  0.00  0.00    +0.000 N 
ATOM     19  C   UNL     1      -0.687  11.451  22.165  0.00  0.00    +0.000 C 
ATOM     20  O   UNL     1      -0.104  11.090  23.178  0.00  0.00    +0.000 OA
ATOM     21  H   UNL     1      -0.406  14.152  21.691  0.00  0.00    +0.000 HD
ATOM     22  H   UNL     1      -1.616  14.143  22.657  0.00  0.00    +0.000 HD
ENDROOT
BRANCH   1  24
ATOM     23  C   UNL     1       1.369  17.452  21.090  0.00  0.00    +0.000 C 
ATOM     24  O   UNL     1       1.694  16.073  20.991  0.00  0.00    +0.000 OA
ENDBRANCH   1  24
BRANCH  11  25
ATOM     25  C   UNL     1       1.744   6.782  20.161  0.00  0.00    +0.000 C 
ATOM     26  C   UNL     1       1.995   5.605  20.282  0.00  0.00    +0.000 C 
BRANCH  26  27
ATOM     27  C   UNL     1       2.338   4.198  20.374  0.00  0.00    +0.000 C 
ATOM     28  C   UNL     1       2.049   3.470  21.668  0.00  0.00    +0.000 C 
ATOM     29  C   UNL     1       1.253   3.146  20.430  0.00  0.00    +0.000 C 
ENDBRANCH  26  27
ENDBRANCH  11  25
BRANCH  18  30
ATOM     30  C   UNL     1      -3.022  12.304  23.112  0.00  0.00    +0.000 C 
BRANCH  30  31
ATOM     31  C   UNL     1      -4.236  13.137  22.658  0.00  0.00    +0.000 C 
ATOM     32  C   UNL     1      -5.146  13.545  23.805  0.00  0.00    +0.000 C 
ATOM     33  C   UNL     1      -6.496  12.968  23.435  0.00  0.00    +0.000 C 
ATOM     34  N   UNL     1      -6.488  13.006  21.972  0.00  0.00    +0.000 NA
ATOM     35  C   UNL     1      -7.545  12.170  21.410  0.00  0.00    +0.000 C 
ATOM     36  C   UNL     1      -5.152  12.534  21.584  0.00  0.00    +0.000 C 
ENDBRANCH  30  31
ENDBRANCH  18  30
TORSDOF 5
ENDMDL
MODEL 3
REMARK VINA RESULT:      -7.6      4.668      7.465
REMARK  Name = 
REMARK  7 active torsions:
REMARK  status: ('A' for Active; 'I' for Inactive)
REMARK    1  A    between atoms: C_1  and  O_2
REMARK    2  A    between atoms: O_2  and  C_3
REMARK    3  A    between atoms: C_13  and  C_14
REMARK    4  A    between atoms: C_15  and  C_16
REMARK    5  A    between atoms: N_25  and  C_26
REMARK    6  A    between atoms: C_26  and  C_27
REMARK    7  A    between atoms: N_30  and  C_31
REMARK                            x       y       z     vdW  Elec       q    Type
REMARK                         _______ _______ _______ _____ _____    ______ ____
ROOT
ATOM      1  C   UNL     1      -4.913  14.324  22.115  0.00  0.00    +0.000 C 
ATOM      2  C   UNL     1      -4.705  12.858  21.714  0.00  0.00    +0.000 C 
ATOM      3  C   UNL     1      -3.358  12.620  20.976  0.00  0.00    +0.000 C 
ATOM      4  C   UNL     1      -2.122  13.170  21.737  0.00  0.00    +0.000 C 
ATOM      5  C   UNL     1      -2.462  14.579  22.411  0.00  0.00    +0.000 C 
ATOM      6  C   UNL     1      -3.809  14.699  23.100  0.00  0.00    +0.000 C 
ATOM      7  C   UNL     1      -1.851  12.309  23.017  0.00  0.00    +0.000 C 
ATOM      8  C   UNL     1      -0.950  11.230  22.533  0.00  0.00    +0.000 A 
ATOM      9  C   UNL     1      -0.847  10.005  23.200  0.00  0.00    +0.000 A 
ATOM     10  C   UNL     1      -0.053   9.021  22.637  0.00  0.00    +0.000 A 
ATOM     11  C   UNL     1       0.620   9.268  21.440  0.00  0.00    +0.000 A 
ATOM     12  C   UNL     1       0.506  10.540  20.785  0.00  0.00    +0.000 A 
ATOM     13  C   UNL     1      -0.261  11.561  21.379  0.00  0.00    +0.000 A 
ATOM     14  C   UNL     1      -0.656  13.000  20.917  0.00  0.00    +0.000 C 
ATOM     15  N   UNL     1       0.005  14.190  21.550  0.00  0.00    +0.000 NA
ATOM     16  C   UNL     1      -0.116  15.020  20.554  0.00  0.00    +0.000 C 
ATOM     17  N   UNL     1      -1.226  15.740  20.126  0.00  0.00    +0.000 N 
ATOM     18  N   UNL     1       0.596  14.619  19.521  0.00  0.00    +0.000 N 
ATOM     19  C   UNL     1      -0.054  13.389  19.380  0.00  0.00    +0.000 C 
ATOM     20  O   UNL     1      -0.281  12.817  18.322  0.00  0.00    +0.000 OA
ATOM     21  H   UNL     1      -2.059  15.144  20.085  0.00  0.00    +0.000 HD
ATOM     22  H   UNL     1      -1.197  16.034  19.155  0.00  0.00    +0.000 HD
ENDROOT
BRANCH   1  24
ATOM     23  C   UNL     1      -6.133  15.299  20.273  0.00  0.00    +0.000 C 
ATOM     24  O   UNL     1      -4.874  15.083  20.895  0.00  0.00    +0.000 OA
ENDBRANCH   1  24
BRANCH  11  25
ATOM     25  C   UNL     1       1.370   8.154  20.890  0.00  0.00    +0.000 C 
ATOM     26  C   UNL     1       1.811   7.089  20.522  0.00  0.00    +0.000 C 
BRANCH  26  27
ATOM     27  C   UNL     1       2.277   5.787  20.084  0.00  0.00    +0.000 C 
ATOM     28  C   UNL     1       2.295   4.654  21.086  0.00  0.00    +0.000 C 
ATOM     29  C   UNL     1       1.309   4.633  19.946  0.00  0.00    +0.000 C 
ENDBRANCH  26  27
ENDBRANCH  11  25
BRANCH  18  30
ATOM     30  C   UNL     1       1.061  15.668  18.576  0.00  0.00    +0.000 C 
BRANCH  30  31
ATOM     31  C   UNL     1       2.533  16.119  18.642  0.00  0.00    +0.000 C 
ATOM     32  C   UNL     1       3.414  15.439  17.607  0.00  0.00    +0.000 C 
ATOM     33  C   UNL     1       4.489  14.753  18.423  0.00  0.00    +0.000 C 
ATOM     34  N   UNL     1       4.636  15.627  19.588  0.00  0.00    +0.000 NA
ATOM     35  C   UNL     1       5.363  14.963  20.666  0.00  0.00    +0.000 C 
ATOM     36  C   UNL     1       3.264  15.971  19.984  0.00  0.00    +0.000 C 
ENDBRANCH  30  31
ENDBRANCH  18  30
TORSDOF 5
ENDMDL
MODEL 4
REMARK VINA RESULT:      -7.5      4.723      7.257
REMARK  Name = 
REMARK  7 active torsions:
REMARK  status: ('A' for Active; 'I' for Inactive)
REMARK    1  A    between atoms: C_1  and  O_2
REMARK    2  A    between atoms: O_2  and  C_3
REMARK    3  A    between atoms: C_13  and  C_14
REMARK    4  A    between atoms: C_15  and  C_16
REMARK    5  A    between atoms: N_25  and  C_26
REMARK    6  A    between atoms: C_26  and  C_27
REMARK    7  A    between atoms: N_30  and  C_31
REMARK                            x       y       z     vdW  Elec       q    Type
REMARK                         _______ _______ _______ _____ _____    ______ ____
ROOT
ATOM      1  C   UNL     1      -4.481  14.300  22.717  0.00  0.00    +0.000 C 
ATOM      2  C   UNL     1      -4.366  12.879  22.151  0.00  0.00    +0.000 C 
ATOM      3  C   UNL     1      -3.106  12.684  21.262  0.00  0.00    +0.000 C 
ATOM      4  C   UNL     1      -1.784  13.122  21.947  0.00  0.00    +0.000 C 
ATOM      5  C   UNL     1      -2.006  14.461  22.790  0.00  0.00    +0.000 C 
ATOM      6  C   UNL     1      -3.275  14.543  23.619  0.00  0.00    +0.000 C 
ATOM      7  C   UNL     1      -1.420  12.126  23.100  0.00  0.00    +0.000 C 
ATOM      8  C   UNL     1      -0.609  11.081  22.421  0.00  0.00    +0.000 A 
ATOM      9  C   UNL     1      -0.485   9.790  22.949  0.00  0.00    +0.000 A 
ATOM     10  C   UNL     1       0.215   8.851  22.212  0.00  0.00    +0.000 A 
ATOM     11  C   UNL     1       0.777   9.203  20.985  0.00  0.00    +0.000 A 
ATOM     12  C   UNL     1       0.644  10.539  20.475  0.00  0.00    +0.000 A 
ATOM     13  C   UNL     1      -0.024  11.512  21.244  0.00  0.00    +0.000 A 
ATOM     14  C   UNL     1      -0.410  13.000  20.970  0.00  0.00    +0.000 C 
ATOM     15  N   UNL     1       0.351  14.101  21.650  0.00  0.00    +0.000 NA
ATOM     16  C   UNL     1       0.163  15.033  20.761  0.00  0.00    +0.000 C 
ATOM     17  N   UNL     1      -0.957  15.821  20.520  0.00  0.00    +0.000 N 
ATOM     18  N   UNL     1       0.756  14.723  19.626  0.00  0.00    +0.000 N 
ATOM     19  C   UNL     1       0.053  13.532  19.428  0.00  0.00    +0.000 C 
ATOM     20  O   UNL     1      -0.297  13.078  18.346  0.00  0.00    +0.000 OA
ATOM     21  H   UNL     1      -1.811  15.254  20.503  0.00  0.00    +0.000 HD
ATOM     22  H   UNL     1      -1.012  16.214  19.587  0.00  0.00    +0.000 HD
ENDROOT
BRANCH   1  24
ATOM     23  C   UNL     1      -4.920  16.518  21.867  0.00  0.00    +0.000 C 
ATOM     24  O   UNL     1      -4.535  15.181  21.582  0.00  0.00    +0.000 OA
ENDBRANCH   1  24
BRANCH  11  25
ATOM     25  C   UNL     1       1.430   8.133  20.253  0.00  0.00    +0.000 C 
ATOM     26  C   UNL     1       2.178   7.321  19.759  0.00  0.00    +0.000 C 
BRANCH  26  27
ATOM     27  C   UNL     1       3.117   6.356  19.217  0.00  0.00    +0.000 C 
ATOM     28  C   UNL     1       2.654   5.453  18.096  0.00  0.00    +0.000 C 
ATOM     29  C   UNL     1       3.674   6.528  17.822  0.00  0.00    +0.000 C 
ENDBRANCH  26  27
ENDBRANCH  11  25
BRANCH  18  30
ATOM     30  C   UNL     1       1.164  15.852  18.750  0.00  0.00    +0.000 C 
BRANCH  30  31
ATOM     31  C   UNL     1       2.658  16.216  18.665  0.00  0.00    +0.000 C 
ATOM     32  C   UNL     1       3.414  15.404  17.625  0.00  0.00    +0.000 C 
ATOM     33  C   UNL     1       4.513  14.720  18.411  0.00  0.00    +0.000 C 
ATOM     34  N   UNL     1       4.802  15.673  19.483  0.00  0.00    +0.000 NA
ATOM     35  C   UNL     1       5.577  15.052  20.555  0.00  0.00    +0.000 C 
ATOM     36  C   UNL     1       3.487  16.130  19.954  0.00  0.00    +0.000 C 
ENDBRANCH  30  31
ENDBRANCH  18  30
TORSDOF 5
ENDMDL
MODEL 5
REMARK VINA RESULT:      -7.5      4.774      7.341
REMARK  Name = 
REMARK  7 active torsions:
REMARK  status: ('A' for Active; 'I' for Inactive)
REMARK    1  A    between atoms: C_1  and  O_2
REMARK    2  A    between atoms: O_2  and  C_3
REMARK    3  A    between atoms: C_13  and  C_14
REMARK    4  A    between atoms: C_15  and  C_16
REMARK    5  A    between atoms: N_25  and  C_26
REMARK    6  A    between atoms: C_26  and  C_27
REMARK    7  A    between atoms: N_30  and  C_31
REMARK                            x       y       z     vdW  Elec       q    Type
REMARK                         _______ _______ _______ _____ _____    ______ ____
ROOT
ATOM      1  C   UNL     1      -4.301  13.844  23.436  0.00  0.00    +0.000 C 
ATOM      2  C   UNL     1      -4.194  12.631  22.503  0.00  0.00    +0.000 C 
ATOM      3  C   UNL     1      -2.966  12.706  21.553  0.00  0.00    +0.000 C 
ATOM      4  C   UNL     1      -1.623  12.965  22.287  0.00  0.00    +0.000 C 
ATOM      5  C   UNL     1      -1.826  14.023  23.468  0.00  0.00    +0.000 C 
ATOM      6  C   UNL     1      -3.064  13.855  24.330  0.00  0.00    +0.000 C 
ATOM      7  C   UNL     1      -1.209  11.702  23.116  0.00  0.00    +0.000 C 
ATOM      8  C   UNL     1      -0.415  10.894  22.153  0.00  0.00    +0.000 A 
ATOM      9  C   UNL     1      -0.261   9.511  22.307  0.00  0.00    +0.000 A 
ATOM     10  C   UNL     1       0.419   8.818  21.322  0.00  0.00    +0.000 A 
ATOM     11  C   UNL     1       0.933   9.499  20.218  0.00  0.00    +0.000 A 
ATOM     12  C   UNL     1       0.771  10.920  20.093  0.00  0.00    +0.000 A 
ATOM     13  C   UNL     1       0.123  11.637  21.117  0.00  0.00    +0.000 A 
ATOM     14  C   UNL     1      -0.286  13.137  21.270  0.00  0.00    +0.000 C 
ATOM     15  N   UNL     1       0.490  14.027  22.197  0.00  0.00    +0.000 NA
ATOM     16  C   UNL     1       0.262  15.161  21.599  0.00  0.00    +0.000 C 
ATOM     17  N   UNL     1      -0.872  15.964  21.618  0.00  0.00    +0.000 N 
ATOM     18  N   UNL     1       0.816  15.179  20.404  0.00  0.00    +0.000 N 
ATOM     19  C   UNL     1       0.116  14.073  19.914  0.00  0.00    +0.000 C 
ATOM     20  O   UNL     1      -0.269  13.922  18.762  0.00  0.00    +0.000 OA
ATOM     21  H   UNL     1      -1.721  15.408  21.476  0.00  0.00    +0.000 HD
ATOM     22  H   UNL     1      -0.965  16.593  20.828  0.00  0.00    +0.000 HD
ENDROOT
BRANCH   1  24
ATOM     23  C   UNL     1      -5.719  15.333  22.170  0.00  0.00    +0.000 C 
ATOM     24  O   UNL     1      -4.403  14.997  22.584  0.00  0.00    +0.000 OA
ENDBRANCH   1  24
BRANCH  11  25
ATOM     25  C   UNL     1       1.568   8.678  19.202  0.00  0.00    +0.000 C 
ATOM     26  C   UNL     1       2.158   7.850  18.547  0.00  0.00    +0.000 C 
BRANCH  26  27
ATOM     27  C   UNL     1       2.857   6.813  17.811  0.00  0.00    +0.000 C 
ATOM     28  C   UNL     1       4.302   7.049  17.432  0.00  0.00    +0.000 C 
ATOM     29  C   UNL     1       3.957   6.013  18.471  0.00  0.00    +0.000 C 
ENDBRANCH  26  27
ENDBRANCH  11  25
BRANCH  18  30
ATOM     30  C   UNL     1       1.182  16.510  19.853  0.00  0.00    +0.000 C 
BRANCH  30  31
ATOM     31  C   UNL     1       2.591  16.699  19.259  0.00  0.00    +0.000 C 
ATOM     32  C   UNL     1       2.581  16.948  17.760  0.00  0.00    +0.000 C 
ATOM     33  C   UNL     1       3.432  15.833  17.189  0.00  0.00    +0.000 C 
ATOM     34  N   UNL     1       4.402  15.574  18.253  0.00  0.00    +0.000 NA
ATOM     35  C   UNL     1       5.087  14.299  18.052  0.00  0.00    +0.000 C 
ATOM     36  C   UNL     1       3.620  15.585  19.497  0.00  0.00    +0.000 C 
ENDBRANCH  30  31
ENDBRANCH  18  30
TORSDOF 5
ENDMDL
MODEL 6
REMARK VINA RESULT:      -7.3      7.413     11.943
REMARK  Name = 
REMARK  7 active torsions:
REMARK  status: ('A' for Active; 'I' for Inactive)
REMARK    1  A    between atoms: C_1  and  O_2
REMARK    2  A    between atoms: O_2  and  C_3
REMARK    3  A    between atoms: C_13  and  C_14
REMARK    4  A    between atoms: C_15  and  C_16
REMARK    5  A    between atoms: N_25  and  C_26
REMARK    6  A    between atoms: C_26  and  C_27
REMARK    7  A    between atoms: N_30  and  C_31
REMARK                            x       y       z     vdW  Elec       q    Type
REMARK                         _______ _______ _______ _____ _____    ______ ____
ROOT
ATOM      1  C   UNL     1      11.883  17.770  20.928  0.00  0.00    +0.000 C 
ATOM      2  C   UNL     1      11.862  16.272  21.255  0.00  0.00    +0.000 C 
ATOM      3  C   UNL     1      10.544  15.576  20.814  0.00  0.00    +0.000 C 
ATOM      4  C   UNL     1      10.172  15.828  19.328  0.00  0.00    +0.000 C 
ATOM      5  C   UNL     1      10.490  17.340  18.920  0.00  0.00    +0.000 C 
ATOM      6  C   UNL     1      11.805  17.917  19.411  0.00  0.00    +0.000 C 
ATOM      7  C   UNL     1      11.169  15.071  18.388  0.00  0.00    +0.000 C 
ATOM      8  C   UNL     1      10.546  13.732  18.216  0.00  0.00    +0.000 A 
ATOM      9  C   UNL     1      11.303  12.610  17.862  0.00  0.00    +0.000 A 
ATOM     10  C   UNL     1      10.664  11.384  17.807  0.00  0.00    +0.000 A 
ATOM     11  C   UNL     1       9.302  11.294  18.096  0.00  0.00    +0.000 A 
ATOM     12  C   UNL     1       8.548  12.465  18.443  0.00  0.00    +0.000 A 
ATOM     13  C   UNL     1       9.183  13.722  18.452  0.00  0.00    +0.000 A 
ATOM     14  C   UNL     1       8.699  15.154  18.847  0.00  0.00    +0.000 C 
ATOM     15  N   UNL     1       8.419  16.165  17.774  0.00  0.00    +0.000 NA
ATOM     16  C   UNL     1       7.543  16.881  18.418  0.00  0.00    +0.000 C 
ATOM     17  N   UNL     1       7.731  17.838  19.409  0.00  0.00    +0.000 N 
ATOM     18  N   UNL     1       6.453  16.181  18.659  0.00  0.00    +0.000 N 
ATOM     19  C   UNL     1       7.095  15.183  19.397  0.00  0.00    +0.000 C 
ATOM     20  O   UNL     1       6.625  14.588  20.358  0.00  0.00    +0.000 OA
ATOM     21  H   UNL     1       8.387  17.506  20.123  0.00  0.00    +0.000 HD
ATOM     22  H   UNL     1       6.925  18.003  20.003  0.00  0.00    +0.000 HD
ENDROOT
BRANCH   1  24
ATOM     23  C   UNL     1      10.940  18.538  23.015  0.00  0.00    +0.000 C 
ATOM     24  O   UNL     1      10.763  18.348  21.618  0.00  0.00    +0.000 OA
ENDBRANCH   1  24
BRANCH  11  25
ATOM     25  C   UNL     1       8.735   9.957  18.083  0.00  0.00    +0.000 C 
ATOM     26  C   UNL     1       8.293   8.861  17.827  0.00  0.00    +0.000 C 
BRANCH  26  27
ATOM     27  C   UNL     1       7.796   7.547  17.462  0.00  0.00    +0.000 C 
ATOM     28  C   UNL     1       7.679   6.496  18.543  0.00  0.00    +0.000 C 
ATOM     29  C   UNL     1       6.434   7.085  17.931  0.00  0.00    +0.000 C 
ENDBRANCH  26  27
ENDBRANCH  11  25
BRANCH  18  30
ATOM     30  C   UNL     1       5.186  16.941  18.814  0.00  0.00    +0.000 C 
BRANCH  30  31
ATOM     31  C   UNL     1       3.851  16.191  18.644  0.00  0.00    +0.000 C 
ATOM     32  C   UNL     1       3.026  16.695  17.470  0.00  0.00    +0.000 C 
ATOM     33  C   UNL     1       1.713  17.122  18.091  0.00  0.00    +0.000 C 
ATOM     34  N   UNL     1       1.566  16.210  19.226  0.00  0.00    +0.000 NA
ATOM     35  C   UNL     1       0.550  16.682  20.163  0.00  0.00    +0.000 C 
ATOM     36  C   UNL     1       2.897  16.152  19.846  0.00  0.00    +0.000 C 
ENDBRANCH  30  31
ENDBRANCH  18  30
TORSDOF 5
ENDMDL
MODEL 7
REMARK VINA RESULT:      -7.2      4.347      7.807
REMARK  Name = 
REMARK  7 active torsions:
REMARK  status: ('A' for Active; 'I' for Inactive)
REMARK    1  A    between atoms: C_1  and  O_2
REMARK    2  A    between atoms: O_2  and  C_3
REMARK    3  A    between atoms: C_13  and  C_14
REMARK    4  A    between atoms: C_15  and  C_16
REMARK    5  A    between atoms: N_25  and  C_26
REMARK    6  A    between atoms: C_26  and  C_27
REMARK    7  A    between atoms: N_30  and  C_31
REMARK                            x       y       z     vdW  Elec       q    Type
REMARK                         _______ _______ _______ _____ _____    ______ ____
ROOT
ATOM      1  C   UNL     1       2.315  15.719  19.618  0.00  0.00    +0.000 C 
ATOM      2  C   UNL     1       3.091  14.450  19.993  0.00  0.00    +0.000 C 
ATOM      3  C   UNL     1       2.192  13.367  20.652  0.00  0.00    +0.000 C 
ATOM      4  C   UNL     1       0.922  13.022  19.828  0.00  0.00    +0.000 C 
ATOM      5  C   UNL     1       0.295  14.345  19.188  0.00  0.00    +0.000 C 
ATOM      6  C   UNL     1       1.268  15.335  18.576  0.00  0.00    +0.000 C 
ATOM      7  C   UNL     1       1.319  12.246  18.527  0.00  0.00    +0.000 C 
ATOM      8  C   UNL     1       1.313  10.820  18.951  0.00  0.00    +0.000 A 
ATOM      9  C   UNL     1       2.051   9.848  18.267  0.00  0.00    +0.000 A 
ATOM     10  C   UNL     1       2.062   8.561  18.776  0.00  0.00    +0.000 A 
ATOM     11  C   UNL     1       1.346   8.263  19.936  0.00  0.00    +0.000 A 
ATOM     12  C   UNL     1       0.586   9.279  20.608  0.00  0.00    +0.000 A 
ATOM     13  C   UNL     1       0.532  10.578  20.067  0.00  0.00    +0.000 A 
ATOM     14  C   UNL     1      -0.115  11.910  20.564  0.00  0.00    +0.000 C 
ATOM     15  N   UNL     1      -1.365  12.418  19.907  0.00  0.00    +0.000 NA
ATOM     16  C   UNL     1      -1.846  13.087  20.915  0.00  0.00    +0.000 C 
ATOM     17  N   UNL     1      -1.482  14.334  21.411  0.00  0.00    +0.000 N 
ATOM     18  N   UNL     1      -2.166  12.277  21.903  0.00  0.00    +0.000 N 
ATOM     19  C   UNL     1      -0.882  11.752  22.069  0.00  0.00    +0.000 C 
ATOM     20  O   UNL     1      -0.377  11.417  23.132  0.00  0.00    +0.000 OA
ATOM     21  H   UNL     1      -0.464  14.415  21.493  0.00  0.00    +0.000 HD
ATOM     22  H   UNL     1      -1.730  14.497  22.381  0.00  0.00    +0.000 HD
ENDROOT
BRANCH   1  24
ATOM     23  C   UNL     1       1.305  17.569  20.797  0.00  0.00    +0.000 C 
ATOM     24  O   UNL     1       1.751  16.221  20.840  0.00  0.00    +0.000 OA
ENDBRANCH   1  24
BRANCH  11  25
ATOM     25  C   UNL     1       1.475   6.906  20.432  0.00  0.00    +0.000 C 
ATOM     26  C   UNL     1       1.692   5.732  20.630  0.00  0.00    +0.000 C 
BRANCH  26  27
ATOM     27  C   UNL     1       2.002   4.327  20.820  0.00  0.00    +0.000 C 
ATOM     28  C   UNL     1       0.968   3.301  20.411  0.00  0.00    +0.000 C 
ATOM     29  C   UNL     1       2.252   3.429  19.630  0.00  0.00    +0.000 C 
ENDBRANCH  26  27
ENDBRANCH  11  25
BRANCH  18  30
ATOM     30  C   UNL     1      -3.234  12.736  22.830  0.00  0.00    +0.000 C 
BRANCH  30  31
ATOM     31  C   UNL     1      -4.667  12.887  22.286  0.00  0.00    +0.000 C 
ATOM     32  C   UNL     1      -4.847  12.291  20.899  0.00  0.00    +0.000 C 
ATOM     33  C   UNL     1      -5.330  13.451  20.053  0.00  0.00    +0.000 C 
ATOM     34  N   UNL     1      -6.083  14.269  21.004  0.00  0.00    +0.000 NA
ATOM     35  C   UNL     1      -6.330  15.609  20.477  0.00  0.00    +0.000 C 
ATOM     36  C   UNL     1      -5.259  14.302  22.219  0.00  0.00    +0.000 C 
ENDBRANCH  30  31
ENDBRANCH  18  30
TORSDOF 5
ENDMDL
MODEL 8
REMARK VINA RESULT:      -7.1      4.674      7.464
REMARK  Name = 
REMARK  7 active torsions:
REMARK  status: ('A' for Active; 'I' for Inactive)
REMARK    1  A    between atoms: C_1  and  O_2
REMARK    2  A    between atoms: O_2  and  C_3
REMARK    3  A    between atoms: C_13  and  C_14
REMARK    4  A    between atoms: C_15  and  C_16
REMARK    5  A    between atoms: N_25  and  C_26
REMARK    6  A    between atoms: C_26  and  C_27
REMARK    7  A    between atoms: N_30  and  C_31
REMARK                            x       y       z     vdW  Elec       q    Type
REMARK                         _______ _______ _______ _____ _____    ______ ____
ROOT
ATOM      1  C   UNL     1      -3.922  13.933  22.862  0.00  0.00    +0.000 C 
ATOM      2  C   UNL     1      -3.858  12.636  22.046  0.00  0.00    +0.000 C 
ATOM      3  C   UNL     1      -2.596  12.554  21.142  0.00  0.00    +0.000 C 
ATOM      4  C   UNL     1      -1.266  12.802  21.902  0.00  0.00    +0.000 C 
ATOM      5  C   UNL     1      -1.444  13.972  22.975  0.00  0.00    +0.000 C 
ATOM      6  C   UNL     1      -2.718  13.955  23.799  0.00  0.00    +0.000 C 
ATOM      7  C   UNL     1      -0.957  11.597  22.854  0.00  0.00    +0.000 C 
ATOM      8  C   UNL     1      -0.181  10.661  21.999  0.00  0.00    +0.000 A 
ATOM      9  C   UNL     1      -0.117   9.292  22.281  0.00  0.00    +0.000 A 
ATOM     10  C   UNL     1       0.554   8.474  21.388  0.00  0.00    +0.000 A 
ATOM     11  C   UNL     1       1.144   9.021  20.249  0.00  0.00    +0.000 A 
ATOM     12  C   UNL     1       1.073  10.432  19.992  0.00  0.00    +0.000 A 
ATOM     13  C   UNL     1       0.435  11.275  20.923  0.00  0.00    +0.000 A 
ATOM     14  C   UNL     1       0.113  12.803  20.926  0.00  0.00    +0.000 C 
ATOM     15  N   UNL     1       0.910  13.728  21.800  0.00  0.00    +0.000 NA
ATOM     16  C   UNL     1       0.772  14.814  21.096  0.00  0.00    +0.000 C 
ATOM     17  N   UNL     1      -0.312  15.680  20.999  0.00  0.00    +0.000 N 
ATOM     18  N   UNL     1       1.365  14.692  19.926  0.00  0.00    +0.000 N 
ATOM     19  C   UNL     1       0.617  13.589  19.509  0.00  0.00    +0.000 C 
ATOM     20  O   UNL     1       0.262  13.356  18.361  0.00  0.00    +0.000 OA
ATOM     21  H   UNL     1      -1.188  15.162  20.874  0.00  0.00    +0.000 HD
ATOM     22  H   UNL     1      -0.339  16.239  20.153  0.00  0.00    +0.000 HD
ENDROOT
BRANCH   1  24
ATOM     23  C   UNL     1      -5.147  15.197  21.208  0.00  0.00    +0.000 C 
ATOM     24  O   UNL     1      -3.926  15.008  21.908  0.00  0.00    +0.000 OA
ENDBRANCH   1  24
BRANCH  11  25
ATOM     25  C   UNL     1       1.762   8.077  19.336  0.00  0.00    +0.000 C 
ATOM     26  C   UNL     1       2.489   7.374  18.671  0.00  0.00    +0.000 C 
BRANCH  26  27
ATOM     27  C   UNL     1       3.408   6.540  17.920  0.00  0.00    +0.000 C 
ATOM     28  C   UNL     1       4.242   5.528  18.675  0.00  0.00    +0.000 C 
ATOM     29  C   UNL     1       3.142   5.060  17.756  0.00  0.00    +0.000 C 
ENDBRANCH  26  27
ENDBRANCH  11  25
BRANCH  18  30
ATOM     30  C   UNL     1       1.830  15.945  19.275  0.00  0.00    +0.000 C 
BRANCH  30  31
ATOM     31  C   UNL     1       3.293  16.382  19.479  0.00  0.00    +0.000 C 
ATOM     32  C   UNL     1       4.256  15.213  19.604  0.00  0.00    +0.000 C 
ATOM     33  C   UNL     1       4.916  15.413  20.952  0.00  0.00    +0.000 C 
ATOM     34  N   UNL     1       4.928  16.869  21.107  0.00  0.00    +0.000 NA
ATOM     35  C   UNL     1       5.195  17.257  22.489  0.00  0.00    +0.000 C 
ATOM     36  C   UNL     1       3.601  17.313  20.660  0.00  0.00    +0.000 C 
ENDBRANCH  30  31
ENDBRANCH  18  30
TORSDOF 5
ENDMDL
MODEL 9
REMARK VINA RESULT:      -7.0      4.726      7.908
REMARK  Name = 
REMARK  7 active torsions:
REMARK  status: ('A' for Active; 'I' for Inactive)
REMARK    1  A    between atoms: C_1  and  O_2
REMARK    2  A    between atoms: O_2  and  C_3
REMARK    3  A    between atoms: C_13  and  C_14
REMARK    4  A    between atoms: C_15  and  C_16
REMARK    5  A    between atoms: N_25  and  C_26
REMARK    6  A    between atoms: C_26  and  C_27
REMARK    7  A    between atoms: N_30  and  C_31
REMARK                            x       y       z     vdW  Elec       q    Type
REMARK                         _______ _______ _______ _____ _____    ______ ____
ROOT
ATOM      1  C   UNL     1      -4.037  13.993  22.843  0.00  0.00    +0.000 C 
ATOM      2  C   UNL     1      -3.963  12.667  22.075  0.00  0.00    +0.000 C 
ATOM      3  C   UNL     1      -2.655  12.521  21.249  0.00  0.00    +0.000 C 
ATOM      4  C   UNL     1      -1.363  12.759  22.077  0.00  0.00    +0.000 C 
ATOM      5  C   UNL     1      -1.569  13.970  23.100  0.00  0.00    +0.000 C 
ATOM      6  C   UNL     1      -2.889  14.014  23.848  0.00  0.00    +0.000 C 
ATOM      7  C   UNL     1      -1.145  11.580  23.084  0.00  0.00    +0.000 C 
ATOM      8  C   UNL     1      -0.349  10.594  22.307  0.00  0.00    +0.000 A 
ATOM      9  C   UNL     1      -0.340   9.234  22.636  0.00  0.00    +0.000 A 
ATOM     10  C   UNL     1       0.357   8.368  21.811  0.00  0.00    +0.000 A 
ATOM     11  C   UNL     1       1.028   8.860  20.691  0.00  0.00    +0.000 A 
ATOM     12  C   UNL     1       1.012  10.263  20.386  0.00  0.00    +0.000 A 
ATOM     13  C   UNL     1       0.346  11.154  21.249  0.00  0.00    +0.000 A 
ATOM     14  C   UNL     1       0.069  12.690  21.184  0.00  0.00    +0.000 C 
ATOM     15  N   UNL     1       0.841  13.622  22.072  0.00  0.00    +0.000 NA
ATOM     16  C   UNL     1       0.774  14.687  21.327  0.00  0.00    +0.000 C 
ATOM     17  N   UNL     1      -0.277  15.577  21.139  0.00  0.00    +0.000 N 
ATOM     18  N   UNL     1       1.430  14.509  20.198  0.00  0.00    +0.000 N 
ATOM     19  C   UNL     1       0.675  13.412  19.774  0.00  0.00    +0.000 C 
ATOM     20  O   UNL     1       0.381  13.150  18.616  0.00  0.00    +0.000 OA
ATOM     21  H   UNL     1      -1.159  15.080  20.979  0.00  0.00    +0.000 HD
ATOM     22  H   UNL     1      -0.240  16.108  20.275  0.00  0.00    +0.000 HD
ENDROOT
BRANCH   1  24
ATOM     23  C   UNL     1      -4.552  16.270  22.224  0.00  0.00    +0.000 C 
ATOM     24  O   UNL     1      -3.955  15.034  21.856  0.00  0.00    +0.000 OA
ENDBRANCH   1  24
BRANCH  11  25
ATOM     25  C   UNL     1       1.670   7.869  19.847  0.00  0.00    +0.000 C 
ATOM     26  C   UNL     1       2.298   7.240  19.027  0.00  0.00    +0.000 C 
BRANCH  26  27
ATOM     27  C   UNL     1       3.090   6.539  18.034  0.00  0.00    +0.000 C 
ATOM     28  C   UNL     1       4.394   7.160  17.585  0.00  0.00    +0.000 C 
ATOM     29  C   UNL     1       4.407   5.901  18.415  0.00  0.00    +0.000 C 
ENDBRANCH  26  27
ENDBRANCH  11  25
BRANCH  18  30
ATOM     30  C   UNL     1       1.967  15.726  19.534  0.00  0.00    +0.000 C 
BRANCH  30  31
ATOM     31  C   UNL     1       1.306  16.205  18.228  0.00  0.00    +0.000 C 
ATOM     32  C   UNL     1       2.059  17.343  17.558  0.00  0.00    +0.000 C 
ATOM     33  C   UNL     1       1.043  18.462  17.467  0.00  0.00    +0.000 C 
ATOM     34  N   UNL     1      -0.228  17.750  17.323  0.00  0.00    +0.000 NA
ATOM     35  C   UNL     1      -1.365  18.631  17.577  0.00  0.00    +0.000 C 
ATOM     36  C   UNL     1      -0.162  16.648  18.293  0.00  0.00    +0.000 C 
ENDBRANCH  30  31
ENDBRANCH  18  30
TORSDOF 5
ENDMDL
