MODEL 1
REMARK VINA RESULT:      -7.5      0.000      0.000
REMARK  Name = 
REMARK  4 active torsions:
REMARK  status: ('A' for Active; 'I' for Inactive)
REMARK    1  A    between atoms: C_1  and  C_2
REMARK    2  A    between atoms: C_7  and  O_8
REMARK    3  A    between atoms: C_15  and  C_16
REMARK    4  A    between atoms: C_15  and  C_17
REMARK                            x       y       z     vdW  Elec       q    Type
REMARK                         _______ _______ _______ _____ _____    ______ ____
ROOT
ATOM      1  C   UNL     1      -1.189  10.803  23.128  0.00  0.00    +0.000 C 
ATOM      2  C   UNL     1      -0.466  10.467  21.860  0.00  0.00    +0.000 A 
ATOM      3  C   UNL     1      -0.470  11.286  20.801  0.00  0.00    +0.000 A 
ATOM      4  C   UNL     1       0.267  10.899  19.592  0.00  0.00    +0.000 A 
ATOM      5  O   UNL     1       0.288  11.615  18.596  0.00  0.00    +0.000 OA
ATOM      6  C   UNL     1       0.976   9.614  19.626  0.00  0.00    +0.000 A 
ATOM      7  C   UNL     1       1.716   9.160  18.528  0.00  0.00    +0.000 A 
ATOM      8  C   UNL     1       2.375   7.925  18.581  0.00  0.00    +0.000 A 
ATOM      9  C   UNL     1       2.238   7.133  19.730  0.00  0.00    +0.000 A 
ATOM     10  C   UNL     1       1.522   7.601  20.836  0.00  0.00    +0.000 A 
ATOM     11  C   UNL     1       0.891   8.845  20.783  0.00  0.00    +0.000 A 
ATOM     12  O   UNL     1       0.190   9.244  21.895  0.00  0.00    +0.000 OA
ATOM     13  O   UNL     1       2.774   5.876  19.856  0.00  0.00    +0.000 OA
ATOM     14  C   UNL     1       3.202   5.247  18.630  0.00  0.00    +0.000 C 
ATOM     15  C   UNL     1       1.980   4.674  17.893  0.00  0.00    +0.000 C 
ATOM     16  C   UNL     1       4.113   4.077  19.029  0.00  0.00    +0.000 C 
ATOM     17  C   UNL     1       4.015   6.232  17.779  0.00  0.00    +0.000 C 
ATOM     18  C   UNL     1       3.173   7.440  17.403  0.00  0.00    +0.000 C 
ENDROOT
BRANCH   7  19
ATOM     19  O   UNL     1       1.818   9.885  17.368  0.00  0.00    +0.000 OA
ATOM     20  H   UNL     1       0.975  10.377  17.236  0.00  0.00    +0.000 HD
ENDBRANCH   7  19
TORSDOF 1
ENDMDL
MODEL 2
REMARK VINA RESULT:      -7.4      4.763      7.587
REMARK  Name = 
REMARK  4 active torsions:
REMARK  status: ('A' for Active; 'I' for Inactive)
REMARK    1  A    between atoms: C_1  and  C_2
REMARK    2  A    between atoms: C_7  and  O_8
REMARK    3  A    between atoms: C_15  and  C_16
REMARK    4  A    between atoms: C_15  and  C_17
REMARK                            x       y       z     vdW  Elec       q    Type
REMARK                         _______ _______ _______ _____ _____    ______ ____
ROOT
ATOM      1  C   UNL     1       6.437   3.553  12.522  0.00  0.00    +0.000 C 
ATOM      2  C   UNL     1       6.261   4.125  13.895  0.00  0.00    +0.000 A 
ATOM      3  C   UNL     1       7.127   5.006  14.413  0.00  0.00    +0.000 A 
ATOM      4  C   UNL     1       6.891   5.535  15.761  0.00  0.00    +0.000 A 
ATOM      5  O   UNL     1       7.659   6.340  16.279  0.00  0.00    +0.000 OA
ATOM      6  C   UNL     1       5.695   5.057  16.466  0.00  0.00    +0.000 A 
ATOM      7  C   UNL     1       5.376   5.508  17.752  0.00  0.00    +0.000 A 
ATOM      8  C   UNL     1       4.235   5.028  18.408  0.00  0.00    +0.000 A 
ATOM      9  C   UNL     1       3.452   4.052  17.776  0.00  0.00    +0.000 A 
ATOM     10  C   UNL     1       3.756   3.624  16.480  0.00  0.00    +0.000 A 
ATOM     11  C   UNL     1       4.881   4.128  15.825  0.00  0.00    +0.000 A 
ATOM     12  O   UNL     1       5.136   3.658  14.560  0.00  0.00    +0.000 OA
ATOM     13  O   UNL     1       2.361   3.457  18.359  0.00  0.00    +0.000 OA
ATOM     14  C   UNL     1       2.242   3.621  19.787  0.00  0.00    +0.000 C 
ATOM     15  C   UNL     1       3.186   2.635  20.497  0.00  0.00    +0.000 C 
ATOM     16  C   UNL     1       0.798   3.251  20.156  0.00  0.00    +0.000 C 
ATOM     17  C   UNL     1       2.489   5.083  20.181  0.00  0.00    +0.000 C 
ATOM     18  C   UNL     1       3.891   5.518  19.787  0.00  0.00    +0.000 C 
ENDROOT
BRANCH   7  19
ATOM     19  O   UNL     1       6.158   6.416  18.420  0.00  0.00    +0.000 OA
ATOM     20  H   UNL     1       7.091   6.293  18.131  0.00  0.00    +0.000 HD
ENDBRANCH   7  19
TORSDOF 1
ENDMDL
MODEL 3
REMARK VINA RESULT:      -7.0      1.626      3.658
REMARK  Name = 
REMARK  4 active torsions:
REMARK  status: ('A' for Active; 'I' for Inactive)
REMARK    1  A    between atoms: C_1  and  C_2
REMARK    2  A    between atoms: C_7  and  O_8
REMARK    3  A    between atoms: C_15  and  C_16
REMARK    4  A    between atoms: C_15  and  C_17
REMARK                            x       y       z     vdW  Elec       q    Type
REMARK                         _______ _______ _______ _____ _____    ______ ____
ROOT
ATOM      1  C   UNL     1       0.849  11.500  18.581  0.00  0.00    +0.000 C 
ATOM      2  C   UNL     1       1.261  10.128  19.017  0.00  0.00    +0.000 A 
ATOM      3  C   UNL     1       0.920   9.630  20.212  0.00  0.00    +0.000 A 
ATOM      4  C   UNL     1       1.351   8.275  20.574  0.00  0.00    +0.000 A 
ATOM      5  O   UNL     1       1.067   7.779  21.660  0.00  0.00    +0.000 OA
ATOM      6  C   UNL     1       2.139   7.537  19.579  0.00  0.00    +0.000 A 
ATOM      7  C   UNL     1       2.588   6.235  19.823  0.00  0.00    +0.000 A 
ATOM      8  C   UNL     1       3.349   5.556  18.862  0.00  0.00    +0.000 A 
ATOM      9  C   UNL     1       3.694   6.223  17.678  0.00  0.00    +0.000 A 
ATOM     10  C   UNL     1       3.221   7.513  17.424  0.00  0.00    +0.000 A 
ATOM     11  C   UNL     1       2.441   8.171  18.377  0.00  0.00    +0.000 A 
ATOM     12  O   UNL     1       2.018   9.443  18.076  0.00  0.00    +0.000 OA
ATOM     13  O   UNL     1       4.499   5.682  16.708  0.00  0.00    +0.000 OA
ATOM     14  C   UNL     1       5.267   4.524  17.098  0.00  0.00    +0.000 C 
ATOM     15  C   UNL     1       6.500   4.973  17.900  0.00  0.00    +0.000 C 
ATOM     16  C   UNL     1       5.754   3.860  15.801  0.00  0.00    +0.000 C 
ATOM     17  C   UNL     1       4.382   3.526  17.857  0.00  0.00    +0.000 C 
ATOM     18  C   UNL     1       3.827   4.155  19.124  0.00  0.00    +0.000 C 
ENDROOT
BRANCH   7  19
ATOM     19  O   UNL     1       2.319   5.579  20.998  0.00  0.00    +0.000 OA
ATOM     20  H   UNL     1       2.245   6.249  21.716  0.00  0.00    +0.000 HD
ENDBRANCH   7  19
TORSDOF 1
ENDMDL
MODEL 4
REMARK VINA RESULT:      -7.0      5.247      6.898
REMARK  Name = 
REMARK  4 active torsions:
REMARK  status: ('A' for Active; 'I' for Inactive)
REMARK    1  A    between atoms: C_1  and  C_2
REMARK    2  A    between atoms: C_7  and  O_8
REMARK    3  A    between atoms: C_15  and  C_16
REMARK    4  A    between atoms: C_15  and  C_17
REMARK                            x       y       z     vdW  Elec       q    Type
REMARK                         _______ _______ _______ _____ _____    ______ ____
ROOT
ATOM      1  C   UNL     1       8.006   8.485  17.737  0.00  0.00    +0.000 C 
ATOM      2  C   UNL     1       7.294   7.195  17.472  0.00  0.00    +0.000 A 
ATOM      3  C   UNL     1       7.540   6.458  16.381  0.00  0.00    +0.000 A 
ATOM      4  C   UNL     1       6.812   5.199  16.186  0.00  0.00    +0.000 A 
ATOM      5  O   UNL     1       7.001   4.494  15.200  0.00  0.00    +0.000 OA
ATOM      6  C   UNL     1       5.845   4.820  17.224  0.00  0.00    +0.000 A 
ATOM      7  C   UNL     1       5.108   3.633  17.137  0.00  0.00    +0.000 A 
ATOM      8  C   UNL     1       4.183   3.299  18.135  0.00  0.00    +0.000 A 
ATOM      9  C   UNL     1       3.973   4.197  19.190  0.00  0.00    +0.000 A 
ATOM     10  C   UNL     1       4.730   5.368  19.291  0.00  0.00    +0.000 A 
ATOM     11  C   UNL     1       5.668   5.678  18.305  0.00  0.00    +0.000 A 
ATOM     12  O   UNL     1       6.371   6.850  18.451  0.00  0.00    +0.000 OA
ATOM     13  O   UNL     1       3.037   4.008  20.175  0.00  0.00    +0.000 OA
ATOM     14  C   UNL     1       2.029   3.012  19.905  0.00  0.00    +0.000 C 
ATOM     15  C   UNL     1       0.958   3.605  18.973  0.00  0.00    +0.000 C 
ATOM     16  C   UNL     1       1.364   2.679  21.248  0.00  0.00    +0.000 C 
ATOM     17  C   UNL     1       2.673   1.735  19.348  0.00  0.00    +0.000 C 
ATOM     18  C   UNL     1       3.395   2.022  18.042  0.00  0.00    +0.000 C 
ENDROOT
BRANCH   7  19
ATOM     19  O   UNL     1       5.248   2.765  16.084  0.00  0.00    +0.000 OA
ATOM     20  H   UNL     1       5.508   1.885  16.441  0.00  0.00    +0.000 HD
ENDBRANCH   7  19
TORSDOF 1
ENDMDL
MODEL 5
REMARK VINA RESULT:      -7.0      1.177      1.652
REMARK  Name = 
REMARK  4 active torsions:
REMARK  status: ('A' for Active; 'I' for Inactive)
REMARK    1  A    between atoms: C_1  and  C_2
REMARK    2  A    between atoms: C_7  and  O_8
REMARK    3  A    between atoms: C_15  and  C_16
REMARK    4  A    between atoms: C_15  and  C_17
REMARK                            x       y       z     vdW  Elec       q    Type
REMARK                         _______ _______ _______ _____ _____    ______ ____
ROOT
ATOM      1  C   UNL     1      -0.427   9.924  22.577  0.00  0.00    +0.000 C 
ATOM      2  C   UNL     1       0.338   9.420  21.393  0.00  0.00    +0.000 A 
ATOM      3  C   UNL     1       0.555  10.180  20.312  0.00  0.00    +0.000 A 
ATOM      4  C   UNL     1       1.320   9.628  19.188  0.00  0.00    +0.000 A 
ATOM      5  O   UNL     1       1.539  10.284  18.175  0.00  0.00    +0.000 OA
ATOM      6  C   UNL     1       1.811   8.251  19.328  0.00  0.00    +0.000 A 
ATOM      7  C   UNL     1       2.559   7.636  18.318  0.00  0.00    +0.000 A 
ATOM      8  C   UNL     1       3.007   6.317  18.471  0.00  0.00    +0.000 A 
ATOM      9  C   UNL     1       2.648   5.611  19.628  0.00  0.00    +0.000 A 
ATOM     10  C   UNL     1       1.925   6.236  20.648  0.00  0.00    +0.000 A 
ATOM     11  C   UNL     1       1.507   7.559  20.497  0.00  0.00    +0.000 A 
ATOM     12  O   UNL     1       0.787   8.113  21.527  0.00  0.00    +0.000 OA
ATOM     13  O   UNL     1       2.964   4.294  19.843  0.00  0.00    +0.000 OA
ATOM     14  C   UNL     1       3.390   3.549  18.683  0.00  0.00    +0.000 C 
ATOM     15  C   UNL     1       2.159   3.139  17.856  0.00  0.00    +0.000 C 
ATOM     16  C   UNL     1       4.066   2.271  19.201  0.00  0.00    +0.000 C 
ATOM     17  C   UNL     1       4.418   4.354  17.878  0.00  0.00    +0.000 C 
ATOM     18  C   UNL     1       3.815   5.660  17.387  0.00  0.00    +0.000 C 
ENDROOT
BRANCH   7  19
ATOM     19  O   UNL     1       2.873   8.281  17.149  0.00  0.00    +0.000 OA
ATOM     20  H   UNL     1       2.289   9.069  17.064  0.00  0.00    +0.000 HD
ENDBRANCH   7  19
TORSDOF 1
ENDMDL
MODEL 6
REMARK VINA RESULT:      -6.9      2.411      4.740
REMARK  Name = 
REMARK  4 active torsions:
REMARK  status: ('A' for Active; 'I' for Inactive)
REMARK    1  A    between atoms: C_1  and  C_2
REMARK    2  A    between atoms: C_7  and  O_8
REMARK    3  A    between atoms: C_15  and  C_16
REMARK    4  A    between atoms: C_15  and  C_17
REMARK                            x       y       z     vdW  Elec       q    Type
REMARK                         _______ _______ _______ _____ _____    ______ ____
ROOT
ATOM      1  C   UNL     1       1.001   9.457  20.494  0.00  0.00    +0.000 C 
ATOM      2  C   UNL     1       1.556   8.111  20.143  0.00  0.00    +0.000 A 
ATOM      3  C   UNL     1       1.256   7.013  20.848  0.00  0.00    +0.000 A 
ATOM      4  C   UNL     1       1.829   5.723  20.445  0.00  0.00    +0.000 A 
ATOM      5  O   UNL     1       1.586   4.692  21.063  0.00  0.00    +0.000 OA
ATOM      6  C   UNL     1       2.708   5.722  19.270  0.00  0.00    +0.000 A 
ATOM      7  C   UNL     1       3.296   4.542  18.799  0.00  0.00    +0.000 A 
ATOM      8  C   UNL     1       4.140   4.569  17.681  0.00  0.00    +0.000 A 
ATOM      9  C   UNL     1       4.426   5.802  17.078  0.00  0.00    +0.000 A 
ATOM     10  C   UNL     1       3.816   6.975  17.533  0.00  0.00    +0.000 A 
ATOM     11  C   UNL     1       2.955   6.933  18.630  0.00  0.00    +0.000 A 
ATOM     12  O   UNL     1       2.398   8.121  19.039  0.00  0.00    +0.000 OA
ATOM     13  O   UNL     1       5.300   5.952  16.031  0.00  0.00    +0.000 OA
ATOM     14  C   UNL     1       6.185   4.840  15.784  0.00  0.00    +0.000 C 
ATOM     15  C   UNL     1       7.350   4.878  16.788  0.00  0.00    +0.000 C 
ATOM     16  C   UNL     1       6.762   5.039  14.374  0.00  0.00    +0.000 C 
ATOM     17  C   UNL     1       5.406   3.519  15.813  0.00  0.00    +0.000 C 
ATOM     18  C   UNL     1       4.767   3.300  17.174  0.00  0.00    +0.000 C 
ENDROOT
BRANCH   7  19
ATOM     19  O   UNL     1       3.084   3.330  19.406  0.00  0.00    +0.000 OA
ATOM     20  H   UNL     1       2.223   2.972  19.089  0.00  0.00    +0.000 HD
ENDBRANCH   7  19
TORSDOF 1
ENDMDL
MODEL 7
REMARK VINA RESULT:      -6.9      1.668      6.397
REMARK  Name = 
REMARK  4 active torsions:
REMARK  status: ('A' for Active; 'I' for Inactive)
REMARK    1  A    between atoms: C_1  and  C_2
REMARK    2  A    between atoms: C_7  and  O_8
REMARK    3  A    between atoms: C_15  and  C_16
REMARK    4  A    between atoms: C_15  and  C_17
REMARK                            x       y       z     vdW  Elec       q    Type
REMARK                         _______ _______ _______ _____ _____    ______ ____
ROOT
ATOM      1  C   UNL     1       5.413   4.143  15.951  0.00  0.00    +0.000 C 
ATOM      2  C   UNL     1       4.567   4.696  17.056  0.00  0.00    +0.000 A 
ATOM      3  C   UNL     1       4.214   3.959  18.118  0.00  0.00    +0.000 A 
ATOM      4  C   UNL     1       3.391   4.566  19.170  0.00  0.00    +0.000 A 
ATOM      5  O   UNL     1       3.039   3.928  20.157  0.00  0.00    +0.000 OA
ATOM      6  C   UNL     1       3.004   5.970  18.988  0.00  0.00    +0.000 A 
ATOM      7  C   UNL     1       2.228   6.643  19.939  0.00  0.00    +0.000 A 
ATOM      8  C   UNL     1       1.862   7.980  19.737  0.00  0.00    +0.000 A 
ATOM      9  C   UNL     1       2.242   8.613  18.545  0.00  0.00    +0.000 A 
ATOM     10  C   UNL     1       3.041   7.948  17.609  0.00  0.00    +0.000 A 
ATOM     11  C   UNL     1       3.422   6.624  17.833  0.00  0.00    +0.000 A 
ATOM     12  O   UNL     1       4.194   6.020  16.870  0.00  0.00    +0.000 OA
ATOM     13  O   UNL     1       1.871   9.891  18.211  0.00  0.00    +0.000 OA
ATOM     14  C   UNL     1       0.785  10.453  18.976  0.00  0.00    +0.000 C 
ATOM     15  C   UNL     1      -0.552   9.905  18.448  0.00  0.00    +0.000 C 
ATOM     16  C   UNL     1       0.811  11.969  18.732  0.00  0.00    +0.000 C 
ATOM     17  C   UNL     1       0.995  10.194  20.473  0.00  0.00    +0.000 C 
ATOM     18  C   UNL     1       1.033   8.703  20.762  0.00  0.00    +0.000 C 
ENDROOT
BRANCH   7  19
ATOM     19  O   UNL     1       1.790   6.031  21.086  0.00  0.00    +0.000 OA
ATOM     20  H   UNL     1       2.174   6.507  21.857  0.00  0.00    +0.000 HD
ENDBRANCH   7  19
TORSDOF 1
ENDMDL
MODEL 8
REMARK VINA RESULT:      -6.8      1.437      2.072
REMARK  Name = 
REMARK  4 active torsions:
REMARK  status: ('A' for Active; 'I' for Inactive)
REMARK    1  A    between atoms: C_1  and  C_2
REMARK    2  A    between atoms: C_7  and  O_8
REMARK    3  A    between atoms: C_15  and  C_16
REMARK    4  A    between atoms: C_15  and  C_17
REMARK                            x       y       z     vdW  Elec       q    Type
REMARK                         _______ _______ _______ _____ _____    ______ ____
ROOT
ATOM      1  C   UNL     1      -0.362  11.795  21.174  0.00  0.00    +0.000 C 
ATOM      2  C   UNL     1       0.392  10.758  20.400  0.00  0.00    +0.000 A 
ATOM      3  C   UNL     1       0.911  11.011  19.192  0.00  0.00    +0.000 A 
ATOM      4  C   UNL     1       1.646   9.952  18.491  0.00  0.00    +0.000 A 
ATOM      5  O   UNL     1       2.135  10.135  17.381  0.00  0.00    +0.000 OA
ATOM      6  C   UNL     1       1.768   8.659  19.176  0.00  0.00    +0.000 A 
ATOM      7  C   UNL     1       2.458   7.588  18.597  0.00  0.00    +0.000 A 
ATOM      8  C   UNL     1       2.551   6.360  19.266  0.00  0.00    +0.000 A 
ATOM      9  C   UNL     1       1.899   6.210  20.498  0.00  0.00    +0.000 A 
ATOM     10  C   UNL     1       1.235   7.290  21.088  0.00  0.00    +0.000 A 
ATOM     11  C   UNL     1       1.171   8.516  20.425  0.00  0.00    +0.000 A 
ATOM     12  O   UNL     1       0.491   9.534  21.049  0.00  0.00    +0.000 OA
ATOM     13  O   UNL     1       1.859   5.032  21.199  0.00  0.00    +0.000 OA
ATOM     14  C   UNL     1       2.224   3.846  20.461  0.00  0.00    +0.000 C 
ATOM     15  C   UNL     1       1.036   3.395  19.594  0.00  0.00    +0.000 C 
ATOM     16  C   UNL     1       2.504   2.749  21.498  0.00  0.00    +0.000 C 
ATOM     17  C   UNL     1       3.504   4.093  19.651  0.00  0.00    +0.000 C 
ATOM     18  C   UNL     1       3.297   5.212  18.644  0.00  0.00    +0.000 C 
ENDROOT
BRANCH   7  19
ATOM     19  O   UNL     1       3.053   7.686  17.364  0.00  0.00    +0.000 OA
ATOM     20  H   UNL     1       3.777   7.020  17.316  0.00  0.00    +0.000 HD
ENDBRANCH   7  19
TORSDOF 1
ENDMDL
MODEL 9
REMARK VINA RESULT:      -6.7      1.402      6.222
REMARK  Name = 
REMARK  4 active torsions:
REMARK  status: ('A' for Active; 'I' for Inactive)
REMARK    1  A    between atoms: C_1  and  C_2
REMARK    2  A    between atoms: C_7  and  O_8
REMARK    3  A    between atoms: C_15  and  C_16
REMARK    4  A    between atoms: C_15  and  C_17
REMARK                            x       y       z     vdW  Elec       q    Type
REMARK                         _______ _______ _______ _____ _____    ______ ____
ROOT
ATOM      1  C   UNL     1       5.175   5.969  16.101  0.00  0.00    +0.000 C 
ATOM      2  C   UNL     1       4.265   6.350  17.228  0.00  0.00    +0.000 A 
ATOM      3  C   UNL     1       4.091   5.563  18.297  0.00  0.00    +0.000 A 
ATOM      4  C   UNL     1       3.191   6.001  19.371  0.00  0.00    +0.000 A 
ATOM      5  O   UNL     1       2.996   5.311  20.366  0.00  0.00    +0.000 OA
ATOM      6  C   UNL     1       2.531   7.301  19.200  0.00  0.00    +0.000 A 
ATOM      7  C   UNL     1       1.663   7.813  20.171  0.00  0.00    +0.000 A 
ATOM      8  C   UNL     1       1.037   9.052  19.979  0.00  0.00    +0.000 A 
ATOM      9  C   UNL     1       1.255   9.741  18.778  0.00  0.00    +0.000 A 
ATOM     10  C   UNL     1       2.145   9.242  17.822  0.00  0.00    +0.000 A 
ATOM     11  C   UNL     1       2.784   8.020  18.035  0.00  0.00    +0.000 A 
ATOM     12  O   UNL     1       3.635   7.575  17.052  0.00  0.00    +0.000 OA
ATOM     13  O   UNL     1       0.632  10.920  18.454  0.00  0.00    +0.000 OA
ATOM     14  C   UNL     1      -0.524  11.261  19.247  0.00  0.00    +0.000 C 
ATOM     15  C   UNL     1      -1.740  10.459  18.753  0.00  0.00    +0.000 C 
ATOM     16  C   UNL     1      -0.802  12.752  19.003  0.00  0.00    +0.000 C 
ATOM     17  C   UNL     1      -0.230  11.056  20.739  0.00  0.00    +0.000 C 
ATOM     18  C   UNL     1       0.108   9.602  21.025  0.00  0.00    +0.000 C 
ENDROOT
BRANCH   7  19
ATOM     19  O   UNL     1       1.382   7.132  21.328  0.00  0.00    +0.000 OA
ATOM     20  H   UNL     1       1.852   7.576  22.070  0.00  0.00    +0.000 HD
ENDBRANCH   7  19
TORSDOF 1
ENDMDL
