MODEL 1
REMARK VINA RESULT:      -7.8      0.000      0.000
REMARK  Name = 
REMARK  2 active torsions:
REMARK  status: ('A' for Active; 'I' for Inactive)
REMARK    1  A    between atoms: O_1  and  C_2
REMARK    2  A    between atoms: C_2  and  C_3
REMARK                            x       y       z     vdW  Elec       q    Type
REMARK                         _______ _______ _______ _____ _____    ______ ____
ROOT
ATOM      1  C   UNL     1       4.800   4.184  17.812  0.00  0.00    +0.000 C 
ATOM      2  C   UNL     1       4.164   5.527  18.239  0.00  0.00    +0.000 A 
ATOM      3  C   UNL     1       4.004   6.707  17.527  0.00  0.00    +0.000 A 
ATOM      4  C   UNL     1       3.060   7.644  17.975  0.00  0.00    +0.000 A 
ATOM      5  C   UNL     1       2.325   7.433  19.160  0.00  0.00    +0.000 A 
ATOM      6  C   UNL     1       2.412   6.223  19.833  0.00  0.00    +0.000 A 
ATOM      7  C   UNL     1       3.252   5.281  19.277  0.00  0.00    +0.000 A 
ATOM      8  C   UNL     1       2.922   3.883  19.070  0.00  0.00    +0.000 C 
ATOM      9  N   UNL     1       2.126   3.103  19.739  0.00  0.00    +0.000 NA
ATOM     10  C   UNL     1       2.212   1.852  18.916  0.00  0.00    +0.000 C 
ATOM     11  C   UNL     1       3.472   1.971  18.010  0.00  0.00    +0.000 C 
ATOM     12  N   UNL     1       3.599   3.395  17.958  0.00  0.00    +0.000 N 
ENDROOT
BRANCH   1  13
ATOM     13  C   UNL     1       5.640   4.325  16.591  0.00  0.00    +0.000 A 
ATOM     14  C   UNL     1       6.956   4.617  16.301  0.00  0.00    +0.000 A 
ATOM     15  C   UNL     1       7.083   4.580  14.891  0.00  0.00    +0.000 A 
ATOM     16  C   UNL     1       5.840   4.269  14.387  0.00  0.00    +0.000 A 
ATOM     17  O   UNL     1       4.965   4.106  15.406  0.00  0.00    +0.000 OA
ENDBRANCH   1  13
BRANCH   1  18
ATOM     18  O   UNL     1       5.719   3.709  18.805  0.00  0.00    +0.000 OA
ATOM     19  H   UNL     1       5.222   3.105  19.375  0.00  0.00    +0.000 HD
ENDBRANCH   1  18
TORSDOF 2
ENDMDL
MODEL 2
REMARK VINA RESULT:      -7.2      2.679      4.249
REMARK  Name = 
REMARK  2 active torsions:
REMARK  status: ('A' for Active; 'I' for Inactive)
REMARK    1  A    between atoms: O_1  and  C_2
REMARK    2  A    between atoms: C_2  and  C_3
REMARK                            x       y       z     vdW  Elec       q    Type
REMARK                         _______ _______ _______ _____ _____    ______ ____
ROOT
ATOM      1  C   UNL     1       6.795   5.375  16.991  0.00  0.00    +0.000 C 
ATOM      2  C   UNL     1       5.384   5.105  17.564  0.00  0.00    +0.000 A 
ATOM      3  C   UNL     1       4.536   5.936  18.281  0.00  0.00    +0.000 A 
ATOM      4  C   UNL     1       3.172   5.613  18.348  0.00  0.00    +0.000 A 
ATOM      5  C   UNL     1       2.667   4.437  17.755  0.00  0.00    +0.000 A 
ATOM      6  C   UNL     1       3.486   3.644  16.964  0.00  0.00    +0.000 A 
ATOM      7  C   UNL     1       4.787   4.077  16.818  0.00  0.00    +0.000 A 
ATOM      8  C   UNL     1       5.507   4.154  15.559  0.00  0.00    +0.000 C 
ATOM      9  N   UNL     1       5.389   3.436  14.483  0.00  0.00    +0.000 NA
ATOM     10  C   UNL     1       6.370   4.126  13.583  0.00  0.00    +0.000 C 
ATOM     11  C   UNL     1       7.295   5.000  14.479  0.00  0.00    +0.000 C 
ATOM     12  N   UNL     1       6.433   5.189  15.605  0.00  0.00    +0.000 N 
ENDROOT
BRANCH   1  13
ATOM     13  C   UNL     1       7.426   6.577  17.601  0.00  0.00    +0.000 A 
ATOM     14  C   UNL     1       8.178   6.861  18.722  0.00  0.00    +0.000 A 
ATOM     15  C   UNL     1       8.457   8.249  18.687  0.00  0.00    +0.000 A 
ATOM     16  C   UNL     1       7.861   8.747  17.551  0.00  0.00    +0.000 A 
ATOM     17  O   UNL     1       7.243   7.744  16.885  0.00  0.00    +0.000 OA
ENDBRANCH   1  13
BRANCH   1  18
ATOM     18  O   UNL     1       7.698   4.311  17.319  0.00  0.00    +0.000 OA
ATOM     19  H   UNL     1       8.541   4.523  16.894  0.00  0.00    +0.000 HD
ENDBRANCH   1  18
TORSDOF 2
ENDMDL
MODEL 3
REMARK VINA RESULT:      -7.0      1.893      4.827
REMARK  Name = 
REMARK  2 active torsions:
REMARK  status: ('A' for Active; 'I' for Inactive)
REMARK    1  A    between atoms: O_1  and  C_2
REMARK    2  A    between atoms: C_2  and  C_3
REMARK                            x       y       z     vdW  Elec       q    Type
REMARK                         _______ _______ _______ _____ _____    ______ ____
ROOT
ATOM      1  C   UNL     1       3.796   5.904  18.052  0.00  0.00    +0.000 C 
ATOM      2  C   UNL     1       3.066   4.572  18.341  0.00  0.00    +0.000 A 
ATOM      3  C   UNL     1       1.715   4.315  18.528  0.00  0.00    +0.000 A 
ATOM      4  C   UNL     1       1.251   2.999  18.381  0.00  0.00    +0.000 A 
ATOM      5  C   UNL     1       2.137   1.936  18.110  0.00  0.00    +0.000 A 
ATOM      6  C   UNL     1       3.474   2.190  17.835  0.00  0.00    +0.000 A 
ATOM      7  C   UNL     1       3.854   3.515  17.859  0.00  0.00    +0.000 A 
ATOM      8  C   UNL     1       4.662   4.172  16.848  0.00  0.00    +0.000 C 
ATOM      9  N   UNL     1       5.585   3.689  16.071  0.00  0.00    +0.000 NA
ATOM     10  C   UNL     1       5.910   4.899  15.246  0.00  0.00    +0.000 C 
ATOM     11  C   UNL     1       5.345   6.143  15.992  0.00  0.00    +0.000 C 
ATOM     12  N   UNL     1       4.315   5.515  16.762  0.00  0.00    +0.000 N 
ENDROOT
BRANCH   1  13
ATOM     13  C   UNL     1       2.947   7.086  18.361  0.00  0.00    +0.000 A 
ATOM     14  C   UNL     1       2.450   8.176  17.678  0.00  0.00    +0.000 A 
ATOM     15  C   UNL     1       1.687   8.928  18.605  0.00  0.00    +0.000 A 
ATOM     16  C   UNL     1       1.757   8.265  19.809  0.00  0.00    +0.000 A 
ATOM     17  O   UNL     1       2.508   7.148  19.670  0.00  0.00    +0.000 OA
ENDBRANCH   1  13
BRANCH   1  18
ATOM     18  O   UNL     1       4.933   6.066  18.912  0.00  0.00    +0.000 OA
ATOM     19  H   UNL     1       4.628   6.568  19.680  0.00  0.00    +0.000 HD
ENDBRANCH   1  18
TORSDOF 2
ENDMDL
MODEL 4
REMARK VINA RESULT:      -6.7      1.929      4.132
REMARK  Name = 
REMARK  2 active torsions:
REMARK  status: ('A' for Active; 'I' for Inactive)
REMARK    1  A    between atoms: O_1  and  C_2
REMARK    2  A    between atoms: C_2  and  C_3
REMARK                            x       y       z     vdW  Elec       q    Type
REMARK                         _______ _______ _______ _____ _____    ______ ____
ROOT
ATOM      1  C   UNL     1       4.648   4.613  17.585  0.00  0.00    +0.000 C 
ATOM      2  C   UNL     1       3.566   5.694  17.816  0.00  0.00    +0.000 A 
ATOM      3  C   UNL     1       2.535   5.742  18.741  0.00  0.00    +0.000 A 
ATOM      4  C   UNL     1       1.937   6.981  19.022  0.00  0.00    +0.000 A 
ATOM      5  C   UNL     1       2.323   8.152  18.339  0.00  0.00    +0.000 A 
ATOM      6  C   UNL     1       3.410   8.134  17.475  0.00  0.00    +0.000 A 
ATOM      7  C   UNL     1       4.050   6.921  17.336  0.00  0.00    +0.000 A 
ATOM      8  C   UNL     1       5.487   6.723  17.383  0.00  0.00    +0.000 C 
ATOM      9  N   UNL     1       6.454   7.524  17.048  0.00  0.00    +0.000 NA
ATOM     10  C   UNL     1       7.644   6.700  17.441  0.00  0.00    +0.000 C 
ATOM     11  C   UNL     1       7.161   5.230  17.612  0.00  0.00    +0.000 C 
ATOM     12  N   UNL     1       5.776   5.461  17.889  0.00  0.00    +0.000 N 
ENDROOT
BRANCH   1  13
ATOM     13  C   UNL     1       4.294   3.320  18.233  0.00  0.00    +0.000 A 
ATOM     14  C   UNL     1       3.535   2.212  17.923  0.00  0.00    +0.000 A 
ATOM     15  C   UNL     1       3.642   1.322  19.020  0.00  0.00    +0.000 A 
ATOM     16  C   UNL     1       4.458   1.929  19.947  0.00  0.00    +0.000 A 
ATOM     17  O   UNL     1       4.863   3.132  19.478  0.00  0.00    +0.000 OA
ENDBRANCH   1  13
BRANCH   1  18
ATOM     18  O   UNL     1       4.756   4.279  16.194  0.00  0.00    +0.000 OA
ATOM     19  H   UNL     1       4.311   4.985  15.706  0.00  0.00    +0.000 HD
ENDBRANCH   1  18
TORSDOF 2
ENDMDL
MODEL 5
REMARK VINA RESULT:      -6.7      1.946      4.603
REMARK  Name = 
REMARK  2 active torsions:
REMARK  status: ('A' for Active; 'I' for Inactive)
REMARK    1  A    between atoms: O_1  and  C_2
REMARK    2  A    between atoms: C_2  and  C_3
REMARK                            x       y       z     vdW  Elec       q    Type
REMARK                         _______ _______ _______ _____ _____    ______ ____
ROOT
ATOM      1  C   UNL     1       2.659   4.619  18.719  0.00  0.00    +0.000 C 
ATOM      2  C   UNL     1       2.190   6.083  18.890  0.00  0.00    +0.000 A 
ATOM      3  C   UNL     1       1.758   6.757  20.022  0.00  0.00    +0.000 A 
ATOM      4  C   UNL     1       1.765   8.161  20.016  0.00  0.00    +0.000 A 
ATOM      5  C   UNL     1       2.141   8.886  18.868  0.00  0.00    +0.000 A 
ATOM      6  C   UNL     1       2.657   8.228  17.760  0.00  0.00    +0.000 A 
ATOM      7  C   UNL     1       2.757   6.857  17.865  0.00  0.00    +0.000 A 
ATOM      8  C   UNL     1       3.921   6.072  17.497  0.00  0.00    +0.000 C 
ATOM      9  N   UNL     1       4.826   6.293  16.591  0.00  0.00    +0.000 NA
ATOM     10  C   UNL     1       5.747   5.134  16.834  0.00  0.00    +0.000 C 
ATOM     11  C   UNL     1       4.967   4.083  17.677  0.00  0.00    +0.000 C 
ATOM     12  N   UNL     1       4.003   4.939  18.298  0.00  0.00    +0.000 N 
ENDROOT
BRANCH   1  13
ATOM     13  C   UNL     1       2.257   3.765  19.870  0.00  0.00    +0.000 A 
ATOM     14  C   UNL     1       1.080   3.365  20.466  0.00  0.00    +0.000 A 
ATOM     15  C   UNL     1       1.433   2.523  21.548  0.00  0.00    +0.000 A 
ATOM     16  C   UNL     1       2.807   2.451  21.564  0.00  0.00    +0.000 A 
ATOM     17  O   UNL     1       3.313   3.190  20.551  0.00  0.00    +0.000 OA
ENDBRANCH   1  13
BRANCH   1  18
ATOM     18  O   UNL     1       2.020   4.000  17.595  0.00  0.00    +0.000 OA
ATOM     19  H   UNL     1       1.394   4.647  17.242  0.00  0.00    +0.000 HD
ENDBRANCH   1  18
TORSDOF 2
ENDMDL
MODEL 6
REMARK VINA RESULT:      -6.6      2.316      5.320
REMARK  Name = 
REMARK  2 active torsions:
REMARK  status: ('A' for Active; 'I' for Inactive)
REMARK    1  A    between atoms: O_1  and  C_2
REMARK    2  A    between atoms: C_2  and  C_3
REMARK                            x       y       z     vdW  Elec       q    Type
REMARK                         _______ _______ _______ _____ _____    ______ ____
ROOT
ATOM      1  C   UNL     1       5.304   4.413  17.117  0.00  0.00    +0.000 C 
ATOM      2  C   UNL     1       5.699   4.074  15.661  0.00  0.00    +0.000 A 
ATOM      3  C   UNL     1       4.913   3.670  14.593  0.00  0.00    +0.000 A 
ATOM      4  C   UNL     1       5.422   3.805  13.291  0.00  0.00    +0.000 A 
ATOM      5  C   UNL     1       6.729   4.281  13.061  0.00  0.00    +0.000 A 
ATOM      6  C   UNL     1       7.493   4.768  14.113  0.00  0.00    +0.000 A 
ATOM      7  C   UNL     1       6.896   4.740  15.356  0.00  0.00    +0.000 A 
ATOM      8  C   UNL     1       6.885   5.840  16.304  0.00  0.00    +0.000 C 
ATOM      9  N   UNL     1       7.753   6.788  16.494  0.00  0.00    +0.000 NA
ATOM     10  C   UNL     1       7.054   7.592  17.550  0.00  0.00    +0.000 C 
ATOM     11  C   UNL     1       5.940   6.695  18.163  0.00  0.00    +0.000 C 
ATOM     12  N   UNL     1       5.728   5.793  17.072  0.00  0.00    +0.000 N 
ENDROOT
BRANCH   1  13
ATOM     13  C   UNL     1       3.950   3.900  17.464  0.00  0.00    +0.000 A 
ATOM     14  C   UNL     1       2.677   4.416  17.583  0.00  0.00    +0.000 A 
ATOM     15  C   UNL     1       1.831   3.341  17.950  0.00  0.00    +0.000 A 
ATOM     16  C   UNL     1       2.628   2.221  18.040  0.00  0.00    +0.000 A 
ATOM     17  O   UNL     1       3.906   2.548  17.741  0.00  0.00    +0.000 OA
ENDBRANCH   1  13
BRANCH   1  18
ATOM     18  O   UNL     1       6.168   3.756  18.054  0.00  0.00    +0.000 OA
ATOM     19  H   UNL     1       6.693   4.448  18.478  0.00  0.00    +0.000 HD
ENDBRANCH   1  18
TORSDOF 2
ENDMDL
MODEL 7
REMARK VINA RESULT:      -6.6      1.978      4.474
REMARK  Name = 
REMARK  2 active torsions:
REMARK  status: ('A' for Active; 'I' for Inactive)
REMARK    1  A    between atoms: O_1  and  C_2
REMARK    2  A    between atoms: C_2  and  C_3
REMARK                            x       y       z     vdW  Elec       q    Type
REMARK                         _______ _______ _______ _____ _____    ______ ____
ROOT
ATOM      1  C   UNL     1       2.779   5.520  18.252  0.00  0.00    +0.000 C 
ATOM      2  C   UNL     1       3.937   5.478  17.228  0.00  0.00    +0.000 A 
ATOM      3  C   UNL     1       4.795   6.484  16.807  0.00  0.00    +0.000 A 
ATOM      4  C   UNL     1       6.000   6.126  16.183  0.00  0.00    +0.000 A 
ATOM      5  C   UNL     1       6.319   4.778  15.925  0.00  0.00    +0.000 A 
ATOM      6  C   UNL     1       5.514   3.760  16.416  0.00  0.00    +0.000 A 
ATOM      7  C   UNL     1       4.411   4.160  17.141  0.00  0.00    +0.000 A 
ATOM      8  C   UNL     1       4.002   3.603  18.418  0.00  0.00    +0.000 C 
ATOM      9  N   UNL     1       4.162   2.406  18.898  0.00  0.00    +0.000 NA
ATOM     10  C   UNL     1       3.578   2.579  20.269  0.00  0.00    +0.000 C 
ATOM     11  C   UNL     1       2.725   3.881  20.255  0.00  0.00    +0.000 C 
ATOM     12  N   UNL     1       3.360   4.574  19.176  0.00  0.00    +0.000 N 
ENDROOT
BRANCH   1  13
ATOM     13  C   UNL     1       2.342   6.912  18.546  0.00  0.00    +0.000 A 
ATOM     14  C   UNL     1       2.102   8.066  17.830  0.00  0.00    +0.000 A 
ATOM     15  C   UNL     1       1.695   9.050  18.763  0.00  0.00    +0.000 A 
ATOM     16  C   UNL     1       1.708   8.453  20.003  0.00  0.00    +0.000 A 
ATOM     17  O   UNL     1       2.090   7.161  19.881  0.00  0.00    +0.000 OA
ENDBRANCH   1  13
BRANCH   1  18
ATOM     18  O   UNL     1       1.601   4.896  17.724  0.00  0.00    +0.000 OA
ATOM     19  H   UNL     1       0.877   5.118  18.326  0.00  0.00    +0.000 HD
ENDBRANCH   1  18
TORSDOF 2
ENDMDL
MODEL 8
REMARK VINA RESULT:      -6.6      2.377      4.800
REMARK  Name = 
REMARK  2 active torsions:
REMARK  status: ('A' for Active; 'I' for Inactive)
REMARK    1  A    between atoms: O_1  and  C_2
REMARK    2  A    between atoms: C_2  and  C_3
REMARK                            x       y       z     vdW  Elec       q    Type
REMARK                         _______ _______ _______ _____ _____    ______ ____
ROOT
ATOM      1  C   UNL     1       4.615   5.106  16.829  0.00  0.00    +0.000 C 
ATOM      2  C   UNL     1       5.627   5.561  17.905  0.00  0.00    +0.000 A 
ATOM      3  C   UNL     1       5.794   5.132  19.214  0.00  0.00    +0.000 A 
ATOM      4  C   UNL     1       7.011   5.398  19.861  0.00  0.00    +0.000 A 
ATOM      5  C   UNL     1       8.029   6.140  19.230  0.00  0.00    +0.000 A 
ATOM      6  C   UNL     1       7.910   6.501  17.895  0.00  0.00    +0.000 A 
ATOM      7  C   UNL     1       6.753   6.098  17.262  0.00  0.00    +0.000 A 
ATOM      8  C   UNL     1       6.690   5.468  15.956  0.00  0.00    +0.000 C 
ATOM      9  N   UNL     1       7.474   5.593  14.928  0.00  0.00    +0.000 NA
ATOM     10  C   UNL     1       6.859   4.598  13.989  0.00  0.00    +0.000 C 
ATOM     11  C   UNL     1       5.428   4.281  14.514  0.00  0.00    +0.000 C 
ATOM     12  N   UNL     1       5.599   4.609  15.896  0.00  0.00    +0.000 N 
ENDROOT
BRANCH   1  13
ATOM     13  C   UNL     1       3.473   4.354  17.417  0.00  0.00    +0.000 A 
ATOM     14  C   UNL     1       2.235   4.652  17.947  0.00  0.00    +0.000 A 
ATOM     15  C   UNL     1       1.644   3.423  18.326  0.00  0.00    +0.000 A 
ATOM     16  C   UNL     1       2.548   2.433  18.012  0.00  0.00    +0.000 A 
ATOM     17  O   UNL     1       3.651   2.984  17.456  0.00  0.00    +0.000 OA
ENDBRANCH   1  13
BRANCH   1  18
ATOM     18  O   UNL     1       3.992   6.232  16.196  0.00  0.00    +0.000 OA
ATOM     19  H   UNL     1       3.047   6.034  16.146  0.00  0.00    +0.000 HD
ENDBRANCH   1  18
TORSDOF 2
ENDMDL
MODEL 9
REMARK VINA RESULT:      -6.5      2.227      4.973
REMARK  Name = 
REMARK  2 active torsions:
REMARK  status: ('A' for Active; 'I' for Inactive)
REMARK    1  A    between atoms: O_1  and  C_2
REMARK    2  A    between atoms: C_2  and  C_3
REMARK                            x       y       z     vdW  Elec       q    Type
REMARK                         _______ _______ _______ _____ _____    ______ ____
ROOT
ATOM      1  C   UNL     1       3.131   5.457  18.899  0.00  0.00    +0.000 C 
ATOM      2  C   UNL     1       4.128   5.163  17.754  0.00  0.00    +0.000 A 
ATOM      3  C   UNL     1       4.250   4.045  16.941  0.00  0.00    +0.000 A 
ATOM      4  C   UNL     1       4.953   4.165  15.731  0.00  0.00    +0.000 A 
ATOM      5  C   UNL     1       5.580   5.372  15.364  0.00  0.00    +0.000 A 
ATOM      6  C   UNL     1       5.394   6.519  16.124  0.00  0.00    +0.000 A 
ATOM      7  C   UNL     1       4.583   6.383  17.232  0.00  0.00    +0.000 A 
ATOM      8  C   UNL     1       3.514   7.293  17.603  0.00  0.00    +0.000 C 
ATOM      9  N   UNL     1       3.390   8.569  17.391  0.00  0.00    +0.000 NA
ATOM     10  C   UNL     1       2.025   8.812  17.963  0.00  0.00    +0.000 C 
ATOM     11  C   UNL     1       1.671   7.594  18.865  0.00  0.00    +0.000 C 
ATOM     12  N   UNL     1       2.512   6.600  18.271  0.00  0.00    +0.000 N 
ENDROOT
BRANCH   1  13
ATOM     13  C   UNL     1       2.457   4.222  19.385  0.00  0.00    +0.000 A 
ATOM     14  C   UNL     1       2.652   3.294  20.385  0.00  0.00    +0.000 A 
ATOM     15  C   UNL     1       1.601   2.351  20.281  0.00  0.00    +0.000 A 
ATOM     16  C   UNL     1       0.816   2.745  19.221  0.00  0.00    +0.000 A 
ATOM     17  O   UNL     1       1.320   3.878  18.679  0.00  0.00    +0.000 OA
ENDBRANCH   1  13
BRANCH   1  18
ATOM     18  O   UNL     1       3.811   5.953  20.060  0.00  0.00    +0.000 OA
ATOM     19  H   UNL     1       3.824   5.231  20.703  0.00  0.00    +0.000 HD
ENDBRANCH   1  18
TORSDOF 2
ENDMDL
