MODEL 1
REMARK VINA RESULT:      -8.7      0.000      0.000
REMARK  Name = 
REMARK  9 active torsions:
REMARK  status: ('A' for Active; 'I' for Inactive)
REMARK    1  A    between atoms: C_2  and  O_3
REMARK    2  A    between atoms: C_2  and  C_4
REMARK    3  A    between atoms: C_4  and  O_5
REMARK    4  A    between atoms: C_6  and  C_7
REMARK    5  A    between atoms: C_7  and  C_9
REMARK    6  A    between atoms: C_11  and  C_12
REMARK    7  A    between atoms: C_12  and  C_13
REMARK    8  A    between atoms: N_21  and  C_22
REMARK    9  A    between atoms: C_22  and  C_23
REMARK                            x       y       z     vdW  Elec       q    Type
REMARK                         _______ _______ _______ _____ _____    ______ ____
ROOT
ATOM      1  C   UNL     1       1.503   8.647  19.542  0.00  0.00    +0.000 A 
ATOM      2  C   UNL     1       1.555   7.524  20.288  0.00  0.00    +0.000 A 
ATOM      3  C   UNL     1       2.311   6.359  19.876  0.00  0.00    +0.000 A 
ATOM      4  C   UNL     1       3.047   6.431  18.756  0.00  0.00    +0.000 A 
ATOM      5  N   UNL     1       3.045   7.562  17.958  0.00  0.00    +0.000 N 
ATOM      6  C   UNL     1       2.230   8.662  18.228  0.00  0.00    +0.000 A 
ATOM      7  O   UNL     1       2.142   9.625  17.468  0.00  0.00    +0.000 OA
ENDROOT
BRANCH   1   8
ATOM      8  C   UNL     1       0.745   9.807  20.117  0.00  0.00    +0.000 C 
ATOM      9  O   UNL     1       1.208  10.467  21.042  0.00  0.00    +0.000 OA
BRANCH   8  11
ATOM     10  C   UNL     1      -0.642  11.247  18.612  0.00  0.00    +0.000 C 
ATOM     11  C   UNL     1      -0.527  10.200  19.438  0.00  0.00    +0.000 C 
BRANCH  10  13
ATOM     12  O   UNL     1      -2.907  11.865  18.731  0.00  0.00    +0.000 OA
ATOM     13  C   UNL     1      -1.944  11.653  18.005  0.00  0.00    +0.000 C 
BRANCH  13  14
ATOM     14  O   UNL     1      -1.987  11.819  16.672  0.00  0.00    +0.000 OA
ATOM     15  H   UNL     1      -2.462  11.140  16.165  0.00  0.00    +0.000 HD
ENDBRANCH  13  14
ENDBRANCH  10  13
BRANCH  10  16
ATOM     16  O   UNL     1       0.424  12.095  18.349  0.00  0.00    +0.000 OA
ATOM     17  H   UNL     1       1.075  11.560  17.846  0.00  0.00    +0.000 HD
ENDBRANCH  10  16
ENDBRANCH   8  11
ENDBRANCH   1   8
BRANCH   3  18
ATOM     18  C   UNL     1       2.362   5.161  20.793  0.00  0.00    +0.000 C 
BRANCH  18  19
ATOM     19  C   UNL     1       2.633   3.843  20.116  0.00  0.00    +0.000 A 
ATOM     20  C   UNL     1       3.944   3.381  19.924  0.00  0.00    +0.000 A 
ATOM     21  C   UNL     1       4.183   2.215  19.190  0.00  0.00    +0.000 A 
ATOM     22  C   UNL     1       3.117   1.490  18.654  0.00  0.00    +0.000 A 
ATOM     23  C   UNL     1       1.809   1.916  18.875  0.00  0.00    +0.000 A 
ATOM     24  C   UNL     1       1.578   3.078  19.608  0.00  0.00    +0.000 A 
ATOM     25  F   UNL     1       0.312   3.479  19.797  0.00  0.00    +0.000 F 
ENDBRANCH  18  19
ENDBRANCH   3  18
BRANCH   5  26
ATOM     26  C   UNL     1       3.880   7.589  16.752  0.00  0.00    +0.000 C 
BRANCH  26  27
ATOM     27  C   UNL     1       5.079   6.680  16.873  0.00  0.00    +0.000 A 
ATOM     28  C   UNL     1       4.982   5.329  16.499  0.00  0.00    +0.000 A 
ATOM     29  C   UNL     1       6.044   4.456  16.730  0.00  0.00    +0.000 A 
ATOM     30  C   UNL     1       7.203   4.934  17.328  0.00  0.00    +0.000 A 
ATOM     31  F   UNL     1       8.205   4.087  17.594  0.00  0.00    +0.000 F 
ATOM     32  C   UNL     1       7.334   6.275  17.669  0.00  0.00    +0.000 A 
ATOM     33  C   UNL     1       6.276   7.151  17.435  0.00  0.00    +0.000 A 
ENDBRANCH  26  27
ENDBRANCH   5  26
TORSDOF 9
ENDMDL
MODEL 2
REMARK VINA RESULT:      -8.5      1.488      3.995
REMARK  Name = 
REMARK  9 active torsions:
REMARK  status: ('A' for Active; 'I' for Inactive)
REMARK    1  A    between atoms: C_2  and  O_3
REMARK    2  A    between atoms: C_2  and  C_4
REMARK    3  A    between atoms: C_4  and  O_5
REMARK    4  A    between atoms: C_6  and  C_7
REMARK    5  A    between atoms: C_7  and  C_9
REMARK    6  A    between atoms: C_11  and  C_12
REMARK    7  A    between atoms: C_12  and  C_13
REMARK    8  A    between atoms: N_21  and  C_22
REMARK    9  A    between atoms: C_22  and  C_23
REMARK                            x       y       z     vdW  Elec       q    Type
REMARK                         _______ _______ _______ _____ _____    ______ ____
ROOT
ATOM      1  C   UNL     1       1.427   8.920  19.404  0.00  0.00    +0.000 A 
ATOM      2  C   UNL     1       2.226   8.735  18.333  0.00  0.00    +0.000 A 
ATOM      3  C   UNL     1       2.949   7.499  18.114  0.00  0.00    +0.000 A 
ATOM      4  C   UNL     1       2.752   6.479  18.964  0.00  0.00    +0.000 A 
ATOM      5  N   UNL     1       1.933   6.604  20.073  0.00  0.00    +0.000 N 
ATOM      6  C   UNL     1       1.321   7.812  20.412  0.00  0.00    +0.000 A 
ATOM      7  O   UNL     1       0.681   7.961  21.451  0.00  0.00    +0.000 OA
ENDROOT
BRANCH   1   8
ATOM      8  C   UNL     1       0.679  10.218  19.474  0.00  0.00    +0.000 C 
ATOM      9  O   UNL     1       1.166  11.197  20.031  0.00  0.00    +0.000 OA
BRANCH   8  11
ATOM     10  C   UNL     1      -1.018  11.384  18.052  0.00  0.00    +0.000 C 
ATOM     11  C   UNL     1      -0.617  10.305  18.736  0.00  0.00    +0.000 C 
BRANCH  10  13
ATOM     12  O   UNL     1      -3.366  11.514  18.066  0.00  0.00    +0.000 OA
ATOM     13  C   UNL     1      -2.351  11.462  17.383  0.00  0.00    +0.000 C 
BRANCH  13  14
ATOM     14  O   UNL     1      -2.372  11.525  16.041  0.00  0.00    +0.000 OA
ATOM     15  H   UNL     1      -1.534  11.343  15.584  0.00  0.00    +0.000 HD
ENDBRANCH  13  14
ENDBRANCH  10  13
BRANCH  10  16
ATOM     16  O   UNL     1      -0.266  12.549  18.012  0.00  0.00    +0.000 OA
ATOM     17  H   UNL     1      -0.910  13.280  17.898  0.00  0.00    +0.000 HD
ENDBRANCH  10  16
ENDBRANCH   8  11
ENDBRANCH   1   8
BRANCH   3  18
ATOM     18  C   UNL     1       3.778   7.351  16.862  0.00  0.00    +0.000 C 
BRANCH  18  19
ATOM     19  C   UNL     1       4.991   6.466  16.994  0.00  0.00    +0.000 A 
ATOM     20  C   UNL     1       6.263   7.007  17.233  0.00  0.00    +0.000 A 
ATOM     21  C   UNL     1       7.393   6.184  17.236  0.00  0.00    +0.000 A 
ATOM     22  C   UNL     1       7.264   4.812  17.016  0.00  0.00    +0.000 A 
ATOM     23  C   UNL     1       6.001   4.257  16.822  0.00  0.00    +0.000 A 
ATOM     24  C   UNL     1       4.879   5.083  16.821  0.00  0.00    +0.000 A 
ATOM     25  F   UNL     1       3.674   4.531  16.617  0.00  0.00    +0.000 F 
ENDBRANCH  18  19
ENDBRANCH   3  18
BRANCH   5  26
ATOM     26  C   UNL     1       1.745   5.451  20.959  0.00  0.00    +0.000 C 
BRANCH  26  27
ATOM     27  C   UNL     1       2.218   4.166  20.324  0.00  0.00    +0.000 A 
ATOM     28  C   UNL     1       3.582   3.828  20.341  0.00  0.00    +0.000 A 
ATOM     29  C   UNL     1       4.040   2.711  19.645  0.00  0.00    +0.000 A 
ATOM     30  C   UNL     1       3.136   1.929  18.937  0.00  0.00    +0.000 A 
ATOM     31  F   UNL     1       3.581   0.883  18.229  0.00  0.00    +0.000 F 
ATOM     32  C   UNL     1       1.777   2.222  18.941  0.00  0.00    +0.000 A 
ATOM     33  C   UNL     1       1.316   3.336  19.639  0.00  0.00    +0.000 A 
ENDBRANCH  26  27
ENDBRANCH   5  26
TORSDOF 9
ENDMDL
MODEL 3
REMARK VINA RESULT:      -8.5      1.510      4.226
REMARK  Name = 
REMARK  9 active torsions:
REMARK  status: ('A' for Active; 'I' for Inactive)
REMARK    1  A    between atoms: C_2  and  O_3
REMARK    2  A    between atoms: C_2  and  C_4
REMARK    3  A    between atoms: C_4  and  O_5
REMARK    4  A    between atoms: C_6  and  C_7
REMARK    5  A    between atoms: C_7  and  C_9
REMARK    6  A    between atoms: C_11  and  C_12
REMARK    7  A    between atoms: C_12  and  C_13
REMARK    8  A    between atoms: N_21  and  C_22
REMARK    9  A    between atoms: C_22  and  C_23
REMARK                            x       y       z     vdW  Elec       q    Type
REMARK                         _______ _______ _______ _____ _____    ______ ____
ROOT
ATOM      1  C   UNL     1       1.507   9.102  18.828  0.00  0.00    +0.000 A 
ATOM      2  C   UNL     1       2.356   8.875  17.806  0.00  0.00    +0.000 A 
ATOM      3  C   UNL     1       3.170   7.679  17.730  0.00  0.00    +0.000 A 
ATOM      4  C   UNL     1       3.014   6.733  18.669  0.00  0.00    +0.000 A 
ATOM      5  N   UNL     1       2.147   6.903  19.735  0.00  0.00    +0.000 N 
ATOM      6  C   UNL     1       1.441   8.089  19.936  0.00  0.00    +0.000 A 
ATOM      7  O   UNL     1       0.754   8.290  20.936  0.00  0.00    +0.000 OA
ENDROOT
BRANCH   1   8
ATOM      8  C   UNL     1       0.668  10.342  18.750  0.00  0.00    +0.000 C 
ATOM      9  O   UNL     1       1.178  11.456  18.839  0.00  0.00    +0.000 OA
BRANCH   8  11
ATOM     10  C   UNL     1      -1.525  11.092  17.804  0.00  0.00    +0.000 C 
ATOM     11  C   UNL     1      -0.783  10.172  18.434  0.00  0.00    +0.000 C 
BRANCH  10  13
ATOM     12  O   UNL     1      -3.497   9.813  17.718  0.00  0.00    +0.000 OA
ATOM     13  C   UNL     1      -2.988  10.918  17.566  0.00  0.00    +0.000 C 
BRANCH  13  14
ATOM     14  O   UNL     1      -3.702  12.009  17.242  0.00  0.00    +0.000 OA
ATOM     15  H   UNL     1      -4.130  12.482  17.975  0.00  0.00    +0.000 HD
ENDBRANCH  13  14
ENDBRANCH  10  13
BRANCH  10  16
ATOM     16  O   UNL     1      -1.005  12.321  17.426  0.00  0.00    +0.000 OA
ATOM     17  H   UNL     1      -0.255  12.122  16.825  0.00  0.00    +0.000 HD
ENDBRANCH  10  16
ENDBRANCH   8  11
ENDBRANCH   1   8
BRANCH   3  18
ATOM     18  C   UNL     1       4.055   7.474  16.524  0.00  0.00    +0.000 C 
BRANCH  18  19
ATOM     19  C   UNL     1       5.155   6.459  16.698  0.00  0.00    +0.000 A 
ATOM     20  C   UNL     1       4.952   5.107  16.382  0.00  0.00    +0.000 A 
ATOM     21  C   UNL     1       5.942   4.160  16.660  0.00  0.00    +0.000 A 
ATOM     22  C   UNL     1       7.149   4.552  17.240  0.00  0.00    +0.000 A 
ATOM     23  C   UNL     1       7.378   5.899  17.517  0.00  0.00    +0.000 A 
ATOM     24  C   UNL     1       6.388   6.838  17.237  0.00  0.00    +0.000 A 
ATOM     25  F   UNL     1       6.623   8.126  17.526  0.00  0.00    +0.000 F 
ENDBRANCH  18  19
ENDBRANCH   3  18
BRANCH   5  26
ATOM     26  C   UNL     1       2.007   5.829  20.723  0.00  0.00    +0.000 C 
BRANCH  26  27
ATOM     27  C   UNL     1       2.380   4.482  20.153  0.00  0.00    +0.000 A 
ATOM     28  C   UNL     1       3.719   4.056  20.162  0.00  0.00    +0.000 A 
ATOM     29  C   UNL     1       4.088   2.874  19.521  0.00  0.00    +0.000 A 
ATOM     30  C   UNL     1       3.119   2.116  18.876  0.00  0.00    +0.000 A 
ATOM     31  F   UNL     1       3.479   1.007  18.219  0.00  0.00    +0.000 F 
ATOM     32  C   UNL     1       1.782   2.500  18.889  0.00  0.00    +0.000 A 
ATOM     33  C   UNL     1       1.411   3.678  19.532  0.00  0.00    +0.000 A 
ENDBRANCH  26  27
ENDBRANCH   5  26
TORSDOF 9
ENDMDL
MODEL 4
REMARK VINA RESULT:      -8.5      1.468      4.112
REMARK  Name = 
REMARK  9 active torsions:
REMARK  status: ('A' for Active; 'I' for Inactive)
REMARK    1  A    between atoms: C_2  and  O_3
REMARK    2  A    between atoms: C_2  and  C_4
REMARK    3  A    between atoms: C_4  and  O_5
REMARK    4  A    between atoms: C_6  and  C_7
REMARK    5  A    between atoms: C_7  and  C_9
REMARK    6  A    between atoms: C_11  and  C_12
REMARK    7  A    between atoms: C_12  and  C_13
REMARK    8  A    between atoms: N_21  and  C_22
REMARK    9  A    between atoms: C_22  and  C_23
REMARK                            x       y       z     vdW  Elec       q    Type
REMARK                         _______ _______ _______ _____ _____    ______ ____
ROOT
ATOM      1  C   UNL     1       1.586   8.972  19.171  0.00  0.00    +0.000 A 
ATOM      2  C   UNL     1       2.401   8.845  18.104  0.00  0.00    +0.000 A 
ATOM      3  C   UNL     1       3.167   7.641  17.858  0.00  0.00    +0.000 A 
ATOM      4  C   UNL     1       2.997   6.590  18.676  0.00  0.00    +0.000 A 
ATOM      5  N   UNL     1       2.163   6.656  19.779  0.00  0.00    +0.000 N 
ATOM      6  C   UNL     1       1.508   7.832  20.146  0.00  0.00    +0.000 A 
ATOM      7  O   UNL     1       0.852   7.930  21.182  0.00  0.00    +0.000 OA
ENDROOT
BRANCH   1   8
ATOM      8  C   UNL     1       0.793  10.241  19.271  0.00  0.00    +0.000 C 
ATOM      9  O   UNL     1       1.258  11.233  19.826  0.00  0.00    +0.000 OA
BRANCH   8  11
ATOM     10  C   UNL     1      -1.005  11.377  17.952  0.00  0.00    +0.000 C 
ATOM     11  C   UNL     1      -0.522  10.288  18.562  0.00  0.00    +0.000 C 
BRANCH  10  13
ATOM     12  O   UNL     1      -3.355  11.449  18.018  0.00  0.00    +0.000 OA
ATOM     13  C   UNL     1      -2.354  11.408  17.312  0.00  0.00    +0.000 C 
BRANCH  13  14
ATOM     14  O   UNL     1      -2.408  11.443  15.971  0.00  0.00    +0.000 OA
ATOM     15  H   UNL     1      -2.451  12.323  15.560  0.00  0.00    +0.000 HD
ENDBRANCH  13  14
ENDBRANCH  10  13
BRANCH  10  16
ATOM     16  O   UNL     1      -0.328  12.588  17.968  0.00  0.00    +0.000 OA
ATOM     17  H   UNL     1      -0.526  13.017  17.107  0.00  0.00    +0.000 HD
ENDBRANCH  10  16
ENDBRANCH   8  11
ENDBRANCH   1   8
BRANCH   3  18
ATOM     18  C   UNL     1       4.014   7.558  16.611  0.00  0.00    +0.000 C 
BRANCH  18  19
ATOM     19  C   UNL     1       5.106   6.519  16.643  0.00  0.00    +0.000 A 
ATOM     20  C   UNL     1       4.866   5.200  16.233  0.00  0.00    +0.000 A 
ATOM     21  C   UNL     1       5.855   4.222  16.380  0.00  0.00    +0.000 A 
ATOM     22  C   UNL     1       7.097   4.554  16.923  0.00  0.00    +0.000 A 
ATOM     23  C   UNL     1       7.362   5.871  17.292  0.00  0.00    +0.000 A 
ATOM     24  C   UNL     1       6.373   6.841  17.142  0.00  0.00    +0.000 A 
ATOM     25  F   UNL     1       6.643   8.099  17.518  0.00  0.00    +0.000 F 
ENDBRANCH  18  19
ENDBRANCH   3  18
BRANCH   5  26
ATOM     26  C   UNL     1       2.006   5.472  20.630  0.00  0.00    +0.000 C 
BRANCH  26  27
ATOM     27  C   UNL     1       2.495   4.217  19.950  0.00  0.00    +0.000 A 
ATOM     28  C   UNL     1       1.578   3.311  19.391  0.00  0.00    +0.000 A 
ATOM     29  C   UNL     1       2.015   2.091  18.879  0.00  0.00    +0.000 A 
ATOM     30  C   UNL     1       3.368   1.777  18.921  0.00  0.00    +0.000 A 
ATOM     31  F   UNL     1       3.783   0.585  18.474  0.00  0.00    +0.000 F 
ATOM     32  C   UNL     1       4.296   2.676  19.434  0.00  0.00    +0.000 A 
ATOM     33  C   UNL     1       3.863   3.898  19.942  0.00  0.00    +0.000 A 
ENDBRANCH  26  27
ENDBRANCH   5  26
TORSDOF 9
ENDMDL
MODEL 5
REMARK VINA RESULT:      -8.4      0.276      1.059
REMARK  Name = 
REMARK  9 active torsions:
REMARK  status: ('A' for Active; 'I' for Inactive)
REMARK    1  A    between atoms: C_2  and  O_3
REMARK    2  A    between atoms: C_2  and  C_4
REMARK    3  A    between atoms: C_4  and  O_5
REMARK    4  A    between atoms: C_6  and  C_7
REMARK    5  A    between atoms: C_7  and  C_9
REMARK    6  A    between atoms: C_11  and  C_12
REMARK    7  A    between atoms: C_12  and  C_13
REMARK    8  A    between atoms: N_21  and  C_22
REMARK    9  A    between atoms: C_22  and  C_23
REMARK                            x       y       z     vdW  Elec       q    Type
REMARK                         _______ _______ _______ _____ _____    ______ ____
ROOT
ATOM      1  C   UNL     1       1.370   8.778  19.571  0.00  0.00    +0.000 A 
ATOM      2  C   UNL     1       1.348   7.661  20.326  0.00  0.00    +0.000 A 
ATOM      3  C   UNL     1       2.072   6.462  19.952  0.00  0.00    +0.000 A 
ATOM      4  C   UNL     1       2.852   6.496  18.860  0.00  0.00    +0.000 A 
ATOM      5  N   UNL     1       2.926   7.618  18.054  0.00  0.00    +0.000 N 
ATOM      6  C   UNL     1       2.147   8.752  18.285  0.00  0.00    +0.000 A 
ATOM      7  O   UNL     1       2.126   9.711  17.515  0.00  0.00    +0.000 OA
ENDROOT
BRANCH   1   8
ATOM      8  C   UNL     1       0.638   9.972  20.107  0.00  0.00    +0.000 C 
ATOM      9  O   UNL     1       1.139  10.681  20.976  0.00  0.00    +0.000 OA
BRANCH   8  11
ATOM     10  C   UNL     1      -0.789  11.299  18.537  0.00  0.00    +0.000 C 
ATOM     11  C   UNL     1      -0.657  10.334  19.455  0.00  0.00    +0.000 C 
BRANCH  10  13
ATOM     12  O   UNL     1      -2.404  11.308  16.827  0.00  0.00    +0.000 OA
ATOM     13  C   UNL     1      -2.111  11.680  17.957  0.00  0.00    +0.000 C 
BRANCH  13  14
ATOM     14  O   UNL     1      -2.954  12.383  18.732  0.00  0.00    +0.000 OA
ATOM     15  H   UNL     1      -3.216  11.972  19.573  0.00  0.00    +0.000 HD
ENDBRANCH  13  14
ENDBRANCH  10  13
BRANCH  10  16
ATOM     16  O   UNL     1       0.282  12.087  18.141  0.00  0.00    +0.000 OA
ATOM     17  H   UNL     1       0.239  12.895  18.696  0.00  0.00    +0.000 HD
ENDBRANCH  10  16
ENDBRANCH   8  11
ENDBRANCH   1   8
BRANCH   3  18
ATOM     18  C   UNL     1       2.040   5.272  20.879  0.00  0.00    +0.000 C 
BRANCH  18  19
ATOM     19  C   UNL     1       2.460   3.963  20.261  0.00  0.00    +0.000 A 
ATOM     20  C   UNL     1       3.815   3.639  20.098  0.00  0.00    +0.000 A 
ATOM     21  C   UNL     1       4.187   2.476  19.418  0.00  0.00    +0.000 A 
ATOM     22  C   UNL     1       3.213   1.618  18.906  0.00  0.00    +0.000 A 
ATOM     23  C   UNL     1       1.864   1.907  19.101  0.00  0.00    +0.000 A 
ATOM     24  C   UNL     1       1.500   3.067  19.781  0.00  0.00    +0.000 A 
ATOM     25  F   UNL     1       0.196   3.335  19.944  0.00  0.00    +0.000 F 
ENDBRANCH  18  19
ENDBRANCH   3  18
BRANCH   5  26
ATOM     26  C   UNL     1       3.807   7.601  16.881  0.00  0.00    +0.000 C 
BRANCH  26  27
ATOM     27  C   UNL     1       4.957   6.639  17.050  0.00  0.00    +0.000 A 
ATOM     28  C   UNL     1       6.200   7.097  17.520  0.00  0.00    +0.000 A 
ATOM     29  C   UNL     1       7.299   6.242  17.554  0.00  0.00    +0.000 A 
ATOM     30  C   UNL     1       7.157   4.929  17.124  0.00  0.00    +0.000 A 
ATOM     31  F   UNL     1       8.224   4.120  17.110  0.00  0.00    +0.000 F 
ATOM     32  C   UNL     1       5.927   4.445  16.692  0.00  0.00    +0.000 A 
ATOM     33  C   UNL     1       4.825   5.296  16.661  0.00  0.00    +0.000 A 
ENDBRANCH  26  27
ENDBRANCH   5  26
TORSDOF 9
ENDMDL
MODEL 6
REMARK VINA RESULT:      -8.3      4.231      7.198
REMARK  Name = 
REMARK  9 active torsions:
REMARK  status: ('A' for Active; 'I' for Inactive)
REMARK    1  A    between atoms: C_2  and  O_3
REMARK    2  A    between atoms: C_2  and  C_4
REMARK    3  A    between atoms: C_4  and  O_5
REMARK    4  A    between atoms: C_6  and  C_7
REMARK    5  A    between atoms: C_7  and  C_9
REMARK    6  A    between atoms: C_11  and  C_12
REMARK    7  A    between atoms: C_12  and  C_13
REMARK    8  A    between atoms: N_21  and  C_22
REMARK    9  A    between atoms: C_22  and  C_23
REMARK                            x       y       z     vdW  Elec       q    Type
REMARK                         _______ _______ _______ _____ _____    ______ ____
ROOT
ATOM      1  C   UNL     1       5.544   6.227  17.058  0.00  0.00    +0.000 A 
ATOM      2  C   UNL     1       4.749   7.304  17.216  0.00  0.00    +0.000 A 
ATOM      3  C   UNL     1       3.322   7.184  17.437  0.00  0.00    +0.000 A 
ATOM      4  C   UNL     1       2.792   5.958  17.568  0.00  0.00    +0.000 A 
ATOM      5  N   UNL     1       3.561   4.815  17.430  0.00  0.00    +0.000 N 
ATOM      6  C   UNL     1       4.911   4.866  17.080  0.00  0.00    +0.000 A 
ATOM      7  O   UNL     1       5.574   3.856  16.849  0.00  0.00    +0.000 OA
ENDROOT
BRANCH   1   8
ATOM      8  C   UNL     1       7.014   6.487  16.910  0.00  0.00    +0.000 C 
ATOM      9  O   UNL     1       7.765   5.623  16.466  0.00  0.00    +0.000 OA
BRANCH   8  11
ATOM     10  C   UNL     1       8.284   8.182  18.241  0.00  0.00    +0.000 C 
ATOM     11  C   UNL     1       7.501   7.869  17.202  0.00  0.00    +0.000 C 
BRANCH  10  13
ATOM     12  O   UNL     1       8.314  10.495  17.816  0.00  0.00    +0.000 OA
ATOM     13  C   UNL     1       8.696   9.586  18.543  0.00  0.00    +0.000 C 
BRANCH  13  14
ATOM     14  O   UNL     1       9.435   9.796  19.644  0.00  0.00    +0.000 OA
ATOM     15  H   UNL     1      10.080  10.523  19.603  0.00  0.00    +0.000 HD
ENDBRANCH  13  14
ENDBRANCH  10  13
BRANCH  10  16
ATOM     16  O   UNL     1       8.678   7.236  19.176  0.00  0.00    +0.000 OA
ATOM     17  H   UNL     1       9.447   7.625  19.644  0.00  0.00    +0.000 HD
ENDBRANCH  10  16
ENDBRANCH   8  11
ENDBRANCH   1   8
BRANCH   3  18
ATOM     18  C   UNL     1       2.510   8.437  17.659  0.00  0.00    +0.000 C 
BRANCH  18  19
ATOM     19  C   UNL     1       1.835   8.536  19.003  0.00  0.00    +0.000 A 
ATOM     20  C   UNL     1       2.006   7.542  19.977  0.00  0.00    +0.000 A 
ATOM     21  C   UNL     1       1.281   7.589  21.171  0.00  0.00    +0.000 A 
ATOM     22  C   UNL     1       0.391   8.637  21.413  0.00  0.00    +0.000 A 
ATOM     23  C   UNL     1       0.247   9.654  20.472  0.00  0.00    +0.000 A 
ATOM     24  C   UNL     1       0.973   9.601  19.284  0.00  0.00    +0.000 A 
ATOM     25  F   UNL     1       0.808  10.582  18.384  0.00  0.00    +0.000 F 
ENDBRANCH  18  19
ENDBRANCH   3  18
BRANCH   5  26
ATOM     26  C   UNL     1       2.930   3.502  17.597  0.00  0.00    +0.000 C 
BRANCH  26  27
ATOM     27  C   UNL     1       2.417   3.294  19.002  0.00  0.00    +0.000 A 
ATOM     28  C   UNL     1       3.305   2.950  20.035  0.00  0.00    +0.000 A 
ATOM     29  C   UNL     1       2.821   2.630  21.302  0.00  0.00    +0.000 A 
ATOM     30  C   UNL     1       1.452   2.658  21.539  0.00  0.00    +0.000 A 
ATOM     31  F   UNL     1       0.983   2.305  22.741  0.00  0.00    +0.000 F 
ATOM     32  C   UNL     1       0.561   3.035  20.541  0.00  0.00    +0.000 A 
ATOM     33  C   UNL     1       1.041   3.360  19.274  0.00  0.00    +0.000 A 
ENDBRANCH  26  27
ENDBRANCH   5  26
TORSDOF 9
ENDMDL
MODEL 7
REMARK VINA RESULT:      -8.3      1.421      2.122
REMARK  Name = 
REMARK  9 active torsions:
REMARK  status: ('A' for Active; 'I' for Inactive)
REMARK    1  A    between atoms: C_2  and  O_3
REMARK    2  A    between atoms: C_2  and  C_4
REMARK    3  A    between atoms: C_4  and  O_5
REMARK    4  A    between atoms: C_6  and  C_7
REMARK    5  A    between atoms: C_7  and  C_9
REMARK    6  A    between atoms: C_11  and  C_12
REMARK    7  A    between atoms: C_12  and  C_13
REMARK    8  A    between atoms: N_21  and  C_22
REMARK    9  A    between atoms: C_22  and  C_23
REMARK                            x       y       z     vdW  Elec       q    Type
REMARK                         _______ _______ _______ _____ _____    ______ ____
ROOT
ATOM      1  C   UNL     1       1.686   8.732  19.277  0.00  0.00    +0.000 A 
ATOM      2  C   UNL     1       1.669   7.645  20.075  0.00  0.00    +0.000 A 
ATOM      3  C   UNL     1       2.358   6.420  19.725  0.00  0.00    +0.000 A 
ATOM      4  C   UNL     1       3.103   6.397  18.608  0.00  0.00    +0.000 A 
ATOM      5  N   UNL     1       3.170   7.486  17.757  0.00  0.00    +0.000 N 
ATOM      6  C   UNL     1       2.419   8.643  17.970  0.00  0.00    +0.000 A 
ATOM      7  O   UNL     1       2.390   9.572  17.164  0.00  0.00    +0.000 OA
ENDROOT
BRANCH   1   8
ATOM      8  C   UNL     1       0.994   9.960  19.790  0.00  0.00    +0.000 C 
ATOM      9  O   UNL     1       1.024  11.011  19.158  0.00  0.00    +0.000 OA
BRANCH   8  11
ATOM     10  C   UNL     1      -0.153  10.835  21.835  0.00  0.00    +0.000 C 
ATOM     11  C   UNL     1       0.167   9.816  21.027  0.00  0.00    +0.000 C 
BRANCH  10  13
ATOM     12  O   UNL     1      -1.906  11.344  23.318  0.00  0.00    +0.000 OA
ATOM     13  C   UNL     1      -0.923  10.645  23.100  0.00  0.00    +0.000 C 
BRANCH  13  14
ATOM     14  O   UNL     1      -0.528   9.666  23.931  0.00  0.00    +0.000 OA
ATOM     15  H   UNL     1       0.131   9.907  24.604  0.00  0.00    +0.000 HD
ENDBRANCH  13  14
ENDBRANCH  10  13
BRANCH  10  16
ATOM     16  O   UNL     1       0.305  12.124  21.608  0.00  0.00    +0.000 OA
ATOM     17  H   UNL     1       1.005  12.044  20.925  0.00  0.00    +0.000 HD
ENDBRANCH  10  16
ENDBRANCH   8  11
ENDBRANCH   1   8
BRANCH   3  18
ATOM     18  C   UNL     1       2.335   5.267  20.698  0.00  0.00    +0.000 C 
BRANCH  18  19
ATOM     19  C   UNL     1       2.646   3.917  20.104  0.00  0.00    +0.000 A 
ATOM     20  C   UNL     1       3.969   3.507  19.885  0.00  0.00    +0.000 A 
ATOM     21  C   UNL     1       4.237   2.304  19.226  0.00  0.00    +0.000 A 
ATOM     22  C   UNL     1       3.190   1.490  18.792  0.00  0.00    +0.000 A 
ATOM     23  C   UNL     1       1.872   1.866  19.043  0.00  0.00    +0.000 A 
ATOM     24  C   UNL     1       1.611   3.066  19.701  0.00  0.00    +0.000 A 
ATOM     25  F   UNL     1       0.335   3.417  19.920  0.00  0.00    +0.000 F 
ENDBRANCH  18  19
ENDBRANCH   3  18
BRANCH   5  26
ATOM     26  C   UNL     1       4.012   7.408  16.559  0.00  0.00    +0.000 C 
BRANCH  26  27
ATOM     27  C   UNL     1       5.229   6.543  16.776  0.00  0.00    +0.000 A 
ATOM     28  C   UNL     1       5.220   5.195  16.380  0.00  0.00    +0.000 A 
ATOM     29  C   UNL     1       6.290   4.359  16.695  0.00  0.00    +0.000 A 
ATOM     30  C   UNL     1       7.371   4.871  17.402  0.00  0.00    +0.000 A 
ATOM     31  F   UNL     1       8.377   4.059  17.748  0.00  0.00    +0.000 F 
ATOM     32  C   UNL     1       7.417   6.211  17.769  0.00  0.00    +0.000 A 
ATOM     33  C   UNL     1       6.351   7.050  17.451  0.00  0.00    +0.000 A 
ENDBRANCH  26  27
ENDBRANCH   5  26
TORSDOF 9
ENDMDL
MODEL 8
REMARK VINA RESULT:      -8.2      4.080      7.502
REMARK  Name = 
REMARK  9 active torsions:
REMARK  status: ('A' for Active; 'I' for Inactive)
REMARK    1  A    between atoms: C_2  and  O_3
REMARK    2  A    between atoms: C_2  and  C_4
REMARK    3  A    between atoms: C_4  and  O_5
REMARK    4  A    between atoms: C_6  and  C_7
REMARK    5  A    between atoms: C_7  and  C_9
REMARK    6  A    between atoms: C_11  and  C_12
REMARK    7  A    between atoms: C_12  and  C_13
REMARK    8  A    between atoms: N_21  and  C_22
REMARK    9  A    between atoms: C_22  and  C_23
REMARK                            x       y       z     vdW  Elec       q    Type
REMARK                         _______ _______ _______ _____ _____    ______ ____
ROOT
ATOM      1  C   UNL     1       5.541   4.979  15.759  0.00  0.00    +0.000 A 
ATOM      2  C   UNL     1       4.854   3.932  16.258  0.00  0.00    +0.000 A 
ATOM      3  C   UNL     1       3.784   4.099  17.221  0.00  0.00    +0.000 A 
ATOM      4  C   UNL     1       3.417   5.344  17.564  0.00  0.00    +0.000 A 
ATOM      5  N   UNL     1       4.076   6.458  17.074  0.00  0.00    +0.000 N 
ATOM      6  C   UNL     1       5.200   6.355  16.254  0.00  0.00    +0.000 A 
ATOM      7  O   UNL     1       5.855   7.334  15.902  0.00  0.00    +0.000 OA
ENDROOT
BRANCH   1   8
ATOM      8  C   UNL     1       6.575   4.675  14.715  0.00  0.00    +0.000 C 
ATOM      9  O   UNL     1       7.641   5.283  14.687  0.00  0.00    +0.000 OA
BRANCH   8  11
ATOM     10  C   UNL     1       6.641   3.510  12.501  0.00  0.00    +0.000 C 
ATOM     11  C   UNL     1       6.307   3.526  13.797  0.00  0.00    +0.000 C 
BRANCH  10  13
ATOM     12  O   UNL     1       5.133   2.206  11.255  0.00  0.00    +0.000 OA
ATOM     13  C   UNL     1       6.297   2.373  11.596  0.00  0.00    +0.000 C 
BRANCH  13  14
ATOM     14  O   UNL     1       7.304   1.604  11.150  0.00  0.00    +0.000 OA
ATOM     15  H   UNL     1       7.513   1.667  10.203  0.00  0.00    +0.000 HD
ENDBRANCH  13  14
ENDBRANCH  10  13
BRANCH  10  16
ATOM     16  O   UNL     1       7.234   4.601  11.882  0.00  0.00    +0.000 OA
ATOM     17  H   UNL     1       8.027   4.815  12.419  0.00  0.00    +0.000 HD
ENDBRANCH  10  16
ENDBRANCH   8  11
ENDBRANCH   1   8
BRANCH   3  18
ATOM     18  C   UNL     1       3.027   2.881  17.689  0.00  0.00    +0.000 C 
BRANCH  18  19
ATOM     19  C   UNL     1       2.510   2.949  19.103  0.00  0.00    +0.000 A 
ATOM     20  C   UNL     1       3.363   2.754  20.199  0.00  0.00    +0.000 A 
ATOM     21  C   UNL     1       2.847   2.703  21.497  0.00  0.00    +0.000 A 
ATOM     22  C   UNL     1       1.478   2.862  21.717  0.00  0.00    +0.000 A 
ATOM     23  C   UNL     1       0.627   3.101  20.640  0.00  0.00    +0.000 A 
ATOM     24  C   UNL     1       1.148   3.151  19.349  0.00  0.00    +0.000 A 
ATOM     25  F   UNL     1       0.309   3.367  18.324  0.00  0.00    +0.000 F 
ENDBRANCH  18  19
ENDBRANCH   3  18
BRANCH   5  26
ATOM     26  C   UNL     1       3.620   7.793  17.473  0.00  0.00    +0.000 C 
BRANCH  26  27
ATOM     27  C   UNL     1       2.629   7.738  18.610  0.00  0.00    +0.000 A 
ATOM     28  C   UNL     1       1.714   8.787  18.804  0.00  0.00    +0.000 A 
ATOM     29  C   UNL     1       0.887   8.803  19.925  0.00  0.00    +0.000 A 
ATOM     30  C   UNL     1       0.970   7.769  20.850  0.00  0.00    +0.000 A 
ATOM     31  F   UNL     1       0.210   7.808  21.952  0.00  0.00    +0.000 F 
ATOM     32  C   UNL     1       1.840   6.702  20.657  0.00  0.00    +0.000 A 
ATOM     33  C   UNL     1       2.665   6.681  19.534  0.00  0.00    +0.000 A 
ENDBRANCH  26  27
ENDBRANCH   5  26
TORSDOF 9
ENDMDL
MODEL 9
REMARK VINA RESULT:      -8.2      0.852      1.325
REMARK  Name = 
REMARK  9 active torsions:
REMARK  status: ('A' for Active; 'I' for Inactive)
REMARK    1  A    between atoms: C_2  and  O_3
REMARK    2  A    between atoms: C_2  and  C_4
REMARK    3  A    between atoms: C_4  and  O_5
REMARK    4  A    between atoms: C_6  and  C_7
REMARK    5  A    between atoms: C_7  and  C_9
REMARK    6  A    between atoms: C_11  and  C_12
REMARK    7  A    between atoms: C_12  and  C_13
REMARK    8  A    between atoms: N_21  and  C_22
REMARK    9  A    between atoms: C_22  and  C_23
REMARK                            x       y       z     vdW  Elec       q    Type
REMARK                         _______ _______ _______ _____ _____    ______ ____
ROOT
ATOM      1  C   UNL     1       1.491   8.765  19.473  0.00  0.00    +0.000 A 
ATOM      2  C   UNL     1       1.511   7.627  20.197  0.00  0.00    +0.000 A 
ATOM      3  C   UNL     1       2.259   6.460  19.778  0.00  0.00    +0.000 A 
ATOM      4  C   UNL     1       3.020   6.544  18.676  0.00  0.00    +0.000 A 
ATOM      5  N   UNL     1       3.052   7.690  17.900  0.00  0.00    +0.000 N 
ATOM      6  C   UNL     1       2.247   8.796  18.176  0.00  0.00    +0.000 A 
ATOM      7  O   UNL     1       2.188   9.775  17.433  0.00  0.00    +0.000 OA
ENDROOT
BRANCH   1   8
ATOM      8  C   UNL     1       0.738   9.924  20.054  0.00  0.00    +0.000 C 
ATOM      9  O   UNL     1       1.220  10.602  20.957  0.00  0.00    +0.000 OA
BRANCH   8  11
ATOM     10  C   UNL     1      -0.701  11.308  18.545  0.00  0.00    +0.000 C 
ATOM     11  C   UNL     1      -0.558  10.295  19.408  0.00  0.00    +0.000 C 
BRANCH  10  13
ATOM     12  O   UNL     1      -2.325  11.319  16.843  0.00  0.00    +0.000 OA
ATOM     13  C   UNL     1      -2.025  11.693  17.971  0.00  0.00    +0.000 C 
BRANCH  13  14
ATOM     14  O   UNL     1      -2.860  12.401  18.749  0.00  0.00    +0.000 OA
ATOM     15  H   UNL     1      -3.240  11.937  19.514  0.00  0.00    +0.000 HD
ENDBRANCH  13  14
ENDBRANCH  10  13
BRANCH  10  16
ATOM     16  O   UNL     1       0.356  12.140  18.208  0.00  0.00    +0.000 OA
ATOM     17  H   UNL     1       0.136  12.509  17.326  0.00  0.00    +0.000 HD
ENDBRANCH  10  16
ENDBRANCH   8  11
ENDBRANCH   1   8
BRANCH   3  18
ATOM     18  C   UNL     1       2.274   5.244  20.672  0.00  0.00    +0.000 C 
BRANCH  18  19
ATOM     19  C   UNL     1       2.479   3.928  19.966  0.00  0.00    +0.000 A 
ATOM     20  C   UNL     1       1.397   3.086  19.671  0.00  0.00    +0.000 A 
ATOM     21  C   UNL     1       1.617   1.818  19.123  0.00  0.00    +0.000 A 
ATOM     22  C   UNL     1       2.915   1.385  18.849  0.00  0.00    +0.000 A 
ATOM     23  C   UNL     1       3.994   2.232  19.096  0.00  0.00    +0.000 A 
ATOM     24  C   UNL     1       3.768   3.493  19.642  0.00  0.00    +0.000 A 
ATOM     25  F   UNL     1       4.822   4.287  19.887  0.00  0.00    +0.000 F 
ENDBRANCH  18  19
ENDBRANCH   3  18
BRANCH   5  26
ATOM     26  C   UNL     1       3.913   7.729  16.714  0.00  0.00    +0.000 C 
BRANCH  26  27
ATOM     27  C   UNL     1       5.085   6.785  16.833  0.00  0.00    +0.000 A 
ATOM     28  C   UNL     1       4.945   5.434  16.474  0.00  0.00    +0.000 A 
ATOM     29  C   UNL     1       5.982   4.532  16.705  0.00  0.00    +0.000 A 
ATOM     30  C   UNL     1       7.160   4.980  17.288  0.00  0.00    +0.000 A 
ATOM     31  F   UNL     1       8.139   4.106  17.554  0.00  0.00    +0.000 F 
ATOM     32  C   UNL     1       7.334   6.321  17.614  0.00  0.00    +0.000 A 
ATOM     33  C   UNL     1       6.300   7.225  17.381  0.00  0.00    +0.000 A 
ENDBRANCH  26  27
ENDBRANCH   5  26
TORSDOF 9
ENDMDL
