MODEL 1
REMARK VINA RESULT:      -7.5      0.000      0.000
REMARK  Name = 
REMARK  15 active torsions:
REMARK  status: ('A' for Active; 'I' for Inactive)
REMARK    1  A    between atoms: C_1  and  C_2
REMARK    2  A    between atoms: C_2  and  O_3
REMARK    3  A    between atoms: O_3  and  C_4
REMARK    4  A    between atoms: C_4  and  C_6
REMARK    5  A    between atoms: C_7  and  N_8
REMARK    6  A    between atoms: N_8  and  C_9
REMARK    7  A    between atoms: C_12  and  O_13
REMARK    8  A    between atoms: O_13  and  C_14
REMARK    9  A    between atoms: N_19  and  C_20
REMARK   10  A    between atoms: C_23  and  O_24
REMARK   11  A    between atoms: O_24  and  C_25
REMARK   12  A    between atoms: C_28  and  C_29
REMARK   13  A    between atoms: C_29  and  O_31
REMARK   14  A    between atoms: O_31  and  C_32
REMARK   15  A    between atoms: C_32  and  C_33
REMARK                            x       y       z     vdW  Elec       q    Type
REMARK                         _______ _______ _______ _____ _____    ______ ____
ROOT
ATOM      1  C   UNL     1       4.392   5.401  18.757  0.00  0.00    +0.000 C 
ATOM      2  C   UNL     1       4.839   6.165  17.765  0.00  0.00    +0.000 C 
ATOM      3  C   UNL     1       3.835   7.269  17.633  0.00  0.00    +0.000 C 
ATOM      4  O   UNL     1       3.927   8.129  16.768  0.00  0.00    +0.000 OA
ATOM      5  N   UNL     1       2.922   7.133  18.680  0.00  0.00    +0.000 N 
ATOM      6  C   UNL     1       3.116   5.861  19.371  0.00  0.00    +0.000 C 
ENDROOT
BRANCH   5   7
ATOM      7  C   UNL     1       1.917   8.082  18.999  0.00  0.00    +0.000 A 
ATOM      8  C   UNL     1       1.343   8.876  17.998  0.00  0.00    +0.000 A 
ATOM      9  C   UNL     1       0.398   9.859  18.300  0.00  0.00    +0.000 A 
ATOM     10  C   UNL     1      -0.001  10.074  19.614  0.00  0.00    +0.000 A 
ATOM     11  C   UNL     1       0.564   9.303  20.629  0.00  0.00    +0.000 A 
ATOM     12  C   UNL     1       1.502   8.298  20.320  0.00  0.00    +0.000 A 
BRANCH  10  13
ATOM     13  O   UNL     1      -0.894  11.093  19.783  0.00  0.00    +0.000 OA
ATOM     14  C   UNL     1      -0.375  12.406  19.631  0.00  0.00    +0.000 C 
ENDBRANCH  10  13
ENDBRANCH   5   7
BRANCH   1  15
ATOM     15  C   UNL     1       5.089   4.219  19.239  0.00  0.00    +0.000 C 
ATOM     16  O   UNL     1       6.287   4.041  19.046  0.00  0.00    +0.000 OA
BRANCH  15  17
ATOM     17  O   UNL     1       4.230   3.359  19.824  0.00  0.00    +0.000 OA
BRANCH  17  19
ATOM     18  C   UNL     1       3.580   1.613  18.356  0.00  0.00    +0.000 C 
ATOM     19  C   UNL     1       4.411   1.969  19.567  0.00  0.00    +0.000 C 
ENDBRANCH  17  19
ENDBRANCH  15  17
ENDBRANCH   1  15
BRANCH   2  20
ATOM     20  N   UNL     1       5.981   6.111  17.002  0.00  0.00    +0.000 N 
ATOM     21  H   UNL     1       6.437   7.016  16.886  0.00  0.00    +0.000 HD
BRANCH  20  22
ATOM     22  C   UNL     1       6.046   5.337  15.819  0.00  0.00    +0.000 A 
ATOM     23  C   UNL     1       5.012   4.471  15.444  0.00  0.00    +0.000 A 
ATOM     24  C   UNL     1       5.079   3.757  14.248  0.00  0.00    +0.000 A 
ATOM     25  C   UNL     1       6.172   3.901  13.396  0.00  0.00    +0.000 A 
ATOM     26  C   UNL     1       7.234   4.719  13.780  0.00  0.00    +0.000 A 
ATOM     27  C   UNL     1       7.162   5.443  14.979  0.00  0.00    +0.000 A 
BRANCH  25  28
ATOM     28  O   UNL     1       6.105   3.176  12.239  0.00  0.00    +0.000 OA
ATOM     29  C   UNL     1       4.815   3.083  11.645  0.00  0.00    +0.000 C 
ENDBRANCH  25  28
ENDBRANCH  20  22
ENDBRANCH   2  20
BRANCH   6  30
ATOM     30  C   UNL     1       1.968   4.910  18.996  0.00  0.00    +0.000 C 
ATOM     31  O   UNL     1       1.677   4.584  17.852  0.00  0.00    +0.000 OA
BRANCH  30  32
ATOM     32  O   UNL     1       1.204   4.641  20.100  0.00  0.00    +0.000 OA
BRANCH  32  33
ATOM     33  C   UNL     1       0.794   3.269  20.234  0.00  0.00    +0.000 C 
ATOM     34  C   UNL     1       1.361   2.748  21.543  0.00  0.00    +0.000 C 
ENDBRANCH  32  33
ENDBRANCH  30  32
ENDBRANCH   6  30
TORSDOF 11
ENDMDL
MODEL 2
REMARK VINA RESULT:      -7.4      0.727      1.154
REMARK  Name = 
REMARK  15 active torsions:
REMARK  status: ('A' for Active; 'I' for Inactive)
REMARK    1  A    between atoms: C_1  and  C_2
REMARK    2  A    between atoms: C_2  and  O_3
REMARK    3  A    between atoms: O_3  and  C_4
REMARK    4  A    between atoms: C_4  and  C_6
REMARK    5  A    between atoms: C_7  and  N_8
REMARK    6  A    between atoms: N_8  and  C_9
REMARK    7  A    between atoms: C_12  and  O_13
REMARK    8  A    between atoms: O_13  and  C_14
REMARK    9  A    between atoms: N_19  and  C_20
REMARK   10  A    between atoms: C_23  and  O_24
REMARK   11  A    between atoms: O_24  and  C_25
REMARK   12  A    between atoms: C_28  and  C_29
REMARK   13  A    between atoms: C_29  and  O_31
REMARK   14  A    between atoms: O_31  and  C_32
REMARK   15  A    between atoms: C_32  and  C_33
REMARK                            x       y       z     vdW  Elec       q    Type
REMARK                         _______ _______ _______ _____ _____    ______ ____
ROOT
ATOM      1  C   UNL     1       4.220   4.746  18.832  0.00  0.00    +0.000 C 
ATOM      2  C   UNL     1       4.927   5.483  17.980  0.00  0.00    +0.000 C 
ATOM      3  C   UNL     1       4.155   6.757  17.826  0.00  0.00    +0.000 C 
ATOM      4  O   UNL     1       4.515   7.644  17.064  0.00  0.00    +0.000 OA
ATOM      5  N   UNL     1       3.094   6.717  18.731  0.00  0.00    +0.000 N 
ATOM      6  C   UNL     1       2.968   5.386  19.320  0.00  0.00    +0.000 C 
ENDROOT
BRANCH   5   7
ATOM      7  C   UNL     1       2.232   7.809  19.008  0.00  0.00    +0.000 A 
ATOM      8  C   UNL     1       1.746   8.023  20.304  0.00  0.00    +0.000 A 
ATOM      9  C   UNL     1       0.847   9.055  20.584  0.00  0.00    +0.000 A 
ATOM     10  C   UNL     1       0.410   9.903  19.574  0.00  0.00    +0.000 A 
ATOM     11  C   UNL     1       0.872   9.704  18.274  0.00  0.00    +0.000 A 
ATOM     12  C   UNL     1       1.794   8.675  17.996  0.00  0.00    +0.000 A 
BRANCH  10  13
ATOM     13  O   UNL     1      -0.502  10.840  19.966  0.00  0.00    +0.000 OA
ATOM     14  C   UNL     1      -0.513  12.049  19.220  0.00  0.00    +0.000 C 
ENDBRANCH  10  13
ENDBRANCH   5   7
BRANCH   1  15
ATOM     15  C   UNL     1       4.630   3.426  19.286  0.00  0.00    +0.000 C 
ATOM     16  O   UNL     1       5.129   3.238  20.391  0.00  0.00    +0.000 OA
BRANCH  15  17
ATOM     17  O   UNL     1       4.462   2.508  18.311  0.00  0.00    +0.000 OA
BRANCH  17  19
ATOM     18  C   UNL     1       2.306   1.578  17.975  0.00  0.00    +0.000 C 
ATOM     19  C   UNL     1       3.661   1.368  18.609  0.00  0.00    +0.000 C 
ENDBRANCH  17  19
ENDBRANCH  15  17
ENDBRANCH   1  15
BRANCH   2  20
ATOM     20  N   UNL     1       6.140   5.274  17.367  0.00  0.00    +0.000 N 
ATOM     21  H   UNL     1       6.828   5.998  17.568  0.00  0.00    +0.000 HD
BRANCH  20  22
ATOM     22  C   UNL     1       6.225   4.831  16.025  0.00  0.00    +0.000 A 
ATOM     23  C   UNL     1       5.188   4.114  15.416  0.00  0.00    +0.000 A 
ATOM     24  C   UNL     1       5.277   3.731  14.077  0.00  0.00    +0.000 A 
ATOM     25  C   UNL     1       6.394   4.067  13.316  0.00  0.00    +0.000 A 
ATOM     26  C   UNL     1       7.458   4.735  13.922  0.00  0.00    +0.000 A 
ATOM     27  C   UNL     1       7.365   5.126  15.266  0.00  0.00    +0.000 A 
BRANCH  25  28
ATOM     28  O   UNL     1       6.348   3.667  12.010  0.00  0.00    +0.000 OA
ATOM     29  C   UNL     1       5.392   2.655  11.711  0.00  0.00    +0.000 C 
ENDBRANCH  25  28
ENDBRANCH  20  22
ENDBRANCH   2  20
BRANCH   6  30
ATOM     30  C   UNL     1       1.739   4.689  18.714  0.00  0.00    +0.000 C 
ATOM     31  O   UNL     1       1.425   4.729  17.531  0.00  0.00    +0.000 OA
BRANCH  30  32
ATOM     32  O   UNL     1       0.947   4.188  19.713  0.00  0.00    +0.000 OA
BRANCH  32  33
ATOM     33  C   UNL     1       1.561   4.150  21.012  0.00  0.00    +0.000 C 
ATOM     34  C   UNL     1       1.526   2.710  21.494  0.00  0.00    +0.000 C 
ENDBRANCH  32  33
ENDBRANCH  30  32
ENDBRANCH   6  30
TORSDOF 11
ENDMDL
MODEL 3
REMARK VINA RESULT:      -7.3      0.425      1.256
REMARK  Name = 
REMARK  15 active torsions:
REMARK  status: ('A' for Active; 'I' for Inactive)
REMARK    1  A    between atoms: C_1  and  C_2
REMARK    2  A    between atoms: C_2  and  O_3
REMARK    3  A    between atoms: O_3  and  C_4
REMARK    4  A    between atoms: C_4  and  C_6
REMARK    5  A    between atoms: C_7  and  N_8
REMARK    6  A    between atoms: N_8  and  C_9
REMARK    7  A    between atoms: C_12  and  O_13
REMARK    8  A    between atoms: O_13  and  C_14
REMARK    9  A    between atoms: N_19  and  C_20
REMARK   10  A    between atoms: C_23  and  O_24
REMARK   11  A    between atoms: O_24  and  C_25
REMARK   12  A    between atoms: C_28  and  C_29
REMARK   13  A    between atoms: C_29  and  O_31
REMARK   14  A    between atoms: O_31  and  C_32
REMARK   15  A    between atoms: C_32  and  C_33
REMARK                            x       y       z     vdW  Elec       q    Type
REMARK                         _______ _______ _______ _____ _____    ______ ____
ROOT
ATOM      1  C   UNL     1       4.495   5.323  18.649  0.00  0.00    +0.000 C 
ATOM      2  C   UNL     1       4.993   6.078  17.674  0.00  0.00    +0.000 C 
ATOM      3  C   UNL     1       4.025   7.211  17.519  0.00  0.00    +0.000 C 
ATOM      4  O   UNL     1       4.168   8.072  16.661  0.00  0.00    +0.000 OA
ATOM      5  N   UNL     1       3.079   7.098  18.538  0.00  0.00    +0.000 N 
ATOM      6  C   UNL     1       3.216   5.818  19.228  0.00  0.00    +0.000 C 
ENDROOT
BRANCH   5   7
ATOM      7  C   UNL     1       2.093   8.075  18.832  0.00  0.00    +0.000 A 
ATOM      8  C   UNL     1       1.662   8.278  20.150  0.00  0.00    +0.000 A 
ATOM      9  C   UNL     1       0.649   9.191  20.452  0.00  0.00    +0.000 A 
ATOM     10  C   UNL     1       0.039   9.927  19.443  0.00  0.00    +0.000 A 
ATOM     11  C   UNL     1       0.443   9.734  18.123  0.00  0.00    +0.000 A 
ATOM     12  C   UNL     1       1.479   8.828  17.822  0.00  0.00    +0.000 A 
BRANCH  10  13
ATOM     13  O   UNL     1      -0.968  10.749  19.862  0.00  0.00    +0.000 OA
ATOM     14  C   UNL     1      -1.776  11.313  18.839  0.00  0.00    +0.000 C 
ENDBRANCH  10  13
ENDBRANCH   5   7
BRANCH   1  15
ATOM     15  C   UNL     1       5.143   4.120  19.146  0.00  0.00    +0.000 C 
ATOM     16  O   UNL     1       6.323   3.872  18.924  0.00  0.00    +0.000 OA
BRANCH  15  17
ATOM     17  O   UNL     1       4.257   3.323  19.779  0.00  0.00    +0.000 OA
BRANCH  17  19
ATOM     18  C   UNL     1       3.578   1.571  18.332  0.00  0.00    +0.000 C 
ATOM     19  C   UNL     1       4.368   1.918  19.572  0.00  0.00    +0.000 C 
ENDBRANCH  17  19
ENDBRANCH  15  17
ENDBRANCH   1  15
BRANCH   2  20
ATOM     20  N   UNL     1       6.155   5.994  16.945  0.00  0.00    +0.000 N 
ATOM     21  H   UNL     1       6.694   6.859  16.935  0.00  0.00    +0.000 HD
BRANCH  20  22
ATOM     22  C   UNL     1       6.198   5.337  15.692  0.00  0.00    +0.000 A 
ATOM     23  C   UNL     1       7.312   5.425  14.850  0.00  0.00    +0.000 A 
ATOM     24  C   UNL     1       7.349   4.727  13.642  0.00  0.00    +0.000 A 
ATOM     25  C   UNL     1       6.281   3.919  13.257  0.00  0.00    +0.000 A 
ATOM     26  C   UNL     1       5.143   3.863  14.060  0.00  0.00    +0.000 A 
ATOM     27  C   UNL     1       5.110   4.558  15.278  0.00  0.00    +0.000 A 
BRANCH  25  28
ATOM     28  O   UNL     1       6.451   3.261  12.071  0.00  0.00    +0.000 OA
ATOM     29  C   UNL     1       5.369   2.427  11.670  0.00  0.00    +0.000 C 
ENDBRANCH  25  28
ENDBRANCH  20  22
ENDBRANCH   2  20
BRANCH   6  30
ATOM     30  C   UNL     1       2.051   4.902  18.815  0.00  0.00    +0.000 C 
ATOM     31  O   UNL     1       1.790   4.583  17.661  0.00  0.00    +0.000 OA
BRANCH  30  32
ATOM     32  O   UNL     1       1.242   4.659  19.892  0.00  0.00    +0.000 OA
BRANCH  32  33
ATOM     33  C   UNL     1       0.846   3.287  20.056  0.00  0.00    +0.000 C 
ATOM     34  C   UNL     1       1.311   2.837  21.430  0.00  0.00    +0.000 C 
ENDBRANCH  32  33
ENDBRANCH  30  32
ENDBRANCH   6  30
TORSDOF 11
ENDMDL
MODEL 4
REMARK VINA RESULT:      -7.2      1.212      1.513
REMARK  Name = 
REMARK  15 active torsions:
REMARK  status: ('A' for Active; 'I' for Inactive)
REMARK    1  A    between atoms: C_1  and  C_2
REMARK    2  A    between atoms: C_2  and  O_3
REMARK    3  A    between atoms: O_3  and  C_4
REMARK    4  A    between atoms: C_4  and  C_6
REMARK    5  A    between atoms: C_7  and  N_8
REMARK    6  A    between atoms: N_8  and  C_9
REMARK    7  A    between atoms: C_12  and  O_13
REMARK    8  A    between atoms: O_13  and  C_14
REMARK    9  A    between atoms: N_19  and  C_20
REMARK   10  A    between atoms: C_23  and  O_24
REMARK   11  A    between atoms: O_24  and  C_25
REMARK   12  A    between atoms: C_28  and  C_29
REMARK   13  A    between atoms: C_29  and  O_31
REMARK   14  A    between atoms: O_31  and  C_32
REMARK   15  A    between atoms: C_32  and  C_33
REMARK                            x       y       z     vdW  Elec       q    Type
REMARK                         _______ _______ _______ _____ _____    ______ ____
ROOT
ATOM      1  C   UNL     1       4.069   3.926  18.793  0.00  0.00    +0.000 C 
ATOM      2  C   UNL     1       4.920   4.670  18.091  0.00  0.00    +0.000 C 
ATOM      3  C   UNL     1       4.293   6.028  18.023  0.00  0.00    +0.000 C 
ATOM      4  O   UNL     1       4.805   6.947  17.398  0.00  0.00    +0.000 OA
ATOM      5  N   UNL     1       3.154   6.006  18.829  0.00  0.00    +0.000 N 
ATOM      6  C   UNL     1       2.846   4.642  19.249  0.00  0.00    +0.000 C 
ENDROOT
BRANCH   5   7
ATOM      7  C   UNL     1       2.380   7.149  19.159  0.00  0.00    +0.000 A 
ATOM      8  C   UNL     1       2.108   8.128  18.194  0.00  0.00    +0.000 A 
ATOM      9  C   UNL     1       1.402   9.290  18.514  0.00  0.00    +0.000 A 
ATOM     10  C   UNL     1       0.945   9.503  19.809  0.00  0.00    +0.000 A 
ATOM     11  C   UNL     1       1.212   8.547  20.789  0.00  0.00    +0.000 A 
ATOM     12  C   UNL     1       1.907   7.367  20.460  0.00  0.00    +0.000 A 
BRANCH  10  13
ATOM     13  O   UNL     1       0.310  10.696  20.005  0.00  0.00    +0.000 OA
ATOM     14  C   UNL     1      -0.994  10.804  19.452  0.00  0.00    +0.000 C 
ENDBRANCH  10  13
ENDBRANCH   5   7
BRANCH   1  15
ATOM     15  C   UNL     1       4.305   2.530  19.125  0.00  0.00    +0.000 C 
ATOM     16  O   UNL     1       3.755   1.612  18.526  0.00  0.00    +0.000 OA
BRANCH  15  17
ATOM     17  O   UNL     1       5.115   2.421  20.199  0.00  0.00    +0.000 OA
BRANCH  17  19
ATOM     18  C   UNL     1       5.746   0.568  21.539  0.00  0.00    +0.000 C 
ATOM     19  C   UNL     1       4.674   1.600  21.277  0.00  0.00    +0.000 C 
ENDBRANCH  17  19
ENDBRANCH  15  17
ENDBRANCH   1  15
BRANCH   2  20
ATOM     20  N   UNL     1       6.157   4.399  17.558  0.00  0.00    +0.000 N 
ATOM     21  H   UNL     1       6.913   4.929  17.992  0.00  0.00    +0.000 HD
BRANCH  20  22
ATOM     22  C   UNL     1       6.349   4.263  16.162  0.00  0.00    +0.000 A 
ATOM     23  C   UNL     1       5.585   3.376  15.395  0.00  0.00    +0.000 A 
ATOM     24  C   UNL     1       5.760   3.296  14.012  0.00  0.00    +0.000 A 
ATOM     25  C   UNL     1       6.691   4.108  13.368  0.00  0.00    +0.000 A 
ATOM     26  C   UNL     1       7.496   4.958  14.125  0.00  0.00    +0.000 A 
ATOM     27  C   UNL     1       7.314   5.043  15.513  0.00  0.00    +0.000 A 
BRANCH  25  28
ATOM     28  O   UNL     1       6.744   3.963  12.010  0.00  0.00    +0.000 OA
ATOM     29  C   UNL     1       6.111   2.799  11.491  0.00  0.00    +0.000 C 
ENDBRANCH  25  28
ENDBRANCH  20  22
ENDBRANCH   2  20
BRANCH   6  30
ATOM     30  C   UNL     1       1.615   4.147  18.471  0.00  0.00    +0.000 C 
ATOM     31  O   UNL     1       1.331   4.482  17.328  0.00  0.00    +0.000 OA
BRANCH  30  32
ATOM     32  O   UNL     1       0.788   3.442  19.303  0.00  0.00    +0.000 OA
BRANCH  32  33
ATOM     33  C   UNL     1       0.872   3.806  20.692  0.00  0.00    +0.000 C 
ATOM     34  C   UNL     1       1.297   2.569  21.465  0.00  0.00    +0.000 C 
ENDBRANCH  32  33
ENDBRANCH  30  32
ENDBRANCH   6  30
TORSDOF 11
ENDMDL
MODEL 5
REMARK VINA RESULT:      -7.0      1.333      2.056
REMARK  Name = 
REMARK  15 active torsions:
REMARK  status: ('A' for Active; 'I' for Inactive)
REMARK    1  A    between atoms: C_1  and  C_2
REMARK    2  A    between atoms: C_2  and  O_3
REMARK    3  A    between atoms: O_3  and  C_4
REMARK    4  A    between atoms: C_4  and  C_6
REMARK    5  A    between atoms: C_7  and  N_8
REMARK    6  A    between atoms: N_8  and  C_9
REMARK    7  A    between atoms: C_12  and  O_13
REMARK    8  A    between atoms: O_13  and  C_14
REMARK    9  A    between atoms: N_19  and  C_20
REMARK   10  A    between atoms: C_23  and  O_24
REMARK   11  A    between atoms: O_24  and  C_25
REMARK   12  A    between atoms: C_28  and  C_29
REMARK   13  A    between atoms: C_29  and  O_31
REMARK   14  A    between atoms: O_31  and  C_32
REMARK   15  A    between atoms: C_32  and  C_33
REMARK                            x       y       z     vdW  Elec       q    Type
REMARK                         _______ _______ _______ _____ _____    ______ ____
ROOT
ATOM      1  C   UNL     1       4.063   3.797  18.774  0.00  0.00    +0.000 C 
ATOM      2  C   UNL     1       4.922   4.534  18.075  0.00  0.00    +0.000 C 
ATOM      3  C   UNL     1       4.339   5.913  18.063  0.00  0.00    +0.000 C 
ATOM      4  O   UNL     1       4.867   6.835  17.456  0.00  0.00    +0.000 OA
ATOM      5  N   UNL     1       3.218   5.903  18.894  0.00  0.00    +0.000 N 
ATOM      6  C   UNL     1       2.874   4.537  19.280  0.00  0.00    +0.000 C 
ENDROOT
BRANCH   5   7
ATOM      7  C   UNL     1       2.489   7.059  19.276  0.00  0.00    +0.000 A 
ATOM      8  C   UNL     1       1.978   7.182  20.575  0.00  0.00    +0.000 A 
ATOM      9  C   UNL     1       1.205   8.283  20.952  0.00  0.00    +0.000 A 
ATOM     10  C   UNL     1       0.925   9.294  20.039  0.00  0.00    +0.000 A 
ATOM     11  C   UNL     1       1.414   9.188  18.739  0.00  0.00    +0.000 A 
ATOM     12  C   UNL     1       2.210   8.087  18.365  0.00  0.00    +0.000 A 
BRANCH  10  13
ATOM     13  O   UNL     1       0.122  10.290  20.516  0.00  0.00    +0.000 OA
ATOM     14  C   UNL     1      -0.146  10.260  21.911  0.00  0.00    +0.000 C 
ENDBRANCH  10  13
ENDBRANCH   5   7
BRANCH   1  15
ATOM     15  C   UNL     1       4.260   2.384  19.057  0.00  0.00    +0.000 C 
ATOM     16  O   UNL     1       3.775   1.501  18.356  0.00  0.00    +0.000 OA
BRANCH  15  17
ATOM     17  O   UNL     1       4.950   2.214  20.204  0.00  0.00    +0.000 OA
BRANCH  17  19
ATOM     18  C   UNL     1       5.779   0.949  22.030  0.00  0.00    +0.000 C 
ATOM     19  C   UNL     1       5.177   0.880  20.646  0.00  0.00    +0.000 C 
ENDBRANCH  17  19
ENDBRANCH  15  17
ENDBRANCH   1  15
BRANCH   2  20
ATOM     20  N   UNL     1       6.137   4.240  17.506  0.00  0.00    +0.000 N 
ATOM     21  H   UNL     1       6.928   4.663  17.991  0.00  0.00    +0.000 HD
BRANCH  20  22
ATOM     22  C   UNL     1       6.320   4.250  16.102  0.00  0.00    +0.000 A 
ATOM     23  C   UNL     1       7.323   5.013  15.493  0.00  0.00    +0.000 A 
ATOM     24  C   UNL     1       7.514   4.967  14.111  0.00  0.00    +0.000 A 
ATOM     25  C   UNL     1       6.716   4.150  13.312  0.00  0.00    +0.000 A 
ATOM     26  C   UNL     1       5.679   3.425  13.898  0.00  0.00    +0.000 A 
ATOM     27  C   UNL     1       5.494   3.466  15.288  0.00  0.00    +0.000 A 
BRANCH  25  28
ATOM     28  O   UNL     1       7.023   4.165  11.981  0.00  0.00    +0.000 OA
ATOM     29  C   UNL     1       6.993   2.900  11.328  0.00  0.00    +0.000 C 
ENDBRANCH  25  28
ENDBRANCH  20  22
ENDBRANCH   2  20
BRANCH   6  30
ATOM     30  C   UNL     1       1.611   4.107  18.515  0.00  0.00    +0.000 C 
ATOM     31  O   UNL     1       1.306   4.497  17.394  0.00  0.00    +0.000 OA
BRANCH  30  32
ATOM     32  O   UNL     1       0.787   3.388  19.339  0.00  0.00    +0.000 OA
BRANCH  32  33
ATOM     33  C   UNL     1       0.873   3.734  20.732  0.00  0.00    +0.000 C 
ATOM     34  C   UNL     1       1.418   2.525  21.472  0.00  0.00    +0.000 C 
ENDBRANCH  32  33
ENDBRANCH  30  32
ENDBRANCH   6  30
TORSDOF 11
ENDMDL
MODEL 6
REMARK VINA RESULT:      -6.7      0.959      1.816
REMARK  Name = 
REMARK  15 active torsions:
REMARK  status: ('A' for Active; 'I' for Inactive)
REMARK    1  A    between atoms: C_1  and  C_2
REMARK    2  A    between atoms: C_2  and  O_3
REMARK    3  A    between atoms: O_3  and  C_4
REMARK    4  A    between atoms: C_4  and  C_6
REMARK    5  A    between atoms: C_7  and  N_8
REMARK    6  A    between atoms: N_8  and  C_9
REMARK    7  A    between atoms: C_12  and  O_13
REMARK    8  A    between atoms: O_13  and  C_14
REMARK    9  A    between atoms: N_19  and  C_20
REMARK   10  A    between atoms: C_23  and  O_24
REMARK   11  A    between atoms: O_24  and  C_25
REMARK   12  A    between atoms: C_28  and  C_29
REMARK   13  A    between atoms: C_29  and  O_31
REMARK   14  A    between atoms: O_31  and  C_32
REMARK   15  A    between atoms: C_32  and  C_33
REMARK                            x       y       z     vdW  Elec       q    Type
REMARK                         _______ _______ _______ _____ _____    ______ ____
ROOT
ATOM      1  C   UNL     1       4.686   5.448  18.435  0.00  0.00    +0.000 C 
ATOM      2  C   UNL     1       5.012   6.166  17.365  0.00  0.00    +0.000 C 
ATOM      3  C   UNL     1       3.968   7.236  17.275  0.00  0.00    +0.000 C 
ATOM      4  O   UNL     1       3.950   8.049  16.360  0.00  0.00    +0.000 OA
ATOM      5  N   UNL     1       3.165   7.137  18.412  0.00  0.00    +0.000 N 
ATOM      6  C   UNL     1       3.463   5.910  19.147  0.00  0.00    +0.000 C 
ENDROOT
BRANCH   5   7
ATOM      7  C   UNL     1       2.168   8.078  18.778  0.00  0.00    +0.000 A 
ATOM      8  C   UNL     1       1.765   8.206  20.113  0.00  0.00    +0.000 A 
ATOM      9  C   UNL     1       0.742   9.081  20.485  0.00  0.00    +0.000 A 
ATOM     10  C   UNL     1       0.095   9.856  19.529  0.00  0.00    +0.000 A 
ATOM     11  C   UNL     1       0.473   9.739  18.192  0.00  0.00    +0.000 A 
ATOM     12  C   UNL     1       1.518   8.870  17.822  0.00  0.00    +0.000 A 
BRANCH  10  13
ATOM     13  O   UNL     1      -0.917  10.635  20.011  0.00  0.00    +0.000 OA
ATOM     14  C   UNL     1      -1.564  11.471  19.063  0.00  0.00    +0.000 C 
ENDBRANCH  10  13
ENDBRANCH   5   7
BRANCH   1  15
ATOM     15  C   UNL     1       5.461   4.312  18.908  0.00  0.00    +0.000 C 
ATOM     16  O   UNL     1       4.938   3.334  19.432  0.00  0.00    +0.000 OA
BRANCH  15  17
ATOM     17  O   UNL     1       6.783   4.538  18.765  0.00  0.00    +0.000 OA
BRANCH  17  19
ATOM     18  C   UNL     1       8.197   6.415  19.084  0.00  0.00    +0.000 C 
ATOM     19  C   UNL     1       7.435   5.307  19.772  0.00  0.00    +0.000 C 
ENDBRANCH  17  19
ENDBRANCH  15  17
ENDBRANCH   1  15
BRANCH   2  20
ATOM     20  N   UNL     1       6.076   6.097  16.498  0.00  0.00    +0.000 N 
ATOM     21  H   UNL     1       6.489   7.005  16.286  0.00  0.00    +0.000 HD
BRANCH  20  22
ATOM     22  C   UNL     1       6.051   5.256  15.359  0.00  0.00    +0.000 A 
ATOM     23  C   UNL     1       4.907   4.535  14.999  0.00  0.00    +0.000 A 
ATOM     24  C   UNL     1       4.893   3.751  13.844  0.00  0.00    +0.000 A 
ATOM     25  C   UNL     1       6.014   3.682  13.020  0.00  0.00    +0.000 A 
ATOM     26  C   UNL     1       7.178   4.353  13.394  0.00  0.00    +0.000 A 
ATOM     27  C   UNL     1       7.189   5.147  14.550  0.00  0.00    +0.000 A 
BRANCH  25  28
ATOM     28  O   UNL     1       5.866   2.911  11.902  0.00  0.00    +0.000 OA
ATOM     29  C   UNL     1       4.554   2.875  11.350  0.00  0.00    +0.000 C 
ENDBRANCH  25  28
ENDBRANCH  20  22
ENDBRANCH   2  20
BRANCH   6  30
ATOM     30  C   UNL     1       2.311   4.912  18.937  0.00  0.00    +0.000 C 
ATOM     31  O   UNL     1       1.912   4.527  17.846  0.00  0.00    +0.000 OA
BRANCH  30  32
ATOM     32  O   UNL     1       1.677   4.674  20.127  0.00  0.00    +0.000 OA
BRANCH  32  33
ATOM     33  C   UNL     1       0.913   3.456  20.173  0.00  0.00    +0.000 C 
ATOM     34  C   UNL     1       1.891   2.308  20.352  0.00  0.00    +0.000 C 
ENDBRANCH  32  33
ENDBRANCH  30  32
ENDBRANCH   6  30
TORSDOF 11
ENDMDL
MODEL 7
REMARK VINA RESULT:      -6.7      0.559      1.008
REMARK  Name = 
REMARK  15 active torsions:
REMARK  status: ('A' for Active; 'I' for Inactive)
REMARK    1  A    between atoms: C_1  and  C_2
REMARK    2  A    between atoms: C_2  and  O_3
REMARK    3  A    between atoms: O_3  and  C_4
REMARK    4  A    between atoms: C_4  and  C_6
REMARK    5  A    between atoms: C_7  and  N_8
REMARK    6  A    between atoms: N_8  and  C_9
REMARK    7  A    between atoms: C_12  and  O_13
REMARK    8  A    between atoms: O_13  and  C_14
REMARK    9  A    between atoms: N_19  and  C_20
REMARK   10  A    between atoms: C_23  and  O_24
REMARK   11  A    between atoms: O_24  and  C_25
REMARK   12  A    between atoms: C_28  and  C_29
REMARK   13  A    between atoms: C_29  and  O_31
REMARK   14  A    between atoms: O_31  and  C_32
REMARK   15  A    between atoms: C_32  and  C_33
REMARK                            x       y       z     vdW  Elec       q    Type
REMARK                         _______ _______ _______ _____ _____    ______ ____
ROOT
ATOM      1  C   UNL     1       4.347   5.596  18.885  0.00  0.00    +0.000 C 
ATOM      2  C   UNL     1       4.742   6.343  17.858  0.00  0.00    +0.000 C 
ATOM      3  C   UNL     1       3.698   7.408  17.719  0.00  0.00    +0.000 C 
ATOM      4  O   UNL     1       3.739   8.243  16.825  0.00  0.00    +0.000 OA
ATOM      5  N   UNL     1       2.817   7.274  18.793  0.00  0.00    +0.000 N 
ATOM      6  C   UNL     1       3.072   6.032  19.518  0.00  0.00    +0.000 C 
ENDROOT
BRANCH   5   7
ATOM      7  C   UNL     1       1.788   8.200  19.109  0.00  0.00    +0.000 A 
ATOM      8  C   UNL     1       1.229   9.011  18.113  0.00  0.00    +0.000 A 
ATOM      9  C   UNL     1       0.260   9.971  18.415  0.00  0.00    +0.000 A 
ATOM     10  C   UNL     1      -0.177  10.145  19.723  0.00  0.00    +0.000 A 
ATOM     11  C   UNL     1       0.372   9.356  20.732  0.00  0.00    +0.000 A 
ATOM     12  C   UNL     1       1.335   8.374  20.423  0.00  0.00    +0.000 A 
BRANCH  10  13
ATOM     13  O   UNL     1      -1.090  11.145  19.894  0.00  0.00    +0.000 OA
ATOM     14  C   UNL     1      -0.583  12.470  19.817  0.00  0.00    +0.000 C 
ENDBRANCH  10  13
ENDBRANCH   5   7
BRANCH   1  15
ATOM     15  C   UNL     1       5.095   4.454  19.385  0.00  0.00    +0.000 C 
ATOM     16  O   UNL     1       6.293   4.517  19.642  0.00  0.00    +0.000 OA
BRANCH  15  17
ATOM     17  O   UNL     1       4.318   3.352  19.431  0.00  0.00    +0.000 OA
BRANCH  17  19
ATOM     18  C   UNL     1       3.178   1.534  18.422  0.00  0.00    +0.000 C 
ATOM     19  C   UNL     1       4.362   2.466  18.317  0.00  0.00    +0.000 C 
ENDBRANCH  17  19
ENDBRANCH  15  17
ENDBRANCH   1  15
BRANCH   2  20
ATOM     20  N   UNL     1       5.866   6.303  17.068  0.00  0.00    +0.000 N 
ATOM     21  H   UNL     1       6.304   7.213  16.935  0.00  0.00    +0.000 HD
BRANCH  20  22
ATOM     22  C   UNL     1       5.915   5.522  15.888  0.00  0.00    +0.000 A 
ATOM     23  C   UNL     1       7.023   5.545  15.033  0.00  0.00    +0.000 A 
ATOM     24  C   UNL     1       7.067   4.729  13.901  0.00  0.00    +0.000 A 
ATOM     25  C   UNL     1       6.013   3.866  13.608  0.00  0.00    +0.000 A 
ATOM     26  C   UNL     1       4.880   3.871  14.421  0.00  0.00    +0.000 A 
ATOM     27  C   UNL     1       4.840   4.685  15.562  0.00  0.00    +0.000 A 
BRANCH  25  28
ATOM     28  O   UNL     1       6.188   3.094  12.494  0.00  0.00    +0.000 OA
ATOM     29  C   UNL     1       7.221   3.516  11.610  0.00  0.00    +0.000 C 
ENDBRANCH  25  28
ENDBRANCH  20  22
ENDBRANCH   2  20
BRANCH   6  30
ATOM     30  C   UNL     1       1.947   5.032  19.202  0.00  0.00    +0.000 C 
ATOM     31  O   UNL     1       1.610   4.694  18.074  0.00  0.00    +0.000 OA
BRANCH  30  32
ATOM     32  O   UNL     1       1.255   4.730  20.344  0.00  0.00    +0.000 OA
BRANCH  32  33
ATOM     33  C   UNL     1       0.883   3.348  20.480  0.00  0.00    +0.000 C 
ATOM     34  C   UNL     1       1.701   2.763  21.619  0.00  0.00    +0.000 C 
ENDBRANCH  32  33
ENDBRANCH  30  32
ENDBRANCH   6  30
TORSDOF 11
ENDMDL
MODEL 8
REMARK VINA RESULT:      -6.7      1.097      1.946
REMARK  Name = 
REMARK  15 active torsions:
REMARK  status: ('A' for Active; 'I' for Inactive)
REMARK    1  A    between atoms: C_1  and  C_2
REMARK    2  A    between atoms: C_2  and  O_3
REMARK    3  A    between atoms: O_3  and  C_4
REMARK    4  A    between atoms: C_4  and  C_6
REMARK    5  A    between atoms: C_7  and  N_8
REMARK    6  A    between atoms: N_8  and  C_9
REMARK    7  A    between atoms: C_12  and  O_13
REMARK    8  A    between atoms: O_13  and  C_14
REMARK    9  A    between atoms: N_19  and  C_20
REMARK   10  A    between atoms: C_23  and  O_24
REMARK   11  A    between atoms: O_24  and  C_25
REMARK   12  A    between atoms: C_28  and  C_29
REMARK   13  A    between atoms: C_29  and  O_31
REMARK   14  A    between atoms: O_31  and  C_32
REMARK   15  A    between atoms: C_32  and  C_33
REMARK                            x       y       z     vdW  Elec       q    Type
REMARK                         _______ _______ _______ _____ _____    ______ ____
ROOT
ATOM      1  C   UNL     1       4.684   5.780  18.754  0.00  0.00    +0.000 C 
ATOM      2  C   UNL     1       4.897   6.447  17.623  0.00  0.00    +0.000 C 
ATOM      3  C   UNL     1       3.744   7.396  17.501  0.00  0.00    +0.000 C 
ATOM      4  O   UNL     1       3.611   8.133  16.533  0.00  0.00    +0.000 OA
ATOM      5  N   UNL     1       2.995   7.299  18.675  0.00  0.00    +0.000 N 
ATOM      6  C   UNL     1       3.444   6.167  19.481  0.00  0.00    +0.000 C 
ENDROOT
BRANCH   5   7
ATOM      7  C   UNL     1       1.918   8.159  19.014  0.00  0.00    +0.000 A 
ATOM      8  C   UNL     1       1.319   8.969  18.041  0.00  0.00    +0.000 A 
ATOM      9  C   UNL     1       0.300   9.867  18.368  0.00  0.00    +0.000 A 
ATOM     10  C   UNL     1      -0.149   9.977  19.678  0.00  0.00    +0.000 A 
ATOM     11  C   UNL     1       0.438   9.188  20.666  0.00  0.00    +0.000 A 
ATOM     12  C   UNL     1       1.452   8.268  20.331  0.00  0.00    +0.000 A 
BRANCH  10  13
ATOM     13  O   UNL     1      -1.115  10.922  19.876  0.00  0.00    +0.000 OA
ATOM     14  C   UNL     1      -1.882  11.276  18.734  0.00  0.00    +0.000 C 
ENDBRANCH  10  13
ENDBRANCH   5   7
BRANCH   1  15
ATOM     15  C   UNL     1       5.589   4.768  19.273  0.00  0.00    +0.000 C 
ATOM     16  O   UNL     1       5.336   3.569  19.211  0.00  0.00    +0.000 OA
BRANCH  15  17
ATOM     17  O   UNL     1       6.651   5.337  19.879  0.00  0.00    +0.000 OA
BRANCH  17  19
ATOM     18  C   UNL     1       8.280   6.773  18.926  0.00  0.00    +0.000 C 
ATOM     19  C   UNL     1       7.891   5.335  19.178  0.00  0.00    +0.000 C 
ENDBRANCH  17  19
ENDBRANCH  15  17
ENDBRANCH   1  15
BRANCH   2  20
ATOM     20  N   UNL     1       5.932   6.423  16.720  0.00  0.00    +0.000 N 
ATOM     21  H   UNL     1       6.249   7.350  16.438  0.00  0.00    +0.000 HD
BRANCH  20  22
ATOM     22  C   UNL     1       5.949   5.513  15.636  0.00  0.00    +0.000 A 
ATOM     23  C   UNL     1       4.865   4.672  15.360  0.00  0.00    +0.000 A 
ATOM     24  C   UNL     1       4.887   3.819  14.256  0.00  0.00    +0.000 A 
ATOM     25  C   UNL     1       5.985   3.797  13.398  0.00  0.00    +0.000 A 
ATOM     26  C   UNL     1       7.094   4.590  13.689  0.00  0.00    +0.000 A 
ATOM     27  C   UNL     1       7.068   5.453  14.795  0.00  0.00    +0.000 A 
BRANCH  25  28
ATOM     28  O   UNL     1       5.873   2.947  12.335  0.00  0.00    +0.000 OA
ATOM     29  C   UNL     1       4.671   3.059  11.581  0.00  0.00    +0.000 C 
ENDBRANCH  25  28
ENDBRANCH  20  22
ENDBRANCH   2  20
BRANCH   6  30
ATOM     30  C   UNL     1       2.397   5.044  19.389  0.00  0.00    +0.000 C 
ATOM     31  O   UNL     1       1.827   4.540  20.349  0.00  0.00    +0.000 OA
BRANCH  30  32
ATOM     32  O   UNL     1       2.341   4.561  18.109  0.00  0.00    +0.000 OA
BRANCH  32  33
ATOM     33  C   UNL     1       1.603   3.337  17.955  0.00  0.00    +0.000 C 
ATOM     34  C   UNL     1       2.599   2.241  17.617  0.00  0.00    +0.000 C 
ENDBRANCH  32  33
ENDBRANCH  30  32
ENDBRANCH   6  30
TORSDOF 11
ENDMDL
MODEL 9
REMARK VINA RESULT:      -6.6      0.955      1.444
REMARK  Name = 
REMARK  15 active torsions:
REMARK  status: ('A' for Active; 'I' for Inactive)
REMARK    1  A    between atoms: C_1  and  C_2
REMARK    2  A    between atoms: C_2  and  O_3
REMARK    3  A    between atoms: O_3  and  C_4
REMARK    4  A    between atoms: C_4  and  C_6
REMARK    5  A    between atoms: C_7  and  N_8
REMARK    6  A    between atoms: N_8  and  C_9
REMARK    7  A    between atoms: C_12  and  O_13
REMARK    8  A    between atoms: O_13  and  C_14
REMARK    9  A    between atoms: N_19  and  C_20
REMARK   10  A    between atoms: C_23  and  O_24
REMARK   11  A    between atoms: O_24  and  C_25
REMARK   12  A    between atoms: C_28  and  C_29
REMARK   13  A    between atoms: C_29  and  O_31
REMARK   14  A    between atoms: O_31  and  C_32
REMARK   15  A    between atoms: C_32  and  C_33
REMARK                            x       y       z     vdW  Elec       q    Type
REMARK                         _______ _______ _______ _____ _____    ______ ____
ROOT
ATOM      1  C   UNL     1       4.562   5.625  18.638  0.00  0.00    +0.000 C 
ATOM      2  C   UNL     1       4.848   6.378  17.579  0.00  0.00    +0.000 C 
ATOM      3  C   UNL     1       3.754   7.399  17.514  0.00  0.00    +0.000 C 
ATOM      4  O   UNL     1       3.693   8.226  16.614  0.00  0.00    +0.000 OA
ATOM      5  N   UNL     1       2.963   7.241  18.652  0.00  0.00    +0.000 N 
ATOM      6  C   UNL     1       3.323   6.017  19.364  0.00  0.00    +0.000 C 
ENDROOT
BRANCH   5   7
ATOM      7  C   UNL     1       1.925   8.127  19.040  0.00  0.00    +0.000 A 
ATOM      8  C   UNL     1       1.305   8.954  18.095  0.00  0.00    +0.000 A 
ATOM      9  C   UNL     1       0.325   9.878  18.467  0.00  0.00    +0.000 A 
ATOM     10  C   UNL     1      -0.063   9.997  19.796  0.00  0.00    +0.000 A 
ATOM     11  C   UNL     1       0.548   9.192  20.756  0.00  0.00    +0.000 A 
ATOM     12  C   UNL     1       1.522   8.247  20.376  0.00  0.00    +0.000 A 
BRANCH  10  13
ATOM     13  O   UNL     1      -0.994  10.967  20.037  0.00  0.00    +0.000 OA
ATOM     14  C   UNL     1      -1.039  11.470  21.364  0.00  0.00    +0.000 C 
ENDBRANCH  10  13
ENDBRANCH   5   7
BRANCH   1  15
ATOM     15  C   UNL     1       5.393   4.519  19.087  0.00  0.00    +0.000 C 
ATOM     16  O   UNL     1       5.178   3.360  18.749  0.00  0.00    +0.000 OA
BRANCH  15  17
ATOM     17  O   UNL     1       6.331   4.944  19.958  0.00  0.00    +0.000 OA
BRANCH  17  19
ATOM     18  C   UNL     1       8.153   4.755  18.451  0.00  0.00    +0.000 C 
ATOM     19  C   UNL     1       7.444   5.660  19.431  0.00  0.00    +0.000 C 
ENDBRANCH  17  19
ENDBRANCH  15  17
ENDBRANCH   1  15
BRANCH   2  20
ATOM     20  N   UNL     1       5.910   6.375  16.706  0.00  0.00    +0.000 N 
ATOM     21  H   UNL     1       6.232   7.308  16.453  0.00  0.00    +0.000 HD
BRANCH  20  22
ATOM     22  C   UNL     1       5.960   5.488  15.604  0.00  0.00    +0.000 A 
ATOM     23  C   UNL     1       4.859   4.708  15.232  0.00  0.00    +0.000 A 
ATOM     24  C   UNL     1       4.919   3.878  14.112  0.00  0.00    +0.000 A 
ATOM     25  C   UNL     1       6.073   3.820  13.334  0.00  0.00    +0.000 A 
ATOM     26  C   UNL     1       7.196   4.551  13.721  0.00  0.00    +0.000 A 
ATOM     27  C   UNL     1       7.132   5.390  14.843  0.00  0.00    +0.000 A 
BRANCH  25  28
ATOM     28  O   UNL     1       5.997   2.998  12.244  0.00  0.00    +0.000 OA
ATOM     29  C   UNL     1       4.748   2.997  11.561  0.00  0.00    +0.000 C 
ENDBRANCH  25  28
ENDBRANCH  20  22
ENDBRANCH   2  20
BRANCH   6  30
ATOM     30  C   UNL     1       2.218   4.969  19.141  0.00  0.00    +0.000 C 
ATOM     31  O   UNL     1       1.847   4.569  18.045  0.00  0.00    +0.000 OA
BRANCH  30  32
ATOM     32  O   UNL     1       1.584   4.700  20.324  0.00  0.00    +0.000 OA
BRANCH  32  33
ATOM     33  C   UNL     1       1.112   3.350  20.465  0.00  0.00    +0.000 C 
ATOM     34  C   UNL     1       1.830   2.735  21.654  0.00  0.00    +0.000 C 
ENDBRANCH  32  33
ENDBRANCH  30  32
ENDBRANCH   6  30
TORSDOF 11
ENDMDL
