MODEL 1
REMARK VINA RESULT:      -8.5      0.000      0.000
REMARK  Name = 
REMARK  3 active torsions:
REMARK  status: ('A' for Active; 'I' for Inactive)
REMARK    1  A    between atoms: C_1  and  C_2
REMARK    2  A    between atoms: C_2  and  C_3
REMARK    3  A    between atoms: N_10  and  C_11
REMARK                            x       y       z     vdW  Elec       q    Type
REMARK                         _______ _______ _______ _____ _____    ______ ____
ROOT
ATOM      1  C   UNL     1       1.799   4.599  20.080  0.00  0.00    +0.000 A 
ATOM      2  C   UNL     1       0.779   3.683  19.767  0.00  0.00    +0.000 A 
ATOM      3  C   UNL     1       0.957   2.688  18.787  0.00  0.00    +0.000 A 
ATOM      4  C   UNL     1       2.169   2.572  18.107  0.00  0.00    +0.000 A 
ATOM      5  C   UNL     1       3.160   3.479  18.423  0.00  0.00    +0.000 A 
ATOM      6  C   UNL     1       2.987   4.499  19.363  0.00  0.00    +0.000 A 
ATOM      7  C   UNL     1       4.188   5.383  19.362  0.00  0.00    +0.000 C 
ATOM      8  N   UNL     1       5.034   4.799  18.330  0.00  0.00    +0.000 N 
ATOM      9  C   UNL     1       4.472   3.653  17.789  0.00  0.00    +0.000 C 
ATOM     10  O   UNL     1       4.915   2.950  16.902  0.00  0.00    +0.000 OA
ENDROOT
BRANCH   8  11
ATOM     11  C   UNL     1       6.020   5.614  17.627  0.00  0.00    +0.000 C 
ATOM     12  C   UNL     1       5.421   6.407  16.462  0.00  0.00    +0.000 C 
ATOM     13  C   UNL     1       5.485   5.672  15.135  0.00  0.00    +0.000 C 
ATOM     14  C   UNL     1       6.885   5.197  14.846  0.00  0.00    +0.000 C 
ATOM     15  O   UNL     1       7.336   5.136  13.705  0.00  0.00    +0.000 OA
ATOM     16  N   UNL     1       7.630   4.796  15.924  0.00  0.00    +0.000 N 
ATOM     17  C   UNL     1       7.298   4.852  17.255  0.00  0.00    +0.000 C 
ATOM     18  O   UNL     1       8.022   4.324  18.100  0.00  0.00    +0.000 OA
ATOM     19  H   UNL     1       8.517   4.365  15.706  0.00  0.00    +0.000 HD
ENDBRANCH   8  11
BRANCH   1  21
ATOM     20  C   UNL     1       1.517   7.057  20.537  0.00  0.00    +0.000 C 
ATOM     21  C   UNL     1       1.582   5.658  21.128  0.00  0.00    +0.000 C 
ENDBRANCH   1  21
TORSDOF 2
ENDMDL
MODEL 2
REMARK VINA RESULT:      -7.9      1.602      2.314
REMARK  Name = 
REMARK  3 active torsions:
REMARK  status: ('A' for Active; 'I' for Inactive)
REMARK    1  A    between atoms: C_1  and  C_2
REMARK    2  A    between atoms: C_2  and  C_3
REMARK    3  A    between atoms: N_10  and  C_11
REMARK                            x       y       z     vdW  Elec       q    Type
REMARK                         _______ _______ _______ _____ _____    ______ ____
ROOT
ATOM      1  C   UNL     1       1.962   4.846  20.160  0.00  0.00    +0.000 A 
ATOM      2  C   UNL     1       0.807   4.051  20.046  0.00  0.00    +0.000 A 
ATOM      3  C   UNL     1       0.778   2.907  19.227  0.00  0.00    +0.000 A 
ATOM      4  C   UNL     1       1.911   2.517  18.514  0.00  0.00    +0.000 A 
ATOM      5  C   UNL     1       3.035   3.308  18.632  0.00  0.00    +0.000 A 
ATOM      6  C   UNL     1       3.070   4.469  19.409  0.00  0.00    +0.000 A 
ATOM      7  C   UNL     1       4.376   5.161  19.207  0.00  0.00    +0.000 C 
ATOM      8  N   UNL     1       5.058   4.314  18.239  0.00  0.00    +0.000 N 
ATOM      9  C   UNL     1       4.309   3.194  17.913  0.00  0.00    +0.000 C 
ATOM     10  O   UNL     1       4.588   2.311  17.127  0.00  0.00    +0.000 OA
ENDROOT
BRANCH   8  11
ATOM     11  C   UNL     1       6.092   4.864  17.368  0.00  0.00    +0.000 C 
ATOM     12  C   UNL     1       7.481   4.867  18.015  0.00  0.00    +0.000 C 
ATOM     13  C   UNL     1       7.800   6.155  18.753  0.00  0.00    +0.000 C 
ATOM     14  C   UNL     1       7.576   7.355  17.870  0.00  0.00    +0.000 C 
ATOM     15  O   UNL     1       8.263   8.369  17.954  0.00  0.00    +0.000 OA
ATOM     16  N   UNL     1       6.534   7.277  16.984  0.00  0.00    +0.000 N 
ATOM     17  C   UNL     1       5.712   6.206  16.730  0.00  0.00    +0.000 C 
ATOM     18  O   UNL     1       4.730   6.335  15.999  0.00  0.00    +0.000 OA
ATOM     19  H   UNL     1       6.317   8.129  16.489  0.00  0.00    +0.000 HD
ENDBRANCH   8  11
BRANCH   1  21
ATOM     20  C   UNL     1       1.812   7.356  20.245  0.00  0.00    +0.000 C 
ATOM     21  C   UNL     1       1.966   6.069  21.039  0.00  0.00    +0.000 C 
ENDBRANCH   1  21
TORSDOF 2
ENDMDL
MODEL 3
REMARK VINA RESULT:      -7.9      2.578      5.977
REMARK  Name = 
REMARK  3 active torsions:
REMARK  status: ('A' for Active; 'I' for Inactive)
REMARK    1  A    between atoms: C_1  and  C_2
REMARK    2  A    between atoms: C_2  and  C_3
REMARK    3  A    between atoms: N_10  and  C_11
REMARK                            x       y       z     vdW  Elec       q    Type
REMARK                         _______ _______ _______ _____ _____    ______ ____
ROOT
ATOM      1  C   UNL     1       6.708   5.360  17.497  0.00  0.00    +0.000 A 
ATOM      2  C   UNL     1       7.112   5.616  16.174  0.00  0.00    +0.000 A 
ATOM      3  C   UNL     1       6.335   5.210  15.074  0.00  0.00    +0.000 A 
ATOM      4  C   UNL     1       5.120   4.554  15.268  0.00  0.00    +0.000 A 
ATOM      5  C   UNL     1       4.737   4.307  16.570  0.00  0.00    +0.000 A 
ATOM      6  C   UNL     1       5.515   4.666  17.674  0.00  0.00    +0.000 A 
ATOM      7  C   UNL     1       4.889   4.132  18.918  0.00  0.00    +0.000 C 
ATOM      8  N   UNL     1       3.716   3.423  18.425  0.00  0.00    +0.000 N 
ATOM      9  C   UNL     1       3.580   3.544  17.051  0.00  0.00    +0.000 C 
ATOM     10  O   UNL     1       2.723   3.056  16.339  0.00  0.00    +0.000 OA
ENDROOT
BRANCH   8  11
ATOM     11  C   UNL     1       3.132   2.328  19.193  0.00  0.00    +0.000 C 
ATOM     12  C   UNL     1       1.600   2.353  19.201  0.00  0.00    +0.000 C 
ATOM     13  C   UNL     1       1.015   3.124  20.370  0.00  0.00    +0.000 C 
ATOM     14  C   UNL     1       1.587   2.643  21.678  0.00  0.00    +0.000 C 
ATOM     15  O   UNL     1       0.932   2.629  22.716  0.00  0.00    +0.000 OA
ATOM     16  N   UNL     1       2.900   2.251  21.664  0.00  0.00    +0.000 N 
ATOM     17  C   UNL     1       3.747   2.155  20.587  0.00  0.00    +0.000 C 
ATOM     18  O   UNL     1       4.943   1.917  20.756  0.00  0.00    +0.000 OA
ATOM     19  H   UNL     1       3.306   2.050  22.566  0.00  0.00    +0.000 HD
ENDBRANCH   8  11
BRANCH   1  21
ATOM     20  C   UNL     1       8.106   7.207  18.479  0.00  0.00    +0.000 C 
ATOM     21  C   UNL     1       7.561   5.799  18.657  0.00  0.00    +0.000 C 
ENDBRANCH   1  21
TORSDOF 2
ENDMDL
MODEL 4
REMARK VINA RESULT:      -7.7      2.495      6.529
REMARK  Name = 
REMARK  3 active torsions:
REMARK  status: ('A' for Active; 'I' for Inactive)
REMARK    1  A    between atoms: C_1  and  C_2
REMARK    2  A    between atoms: C_2  and  C_3
REMARK    3  A    between atoms: N_10  and  C_11
REMARK                            x       y       z     vdW  Elec       q    Type
REMARK                         _______ _______ _______ _____ _____    ______ ____
ROOT
ATOM      1  C   UNL     1       6.183   3.685  12.785  0.00  0.00    +0.000 A 
ATOM      2  C   UNL     1       7.034   4.430  11.948  0.00  0.00    +0.000 A 
ATOM      3  C   UNL     1       7.931   5.382  12.467  0.00  0.00    +0.000 A 
ATOM      4  C   UNL     1       8.013   5.603  13.842  0.00  0.00    +0.000 A 
ATOM      5  C   UNL     1       7.171   4.868  14.650  0.00  0.00    +0.000 A 
ATOM      6  C   UNL     1       6.246   3.947  14.150  0.00  0.00    +0.000 A 
ATOM      7  C   UNL     1       5.400   3.436  15.267  0.00  0.00    +0.000 C 
ATOM      8  N   UNL     1       5.903   4.161  16.426  0.00  0.00    +0.000 N 
ATOM      9  C   UNL     1       6.971   4.980  16.100  0.00  0.00    +0.000 C 
ATOM     10  O   UNL     1       7.595   5.723  16.832  0.00  0.00    +0.000 OA
ENDROOT
BRANCH   8  11
ATOM     11  C   UNL     1       5.050   4.384  17.590  0.00  0.00    +0.000 C 
ATOM     12  C   UNL     1       4.526   3.084  18.207  0.00  0.00    +0.000 C 
ATOM     13  C   UNL     1       3.183   2.649  17.648  0.00  0.00    +0.000 C 
ATOM     14  C   UNL     1       2.177   3.766  17.724  0.00  0.00    +0.000 C 
ATOM     15  O   UNL     1       0.981   3.561  17.915  0.00  0.00    +0.000 OA
ATOM     16  N   UNL     1       2.655   5.036  17.531  0.00  0.00    +0.000 N 
ATOM     17  C   UNL     1       3.958   5.436  17.361  0.00  0.00    +0.000 C 
ATOM     18  O   UNL     1       4.216   6.602  17.061  0.00  0.00    +0.000 OA
ATOM     19  H   UNL     1       1.956   5.760  17.460  0.00  0.00    +0.000 HD
ENDBRANCH   8  11
BRANCH   1  21
ATOM     20  C   UNL     1       4.158   3.319  11.338  0.00  0.00    +0.000 C 
ATOM     21  C   UNL     1       5.229   2.676  12.204  0.00  0.00    +0.000 C 
ENDBRANCH   1  21
TORSDOF 2
ENDMDL
MODEL 5
REMARK VINA RESULT:      -7.7      1.734      2.857
REMARK  Name = 
REMARK  3 active torsions:
REMARK  status: ('A' for Active; 'I' for Inactive)
REMARK    1  A    between atoms: C_1  and  C_2
REMARK    2  A    between atoms: C_2  and  C_3
REMARK    3  A    between atoms: N_10  and  C_11
REMARK                            x       y       z     vdW  Elec       q    Type
REMARK                         _______ _______ _______ _____ _____    ______ ____
ROOT
ATOM      1  C   UNL     1       2.187   2.771  19.078  0.00  0.00    +0.000 A 
ATOM      2  C   UNL     1       1.402   2.738  20.244  0.00  0.00    +0.000 A 
ATOM      3  C   UNL     1       1.077   3.913  20.948  0.00  0.00    +0.000 A 
ATOM      4  C   UNL     1       1.515   5.156  20.492  0.00  0.00    +0.000 A 
ATOM      5  C   UNL     1       2.286   5.173  19.349  0.00  0.00    +0.000 A 
ATOM      6  C   UNL     1       2.653   4.014  18.660  0.00  0.00    +0.000 A 
ATOM      7  C   UNL     1       3.599   4.367  17.562  0.00  0.00    +0.000 C 
ATOM      8  N   UNL     1       3.756   5.808  17.706  0.00  0.00    +0.000 N 
ATOM      9  C   UNL     1       2.964   6.315  18.724  0.00  0.00    +0.000 C 
ATOM     10  O   UNL     1       2.883   7.466  19.105  0.00  0.00    +0.000 OA
ENDROOT
BRANCH   8  11
ATOM     11  C   UNL     1       4.960   6.476  17.222  0.00  0.00    +0.000 C 
ATOM     12  C   UNL     1       4.961   6.683  15.704  0.00  0.00    +0.000 C 
ATOM     13  C   UNL     1       5.615   5.545  14.941  0.00  0.00    +0.000 C 
ATOM     14  C   UNL     1       6.990   5.250  15.480  0.00  0.00    +0.000 C 
ATOM     15  O   UNL     1       7.909   4.865  14.762  0.00  0.00    +0.000 OA
ATOM     16  N   UNL     1       7.162   5.397  16.832  0.00  0.00    +0.000 N 
ATOM     17  C   UNL     1       6.262   5.867  17.757  0.00  0.00    +0.000 C 
ATOM     18  O   UNL     1       6.520   5.811  18.959  0.00  0.00    +0.000 OA
ATOM     19  H   UNL     1       8.047   5.078  17.197  0.00  0.00    +0.000 HD
ENDBRANCH   8  11
BRANCH   1  21
ATOM     20  C   UNL     1       3.952   1.042  18.604  0.00  0.00    +0.000 C 
ATOM     21  C   UNL     1       2.526   1.500  18.346  0.00  0.00    +0.000 C 
ENDBRANCH   1  21
TORSDOF 2
ENDMDL
MODEL 6
REMARK VINA RESULT:      -7.7      2.131      3.811
REMARK  Name = 
REMARK  3 active torsions:
REMARK  status: ('A' for Active; 'I' for Inactive)
REMARK    1  A    between atoms: C_1  and  C_2
REMARK    2  A    between atoms: C_2  and  C_3
REMARK    3  A    between atoms: N_10  and  C_11
REMARK                            x       y       z     vdW  Elec       q    Type
REMARK                         _______ _______ _______ _____ _____    ______ ____
ROOT
ATOM      1  C   UNL     1       1.410   8.377  20.271  0.00  0.00    +0.000 A 
ATOM      2  C   UNL     1       1.158   9.609  19.640  0.00  0.00    +0.000 A 
ATOM      3  C   UNL     1       1.632   9.885  18.344  0.00  0.00    +0.000 A 
ATOM      4  C   UNL     1       2.355   8.926  17.636  0.00  0.00    +0.000 A 
ATOM      5  C   UNL     1       2.597   7.724  18.267  0.00  0.00    +0.000 A 
ATOM      6  C   UNL     1       2.170   7.447  19.568  0.00  0.00    +0.000 A 
ATOM      7  C   UNL     1       2.714   6.127  19.999  0.00  0.00    +0.000 C 
ATOM      8  N   UNL     1       3.502   5.699  18.852  0.00  0.00    +0.000 N 
ATOM      9  C   UNL     1       3.418   6.600  17.802  0.00  0.00    +0.000 C 
ATOM     10  O   UNL     1       3.970   6.541  16.721  0.00  0.00    +0.000 OA
ENDROOT
BRANCH   8  11
ATOM     11  C   UNL     1       4.613   4.767  19.019  0.00  0.00    +0.000 C 
ATOM     12  C   UNL     1       5.928   5.464  19.385  0.00  0.00    +0.000 C 
ATOM     13  C   UNL     1       6.773   5.830  18.178  0.00  0.00    +0.000 C 
ATOM     14  C   UNL     1       6.985   4.637  17.283  0.00  0.00    +0.000 C 
ATOM     15  O   UNL     1       8.020   4.473  16.642  0.00  0.00    +0.000 OA
ATOM     16  N   UNL     1       5.944   3.752  17.185  0.00  0.00    +0.000 N 
ATOM     17  C   UNL     1       4.753   3.761  17.870  0.00  0.00    +0.000 C 
ATOM     18  O   UNL     1       3.858   2.970  17.571  0.00  0.00    +0.000 OA
ATOM     19  H   UNL     1       6.050   3.028  16.490  0.00  0.00    +0.000 HD
ENDBRANCH   8  11
BRANCH   1  21
ATOM     20  C   UNL     1      -0.379   8.875  21.969  0.00  0.00    +0.000 C 
ATOM     21  C   UNL     1       0.897   8.108  21.660  0.00  0.00    +0.000 C 
ENDBRANCH   1  21
TORSDOF 2
ENDMDL
MODEL 7
REMARK VINA RESULT:      -7.6      2.766      6.146
REMARK  Name = 
REMARK  3 active torsions:
REMARK  status: ('A' for Active; 'I' for Inactive)
REMARK    1  A    between atoms: C_1  and  C_2
REMARK    2  A    between atoms: C_2  and  C_3
REMARK    3  A    between atoms: N_10  and  C_11
REMARK                            x       y       z     vdW  Elec       q    Type
REMARK                         _______ _______ _______ _____ _____    ______ ____
ROOT
ATOM      1  C   UNL     1       5.263   5.008  15.371  0.00  0.00    +0.000 A 
ATOM      2  C   UNL     1       5.184   6.401  15.185  0.00  0.00    +0.000 A 
ATOM      3  C   UNL     1       4.856   7.268  16.244  0.00  0.00    +0.000 A 
ATOM      4  C   UNL     1       4.617   6.766  17.523  0.00  0.00    +0.000 A 
ATOM      5  C   UNL     1       4.695   5.399  17.690  0.00  0.00    +0.000 A 
ATOM      6  C   UNL     1       4.979   4.519  16.642  0.00  0.00    +0.000 A 
ATOM      7  C   UNL     1       4.847   3.114  17.124  0.00  0.00    +0.000 C 
ATOM      8  N   UNL     1       4.440   3.274  18.513  0.00  0.00    +0.000 N 
ATOM      9  C   UNL     1       4.382   4.607  18.885  0.00  0.00    +0.000 C 
ATOM     10  O   UNL     1       4.059   5.070  19.961  0.00  0.00    +0.000 OA
ENDROOT
BRANCH   8  11
ATOM     11  C   UNL     1       3.693   2.221  19.195  0.00  0.00    +0.000 C 
ATOM     12  C   UNL     1       2.183   2.304  18.950  0.00  0.00    +0.000 C 
ATOM     13  C   UNL     1       1.447   3.125  19.993  0.00  0.00    +0.000 C 
ATOM     14  C   UNL     1       1.777   2.655  21.386  0.00  0.00    +0.000 C 
ATOM     15  O   UNL     1       0.961   2.691  22.302  0.00  0.00    +0.000 OA
ATOM     16  N   UNL     1       3.057   2.213  21.595  0.00  0.00    +0.000 N 
ATOM     17  C   UNL     1       4.065   2.058  20.673  0.00  0.00    +0.000 C 
ATOM     18  O   UNL     1       5.206   1.779  21.041  0.00  0.00    +0.000 OA
ATOM     19  H   UNL     1       3.301   2.019  22.555  0.00  0.00    +0.000 HD
ENDBRANCH   8  11
BRANCH   1  21
ATOM     20  C   UNL     1       6.930   4.472  13.564  0.00  0.00    +0.000 C 
ATOM     21  C   UNL     1       5.611   4.101  14.221  0.00  0.00    +0.000 C 
ENDBRANCH   1  21
TORSDOF 2
ENDMDL
MODEL 8
REMARK VINA RESULT:      -7.3      2.581      5.486
REMARK  Name = 
REMARK  3 active torsions:
REMARK  status: ('A' for Active; 'I' for Inactive)
REMARK    1  A    between atoms: C_1  and  C_2
REMARK    2  A    between atoms: C_2  and  C_3
REMARK    3  A    between atoms: N_10  and  C_11
REMARK                            x       y       z     vdW  Elec       q    Type
REMARK                         _______ _______ _______ _____ _____    ______ ____
ROOT
ATOM      1  C   UNL     1       3.357   7.365  17.786  0.00  0.00    +0.000 A 
ATOM      2  C   UNL     1       4.446   8.022  17.183  0.00  0.00    +0.000 A 
ATOM      3  C   UNL     1       5.458   7.310  16.513  0.00  0.00    +0.000 A 
ATOM      4  C   UNL     1       5.399   5.920  16.413  0.00  0.00    +0.000 A 
ATOM      5  C   UNL     1       4.328   5.289  17.011  0.00  0.00    +0.000 A 
ATOM      6  C   UNL     1       3.335   5.976  17.715  0.00  0.00    +0.000 A 
ATOM      7  C   UNL     1       2.411   4.994  18.354  0.00  0.00    +0.000 C 
ATOM      8  N   UNL     1       2.978   3.706  17.978  0.00  0.00    +0.000 N 
ATOM      9  C   UNL     1       4.083   3.849  17.154  0.00  0.00    +0.000 C 
ATOM     10  O   UNL     1       4.786   2.974  16.687  0.00  0.00    +0.000 OA
ENDROOT
BRANCH   8  11
ATOM     11  C   UNL     1       2.738   2.522  18.796  0.00  0.00    +0.000 C 
ATOM     12  C   UNL     1       1.249   2.252  19.036  0.00  0.00    +0.000 C 
ATOM     13  C   UNL     1       0.716   2.898  20.302  0.00  0.00    +0.000 C 
ATOM     14  C   UNL     1       1.564   2.539  21.493  0.00  0.00    +0.000 C 
ATOM     15  O   UNL     1       1.091   2.402  22.619  0.00  0.00    +0.000 OA
ATOM     16  N   UNL     1       2.909   2.407  21.270  0.00  0.00    +0.000 N 
ATOM     17  C   UNL     1       3.583   2.473  20.074  0.00  0.00    +0.000 C 
ATOM     18  O   UNL     1       4.814   2.470  20.053  0.00  0.00    +0.000 OA
ATOM     19  H   UNL     1       3.480   2.290  22.094  0.00  0.00    +0.000 HD
ENDBRANCH   8  11
BRANCH   1  21
ATOM     20  C   UNL     1       1.845   9.374  17.720  0.00  0.00    +0.000 C 
ATOM     21  C   UNL     1       2.290   8.149  18.502  0.00  0.00    +0.000 C 
ENDBRANCH   1  21
TORSDOF 2
ENDMDL
MODEL 9
REMARK VINA RESULT:      -7.2      1.431      1.487
REMARK  Name = 
REMARK  3 active torsions:
REMARK  status: ('A' for Active; 'I' for Inactive)
REMARK    1  A    between atoms: C_1  and  C_2
REMARK    2  A    between atoms: C_2  and  C_3
REMARK    3  A    between atoms: N_10  and  C_11
REMARK                            x       y       z     vdW  Elec       q    Type
REMARK                         _______ _______ _______ _____ _____    ______ ____
ROOT
ATOM      1  C   UNL     1       1.831   5.179  20.327  0.00  0.00    +0.000 A 
ATOM      2  C   UNL     1       1.515   3.892  20.802  0.00  0.00    +0.000 A 
ATOM      3  C   UNL     1       2.416   2.818  20.676  0.00  0.00    +0.000 A 
ATOM      4  C   UNL     1       3.666   3.007  20.087  0.00  0.00    +0.000 A 
ATOM      5  C   UNL     1       3.961   4.273  19.624  0.00  0.00    +0.000 A 
ATOM      6  C   UNL     1       3.064   5.341  19.704  0.00  0.00    +0.000 A 
ATOM      7  C   UNL     1       3.632   6.520  18.988  0.00  0.00    +0.000 C 
ATOM      8  N   UNL     1       4.902   6.023  18.478  0.00  0.00    +0.000 N 
ATOM      9  C   UNL     1       5.140   4.716  18.872  0.00  0.00    +0.000 C 
ATOM     10  O   UNL     1       6.094   4.014  18.597  0.00  0.00    +0.000 OA
ENDROOT
BRANCH   8  11
ATOM     11  C   UNL     1       5.520   6.629  17.303  0.00  0.00    +0.000 C 
ATOM     12  C   UNL     1       4.801   6.273  15.998  0.00  0.00    +0.000 C 
ATOM     13  C   UNL     1       5.363   5.038  15.318  0.00  0.00    +0.000 C 
ATOM     14  C   UNL     1       6.855   5.147  15.140  0.00  0.00    +0.000 C 
ATOM     15  O   UNL     1       7.439   4.658  14.177  0.00  0.00    +0.000 OA
ATOM     16  N   UNL     1       7.544   5.793  16.133  0.00  0.00    +0.000 N 
ATOM     17  C   UNL     1       7.040   6.437  17.237  0.00  0.00    +0.000 C 
ATOM     18  O   UNL     1       7.798   6.854  18.113  0.00  0.00    +0.000 OA
ATOM     19  H   UNL     1       8.550   5.751  16.065  0.00  0.00    +0.000 HD
ENDBRANCH   8  11
BRANCH   1  21
ATOM     20  C   UNL     1       1.438   7.507  21.196  0.00  0.00    +0.000 C 
ATOM     21  C   UNL     1       0.848   6.310  20.469  0.00  0.00    +0.000 C 
ENDBRANCH   1  21
TORSDOF 2
ENDMDL
