MODEL 1
REMARK VINA RESULT:      -7.1      0.000      0.000
REMARK  Name = 
REMARK  10 active torsions:
REMARK  status: ('A' for Active; 'I' for Inactive)
REMARK    1  A    between atoms: C_1  and  O_2
REMARK    2  A    between atoms: O_2  and  C_3
REMARK    3  A    between atoms: C_3  and  C_5
REMARK    4  A    between atoms: C_6  and  O_7
REMARK    5  A    between atoms: O_7  and  C_8
REMARK    6  A    between atoms: C_10  and  C_11
REMARK    7  A    between atoms: C_11  and  C_12
REMARK    8  A    between atoms: C_18  and  N_19
REMARK    9  A    between atoms: C_21  and  O_22
REMARK   10  A    between atoms: O_22  and  C_23
REMARK                            x       y       z     vdW  Elec       q    Type
REMARK                         _______ _______ _______ _____ _____    ______ ____
ROOT
ATOM      1  C   UNL     1       2.739   3.985  20.337  0.00  0.00    +0.000 A 
ATOM      2  C   UNL     1       2.644   5.385  20.171  0.00  0.00    +0.000 A 
ATOM      3  C   UNL     1       3.660   6.077  19.491  0.00  0.00    +0.000 A 
ATOM      4  C   UNL     1       4.744   5.402  18.929  0.00  0.00    +0.000 A 
ATOM      5  C   UNL     1       4.845   4.023  19.123  0.00  0.00    +0.000 A 
ATOM      6  C   UNL     1       3.850   3.300  19.798  0.00  0.00    +0.000 A 
ENDROOT
BRANCH   1   7
ATOM      7  C   UNL     1       1.585   3.241  20.923  0.00  0.00    +0.000 C 
ATOM      8  O   UNL     1       1.620   2.705  22.021  0.00  0.00    +0.000 OA
BRANCH   7  10
ATOM      9  C   UNL     1       0.606   2.459  18.914  0.00  0.00    +0.000 C 
ATOM     10  O   UNL     1       0.510   3.264  20.095  0.00  0.00    +0.000 OA
ENDBRANCH   7  10
ENDBRANCH   1   7
BRANCH   2  11
ATOM     11  O   UNL     1       1.559   6.040  20.703  0.00  0.00    +0.000 OA
ATOM     12  C   UNL     1       1.615   7.465  20.684  0.00  0.00    +0.000 C 
ENDBRANCH   2  11
BRANCH   6  13
ATOM     13  O   UNL     1       3.912   1.934  19.924  0.00  0.00    +0.000 OA
ATOM     14  C   UNL     1       3.888   1.177  18.716  0.00  0.00    +0.000 C 
ENDBRANCH   6  13
BRANCH   4  15
ATOM     15  C   UNL     1       5.757   6.133  18.079  0.00  0.00    +0.000 C 
BRANCH  15  16
ATOM     16  C   UNL     1       6.031   5.506  16.750  0.00  0.00    +0.000 A 
ATOM     17  C   UNL     1       5.176   5.704  15.683  0.00  0.00    +0.000 A 
ATOM     18  N   UNL     1       5.345   5.146  14.473  0.00  0.00    +0.000 NA
ATOM     19  C   UNL     1       6.398   4.340  14.341  0.00  0.00    +0.000 A 
ATOM     20  N   UNL     1       6.609   3.769  13.104  0.00  0.00    +0.000 N 
ATOM     21  N   UNL     1       7.297   4.090  15.296  0.00  0.00    +0.000 NA
ATOM     22  C   UNL     1       7.099   4.665  16.484  0.00  0.00    +0.000 A 
ATOM     23  H   UNL     1       6.147   4.321  12.395  0.00  0.00    +0.000 HD
ATOM     24  H   UNL     1       7.590   3.575  12.976  0.00  0.00    +0.000 HD
BRANCH  22  25
ATOM     25  N   UNL     1       8.043   4.343  17.462  0.00  0.00    +0.000 N 
ATOM     26  H   UNL     1       7.711   4.764  18.328  0.00  0.00    +0.000 HD
ATOM     27  H   UNL     1       8.138   3.341  17.571  0.00  0.00    +0.000 HD
ENDBRANCH  22  25
ENDBRANCH  15  16
ENDBRANCH   4  15
TORSDOF 7
ENDMDL
MODEL 2
REMARK VINA RESULT:      -7.1      0.437      2.731
REMARK  Name = 
REMARK  10 active torsions:
REMARK  status: ('A' for Active; 'I' for Inactive)
REMARK    1  A    between atoms: C_1  and  O_2
REMARK    2  A    between atoms: O_2  and  C_3
REMARK    3  A    between atoms: C_3  and  C_5
REMARK    4  A    between atoms: C_6  and  O_7
REMARK    5  A    between atoms: O_7  and  C_8
REMARK    6  A    between atoms: C_10  and  C_11
REMARK    7  A    between atoms: C_11  and  C_12
REMARK    8  A    between atoms: C_18  and  N_19
REMARK    9  A    between atoms: C_21  and  O_22
REMARK   10  A    between atoms: O_22  and  C_23
REMARK                            x       y       z     vdW  Elec       q    Type
REMARK                         _______ _______ _______ _____ _____    ______ ____
ROOT
ATOM      1  C   UNL     1       2.602   3.923  20.285  0.00  0.00    +0.000 A 
ATOM      2  C   UNL     1       3.678   3.213  19.707  0.00  0.00    +0.000 A 
ATOM      3  C   UNL     1       4.713   3.915  19.068  0.00  0.00    +0.000 A 
ATOM      4  C   UNL     1       4.728   5.310  19.033  0.00  0.00    +0.000 A 
ATOM      5  C   UNL     1       3.646   6.003  19.581  0.00  0.00    +0.000 A 
ATOM      6  C   UNL     1       2.595   5.334  20.225  0.00  0.00    +0.000 A 
ENDROOT
BRANCH   1   7
ATOM      7  C   UNL     1       1.589   3.182  21.092  0.00  0.00    +0.000 C 
ATOM      8  O   UNL     1       1.792   2.797  22.235  0.00  0.00    +0.000 OA
BRANCH   7  10
ATOM      9  C   UNL     1       0.558   2.590  19.045  0.00  0.00    +0.000 C 
ATOM     10  O   UNL     1       0.430   3.020  20.405  0.00  0.00    +0.000 OA
ENDBRANCH   7  10
ENDBRANCH   1   7
BRANCH   2  11
ATOM     11  O   UNL     1       3.671   1.840  19.769  0.00  0.00    +0.000 OA
ATOM     12  C   UNL     1       3.891   1.154  18.538  0.00  0.00    +0.000 C 
ENDBRANCH   2  11
BRANCH   6  13
ATOM     13  O   UNL     1       1.569   6.018  20.828  0.00  0.00    +0.000 OA
ATOM     14  C   UNL     1       1.546   7.432  20.645  0.00  0.00    +0.000 C 
ENDBRANCH   6  13
BRANCH   4  15
ATOM     15  C   UNL     1       5.914   6.059  18.470  0.00  0.00    +0.000 C 
BRANCH  15  16
ATOM     16  C   UNL     1       6.295   5.675  17.077  0.00  0.00    +0.000 A 
ATOM     17  C   UNL     1       5.566   6.124  15.993  0.00  0.00    +0.000 A 
ATOM     18  N   UNL     1       5.834   5.792  14.720  0.00  0.00    +0.000 NA
ATOM     19  C   UNL     1       6.858   4.960  14.534  0.00  0.00    +0.000 A 
ATOM     20  N   UNL     1       7.170   4.617  13.235  0.00  0.00    +0.000 N 
ATOM     21  N   UNL     1       7.640   4.478  15.502  0.00  0.00    +0.000 NA
ATOM     22  C   UNL     1       7.347   4.833  16.756  0.00  0.00    +0.000 A 
ATOM     23  H   UNL     1       6.809   5.321  12.606  0.00  0.00    +0.000 HD
ATOM     24  H   UNL     1       8.149   4.389  13.165  0.00  0.00    +0.000 HD
BRANCH  22  25
ATOM     25  N   UNL     1       8.168   4.274  17.737  0.00  0.00    +0.000 N 
ATOM     26  H   UNL     1       7.630   3.523  18.166  0.00  0.00    +0.000 HD
ATOM     27  H   UNL     1       9.026   3.912  17.341  0.00  0.00    +0.000 HD
ENDBRANCH  22  25
ENDBRANCH  15  16
ENDBRANCH   4  15
TORSDOF 7
ENDMDL
MODEL 3
REMARK VINA RESULT:      -6.7      4.236      6.101
REMARK  Name = 
REMARK  10 active torsions:
REMARK  status: ('A' for Active; 'I' for Inactive)
REMARK    1  A    between atoms: C_1  and  O_2
REMARK    2  A    between atoms: O_2  and  C_3
REMARK    3  A    between atoms: C_3  and  C_5
REMARK    4  A    between atoms: C_6  and  O_7
REMARK    5  A    between atoms: O_7  and  C_8
REMARK    6  A    between atoms: C_10  and  C_11
REMARK    7  A    between atoms: C_11  and  C_12
REMARK    8  A    between atoms: C_18  and  N_19
REMARK    9  A    between atoms: C_21  and  O_22
REMARK   10  A    between atoms: O_22  and  C_23
REMARK                            x       y       z     vdW  Elec       q    Type
REMARK                         _______ _______ _______ _____ _____    ______ ____
ROOT
ATOM      1  C   UNL     1       3.613   3.636  18.625  0.00  0.00    +0.000 A 
ATOM      2  C   UNL     1       4.573   4.654  18.820  0.00  0.00    +0.000 A 
ATOM      3  C   UNL     1       4.248   5.986  18.516  0.00  0.00    +0.000 A 
ATOM      4  C   UNL     1       2.974   6.336  18.069  0.00  0.00    +0.000 A 
ATOM      5  C   UNL     1       2.041   5.321  17.851  0.00  0.00    +0.000 A 
ATOM      6  C   UNL     1       2.332   3.979  18.142  0.00  0.00    +0.000 A 
ENDROOT
BRANCH   1   7
ATOM      7  C   UNL     1       3.913   2.251  19.094  0.00  0.00    +0.000 C 
ATOM      8  O   UNL     1       3.947   1.282  18.349  0.00  0.00    +0.000 OA
BRANCH   7  10
ATOM      9  C   UNL     1       3.041   2.473  21.284  0.00  0.00    +0.000 C 
ATOM     10  O   UNL     1       4.162   2.223  20.428  0.00  0.00    +0.000 OA
ENDBRANCH   7  10
ENDBRANCH   1   7
BRANCH   2  11
ATOM     11  O   UNL     1       5.818   4.305  19.288  0.00  0.00    +0.000 OA
ATOM     12  C   UNL     1       6.791   5.347  19.319  0.00  0.00    +0.000 C 
ENDBRANCH   2  11
BRANCH   6  13
ATOM     13  O   UNL     1       1.389   2.991  17.998  0.00  0.00    +0.000 OA
ATOM     14  C   UNL     1       0.428   2.863  19.044  0.00  0.00    +0.000 C 
ENDBRANCH   6  13
BRANCH   4  15
ATOM     15  C   UNL     1       2.589   7.785  17.881  0.00  0.00    +0.000 C 
BRANCH  15  16
ATOM     16  C   UNL     1       1.849   8.392  19.028  0.00  0.00    +0.000 A 
ATOM     17  C   UNL     1       1.858   7.795  20.274  0.00  0.00    +0.000 A 
ATOM     18  N   UNL     1       1.191   8.269  21.338  0.00  0.00    +0.000 NA
ATOM     19  C   UNL     1       0.468   9.370  21.134  0.00  0.00    +0.000 A 
ATOM     20  N   UNL     1      -0.212   9.892  22.214  0.00  0.00    +0.000 N 
ATOM     21  N   UNL     1       0.399  10.039  19.982  0.00  0.00    +0.000 NA
ATOM     22  C   UNL     1       1.079   9.541  18.946  0.00  0.00    +0.000 A 
ATOM     23  H   UNL     1       0.220   9.572  23.071  0.00  0.00    +0.000 HD
ATOM     24  H   UNL     1      -0.334  10.886  22.097  0.00  0.00    +0.000 HD
BRANCH  22  25
ATOM     25  N   UNL     1       0.945  10.253  17.752  0.00  0.00    +0.000 N 
ATOM     26  H   UNL     1       1.258   9.629  17.011  0.00  0.00    +0.000 HD
ATOM     27  H   UNL     1      -0.013  10.536  17.594  0.00  0.00    +0.000 HD
ENDBRANCH  22  25
ENDBRANCH  15  16
ENDBRANCH   4  15
TORSDOF 7
ENDMDL
MODEL 4
REMARK VINA RESULT:      -6.7      4.567      7.042
REMARK  Name = 
REMARK  10 active torsions:
REMARK  status: ('A' for Active; 'I' for Inactive)
REMARK    1  A    between atoms: C_1  and  O_2
REMARK    2  A    between atoms: O_2  and  C_3
REMARK    3  A    between atoms: C_3  and  C_5
REMARK    4  A    between atoms: C_6  and  O_7
REMARK    5  A    between atoms: O_7  and  C_8
REMARK    6  A    between atoms: C_10  and  C_11
REMARK    7  A    between atoms: C_11  and  C_12
REMARK    8  A    between atoms: C_18  and  N_19
REMARK    9  A    between atoms: C_21  and  O_22
REMARK   10  A    between atoms: O_22  and  C_23
REMARK                            x       y       z     vdW  Elec       q    Type
REMARK                         _______ _______ _______ _____ _____    ______ ____
ROOT
ATOM      1  C   UNL     1       6.043   5.571  17.612  0.00  0.00    +0.000 A 
ATOM      2  C   UNL     1       4.866   4.914  18.033  0.00  0.00    +0.000 A 
ATOM      3  C   UNL     1       3.656   5.625  18.102  0.00  0.00    +0.000 A 
ATOM      4  C   UNL     1       3.582   6.963  17.716  0.00  0.00    +0.000 A 
ATOM      5  C   UNL     1       4.755   7.614  17.329  0.00  0.00    +0.000 A 
ATOM      6  C   UNL     1       5.980   6.934  17.250  0.00  0.00    +0.000 A 
ENDROOT
BRANCH   1   7
ATOM      7  C   UNL     1       7.286   4.774  17.394  0.00  0.00    +0.000 C 
ATOM      8  O   UNL     1       7.962   4.321  18.306  0.00  0.00    +0.000 OA
BRANCH   7  10
ATOM      9  C   UNL     1       6.512   3.961  15.309  0.00  0.00    +0.000 C 
ATOM     10  O   UNL     1       7.540   4.604  16.072  0.00  0.00    +0.000 OA
ENDBRANCH   7  10
ENDBRANCH   1   7
BRANCH   2  11
ATOM     11  O   UNL     1       4.941   3.587  18.385  0.00  0.00    +0.000 OA
ATOM     12  C   UNL     1       3.791   2.794  18.097  0.00  0.00    +0.000 C 
ENDBRANCH   2  11
BRANCH   6  13
ATOM     13  O   UNL     1       7.119   7.555  16.799  0.00  0.00    +0.000 OA
ATOM     14  C   UNL     1       7.853   8.322  17.751  0.00  0.00    +0.000 C 
ENDBRANCH   6  13
BRANCH   4  15
ATOM     15  C   UNL     1       2.252   7.681  17.658  0.00  0.00    +0.000 C 
BRANCH  15  16
ATOM     16  C   UNL     1       1.804   8.277  18.953  0.00  0.00    +0.000 A 
ATOM     17  C   UNL     1       1.871   7.553  20.127  0.00  0.00    +0.000 A 
ATOM     18  N   UNL     1       1.457   8.015  21.318  0.00  0.00    +0.000 NA
ATOM     19  C   UNL     1       0.933   9.240  21.321  0.00  0.00    +0.000 A 
ATOM     20  N   UNL     1       0.518   9.750  22.533  0.00  0.00    +0.000 N 
ATOM     21  N   UNL     1       0.834  10.035  20.253  0.00  0.00    +0.000 NA
ATOM     22  C   UNL     1       1.260   9.544  19.087  0.00  0.00    +0.000 A 
ATOM     23  H   UNL     1       0.995   9.268  23.283  0.00  0.00    +0.000 HD
ATOM     24  H   UNL     1       0.570  10.757  22.520  0.00  0.00    +0.000 HD
BRANCH  22  25
ATOM     25  N   UNL     1       1.099  10.395  17.992  0.00  0.00    +0.000 N 
ATOM     26  H   UNL     1       0.097  10.543  17.889  0.00  0.00    +0.000 HD
ATOM     27  H   UNL     1       1.574  11.277  18.134  0.00  0.00    +0.000 HD
ENDBRANCH  22  25
ENDBRANCH  15  16
ENDBRANCH   4  15
TORSDOF 7
ENDMDL
MODEL 5
REMARK VINA RESULT:      -6.6      0.933      2.949
REMARK  Name = 
REMARK  10 active torsions:
REMARK  status: ('A' for Active; 'I' for Inactive)
REMARK    1  A    between atoms: C_1  and  O_2
REMARK    2  A    between atoms: O_2  and  C_3
REMARK    3  A    between atoms: C_3  and  C_5
REMARK    4  A    between atoms: C_6  and  O_7
REMARK    5  A    between atoms: O_7  and  C_8
REMARK    6  A    between atoms: C_10  and  C_11
REMARK    7  A    between atoms: C_11  and  C_12
REMARK    8  A    between atoms: C_18  and  N_19
REMARK    9  A    between atoms: C_21  and  O_22
REMARK   10  A    between atoms: O_22  and  C_23
REMARK                            x       y       z     vdW  Elec       q    Type
REMARK                         _______ _______ _______ _____ _____    ______ ____
ROOT
ATOM      1  C   UNL     1       1.975   4.063  19.454  0.00  0.00    +0.000 A 
ATOM      2  C   UNL     1       2.899   3.416  18.603  0.00  0.00    +0.000 A 
ATOM      3  C   UNL     1       4.029   4.112  18.142  0.00  0.00    +0.000 A 
ATOM      4  C   UNL     1       4.287   5.422  18.548  0.00  0.00    +0.000 A 
ATOM      5  C   UNL     1       3.353   6.064  19.364  0.00  0.00    +0.000 A 
ATOM      6  C   UNL     1       2.214   5.400  19.841  0.00  0.00    +0.000 A 
ENDROOT
BRANCH   1   7
ATOM      7  C   UNL     1       0.864   3.272  20.060  0.00  0.00    +0.000 C 
ATOM      8  O   UNL     1      -0.072   2.824  19.414  0.00  0.00    +0.000 OA
BRANCH   7  10
ATOM      9  C   UNL     1       2.175   2.309  21.780  0.00  0.00    +0.000 C 
ATOM     10  O   UNL     1       1.048   3.103  21.394  0.00  0.00    +0.000 OA
ENDBRANCH   7  10
ENDBRANCH   1   7
BRANCH   2  11
ATOM     11  O   UNL     1       2.654   2.116  18.231  0.00  0.00    +0.000 OA
ATOM     12  C   UNL     1       3.710   1.186  18.462  0.00  0.00    +0.000 C 
ENDBRANCH   2  11
BRANCH   6  13
ATOM     13  O   UNL     1       1.335   6.007  20.704  0.00  0.00    +0.000 OA
ATOM     14  C   UNL     1       1.444   7.423  20.840  0.00  0.00    +0.000 C 
ENDBRANCH   6  13
BRANCH   4  15
ATOM     15  C   UNL     1       5.574   6.113  18.163  0.00  0.00    +0.000 C 
BRANCH  15  16
ATOM     16  C   UNL     1       6.115   5.732  16.823  0.00  0.00    +0.000 A 
ATOM     17  C   UNL     1       5.509   6.172  15.662  0.00  0.00    +0.000 A 
ATOM     18  N   UNL     1       5.924   5.842  14.429  0.00  0.00    +0.000 NA
ATOM     19  C   UNL     1       6.970   5.020  14.362  0.00  0.00    +0.000 A 
ATOM     20  N   UNL     1       7.431   4.680  13.107  0.00  0.00    +0.000 N 
ATOM     21  N   UNL     1       7.642   4.548  15.413  0.00  0.00    +0.000 NA
ATOM     22  C   UNL     1       7.205   4.900  16.625  0.00  0.00    +0.000 A 
ATOM     23  H   UNL     1       7.137   5.379  12.439  0.00  0.00    +0.000 HD
ATOM     24  H   UNL     1       8.414   4.461  13.149  0.00  0.00    +0.000 HD
BRANCH  22  25
ATOM     25  N   UNL     1       7.915   4.350  17.694  0.00  0.00    +0.000 N 
ATOM     26  H   UNL     1       8.322   3.482  17.350  0.00  0.00    +0.000 HD
ATOM     27  H   UNL     1       8.641   4.976  18.019  0.00  0.00    +0.000 HD
ENDBRANCH  22  25
ENDBRANCH  15  16
ENDBRANCH   4  15
TORSDOF 7
ENDMDL
MODEL 6
REMARK VINA RESULT:      -6.6      4.583      7.093
REMARK  Name = 
REMARK  10 active torsions:
REMARK  status: ('A' for Active; 'I' for Inactive)
REMARK    1  A    between atoms: C_1  and  O_2
REMARK    2  A    between atoms: O_2  and  C_3
REMARK    3  A    between atoms: C_3  and  C_5
REMARK    4  A    between atoms: C_6  and  O_7
REMARK    5  A    between atoms: O_7  and  C_8
REMARK    6  A    between atoms: C_10  and  C_11
REMARK    7  A    between atoms: C_11  and  C_12
REMARK    8  A    between atoms: C_18  and  N_19
REMARK    9  A    between atoms: C_21  and  O_22
REMARK   10  A    between atoms: O_22  and  C_23
REMARK                            x       y       z     vdW  Elec       q    Type
REMARK                         _______ _______ _______ _____ _____    ______ ____
ROOT
ATOM      1  C   UNL     1       6.102   5.560  17.571  0.00  0.00    +0.000 A 
ATOM      2  C   UNL     1       4.894   4.924  17.932  0.00  0.00    +0.000 A 
ATOM      3  C   UNL     1       3.701   5.664  17.973  0.00  0.00    +0.000 A 
ATOM      4  C   UNL     1       3.674   7.012  17.615  0.00  0.00    +0.000 A 
ATOM      5  C   UNL     1       4.877   7.641  17.288  0.00  0.00    +0.000 A 
ATOM      6  C   UNL     1       6.087   6.932  17.239  0.00  0.00    +0.000 A 
ENDROOT
BRANCH   1   7
ATOM      7  C   UNL     1       7.332   4.736  17.382  0.00  0.00    +0.000 C 
ATOM      8  O   UNL     1       7.752   4.397  16.285  0.00  0.00    +0.000 OA
BRANCH   7  10
ATOM      9  C   UNL     1       7.980   5.512  19.523  0.00  0.00    +0.000 C 
ATOM     10  O   UNL     1       7.920   4.445  18.570  0.00  0.00    +0.000 OA
ENDBRANCH   7  10
ENDBRANCH   1   7
BRANCH   2  11
ATOM     11  O   UNL     1       4.924   3.588  18.256  0.00  0.00    +0.000 OA
ATOM     12  C   UNL     1       3.706   2.869  18.068  0.00  0.00    +0.000 C 
ENDBRANCH   2  11
BRANCH   6  13
ATOM     13  O   UNL     1       7.257   7.534  16.846  0.00  0.00    +0.000 OA
ATOM     14  C   UNL     1       7.753   8.580  17.679  0.00  0.00    +0.000 C 
ENDBRANCH   6  13
BRANCH   4  15
ATOM     15  C   UNL     1       2.366   7.764  17.523  0.00  0.00    +0.000 C 
BRANCH  15  16
ATOM     16  C   UNL     1       1.875   8.329  18.817  0.00  0.00    +0.000 A 
ATOM     17  C   UNL     1       1.932   7.588  19.982  0.00  0.00    +0.000 A 
ATOM     18  N   UNL     1       1.480   8.022  21.169  0.00  0.00    +0.000 NA
ATOM     19  C   UNL     1       0.930   9.235  21.180  0.00  0.00    +0.000 A 
ATOM     20  N   UNL     1       0.476   9.716  22.390  0.00  0.00    +0.000 N 
ATOM     21  N   UNL     1       0.838  10.044  20.123  0.00  0.00    +0.000 NA
ATOM     22  C   UNL     1       1.300   9.582  18.958  0.00  0.00    +0.000 A 
ATOM     23  H   UNL     1       0.947   9.232  23.142  0.00  0.00    +0.000 HD
ATOM     24  H   UNL     1       0.507  10.724  22.394  0.00  0.00    +0.000 HD
BRANCH  22  25
ATOM     25  N   UNL     1       1.147  10.447  17.874  0.00  0.00    +0.000 N 
ATOM     26  H   UNL     1       1.399   9.913  17.044  0.00  0.00    +0.000 HD
ATOM     27  H   UNL     1       0.196  10.785  17.800  0.00  0.00    +0.000 HD
ENDBRANCH  22  25
ENDBRANCH  15  16
ENDBRANCH   4  15
TORSDOF 7
ENDMDL
MODEL 7
REMARK VINA RESULT:      -6.6      4.775      6.736
REMARK  Name = 
REMARK  10 active torsions:
REMARK  status: ('A' for Active; 'I' for Inactive)
REMARK    1  A    between atoms: C_1  and  O_2
REMARK    2  A    between atoms: O_2  and  C_3
REMARK    3  A    between atoms: C_3  and  C_5
REMARK    4  A    between atoms: C_6  and  O_7
REMARK    5  A    between atoms: O_7  and  C_8
REMARK    6  A    between atoms: C_10  and  C_11
REMARK    7  A    between atoms: C_11  and  C_12
REMARK    8  A    between atoms: C_18  and  N_19
REMARK    9  A    between atoms: C_21  and  O_22
REMARK   10  A    between atoms: O_22  and  C_23
REMARK                            x       y       z     vdW  Elec       q    Type
REMARK                         _______ _______ _______ _____ _____    ______ ____
ROOT
ATOM      1  C   UNL     1       4.086   5.705  18.801  0.00  0.00    +0.000 A 
ATOM      2  C   UNL     1       2.928   5.976  19.564  0.00  0.00    +0.000 A 
ATOM      3  C   UNL     1       2.120   7.079  19.237  0.00  0.00    +0.000 A 
ATOM      4  C   UNL     1       2.412   7.888  18.139  0.00  0.00    +0.000 A 
ATOM      5  C   UNL     1       3.574   7.631  17.409  0.00  0.00    +0.000 A 
ATOM      6  C   UNL     1       4.403   6.540  17.708  0.00  0.00    +0.000 A 
ENDROOT
BRANCH   1   7
ATOM      7  C   UNL     1       4.850   4.449  19.058  0.00  0.00    +0.000 C 
ATOM      8  O   UNL     1       5.937   4.426  19.616  0.00  0.00    +0.000 OA
BRANCH   7  10
ATOM      9  C   UNL     1       4.142   2.234  19.504  0.00  0.00    +0.000 C 
ATOM     10  O   UNL     1       4.172   3.358  18.618  0.00  0.00    +0.000 OA
ENDBRANCH   7  10
ENDBRANCH   1   7
BRANCH   2  11
ATOM     11  O   UNL     1       2.631   5.158  20.627  0.00  0.00    +0.000 OA
ATOM     12  C   UNL     1       1.358   4.516  20.590  0.00  0.00    +0.000 C 
ENDBRANCH   2  11
BRANCH   6  13
ATOM     13  O   UNL     1       5.505   6.243  16.945  0.00  0.00    +0.000 OA
ATOM     14  C   UNL     1       6.693   6.983  17.216  0.00  0.00    +0.000 C 
ENDBRANCH   6  13
BRANCH   4  15
ATOM     15  C   UNL     1       1.463   8.983  17.710  0.00  0.00    +0.000 C 
BRANCH  15  16
ATOM     16  C   UNL     1       1.248  10.061  18.723  0.00  0.00    +0.000 A 
ATOM     17  C   UNL     1       0.472   9.837  19.843  0.00  0.00    +0.000 A 
ATOM     18  N   UNL     1       0.213  10.769  20.774  0.00  0.00    +0.000 NA
ATOM     19  C   UNL     1       0.734  11.975  20.558  0.00  0.00    +0.000 A 
ATOM     20  N   UNL     1       0.503  12.947  21.508  0.00  0.00    +0.000 N 
ATOM     21  N   UNL     1       1.512  12.300  19.523  0.00  0.00    +0.000 NA
ATOM     22  C   UNL     1       1.752  11.348  18.618  0.00  0.00    +0.000 A 
ATOM     23  H   UNL     1       0.278  12.509  22.391  0.00  0.00    +0.000 HD
ATOM     24  H   UNL     1       1.252  13.622  21.502  0.00  0.00    +0.000 HD
BRANCH  22  25
ATOM     25  N   UNL     1       2.537  11.744  17.534  0.00  0.00    +0.000 N 
ATOM     26  H   UNL     1       2.141  12.622  17.201  0.00  0.00    +0.000 HD
ATOM     27  H   UNL     1       3.504  11.873  17.803  0.00  0.00    +0.000 HD
ENDBRANCH  22  25
ENDBRANCH  15  16
ENDBRANCH   4  15
TORSDOF 7
ENDMDL
MODEL 8
REMARK VINA RESULT:      -6.6      2.218      4.043
REMARK  Name = 
REMARK  10 active torsions:
REMARK  status: ('A' for Active; 'I' for Inactive)
REMARK    1  A    between atoms: C_1  and  O_2
REMARK    2  A    between atoms: O_2  and  C_3
REMARK    3  A    between atoms: C_3  and  C_5
REMARK    4  A    between atoms: C_6  and  O_7
REMARK    5  A    between atoms: O_7  and  C_8
REMARK    6  A    between atoms: C_10  and  C_11
REMARK    7  A    between atoms: C_11  and  C_12
REMARK    8  A    between atoms: C_18  and  N_19
REMARK    9  A    between atoms: C_21  and  O_22
REMARK   10  A    between atoms: O_22  and  C_23
REMARK                            x       y       z     vdW  Elec       q    Type
REMARK                         _______ _______ _______ _____ _____    ______ ____
ROOT
ATOM      1  C   UNL     1       2.280   3.913  18.468  0.00  0.00    +0.000 A 
ATOM      2  C   UNL     1       3.152   2.980  17.865  0.00  0.00    +0.000 A 
ATOM      3  C   UNL     1       4.239   3.434  17.100  0.00  0.00    +0.000 A 
ATOM      4  C   UNL     1       4.507   4.796  16.962  0.00  0.00    +0.000 A 
ATOM      5  C   UNL     1       3.624   5.712  17.536  0.00  0.00    +0.000 A 
ATOM      6  C   UNL     1       2.528   5.293  18.305  0.00  0.00    +0.000 A 
ENDROOT
BRANCH   1   7
ATOM      7  C   UNL     1       1.223   3.426  19.402  0.00  0.00    +0.000 C 
ATOM      8  O   UNL     1       0.242   2.796  19.036  0.00  0.00    +0.000 OA
BRANCH   7  10
ATOM      9  C   UNL     1       1.913   2.670  21.537  0.00  0.00    +0.000 C 
ATOM     10  O   UNL     1       1.511   3.751  20.689  0.00  0.00    +0.000 OA
ENDBRANCH   7  10
ENDBRANCH   1   7
BRANCH   2  11
ATOM     11  O   UNL     1       2.898   1.639  18.029  0.00  0.00    +0.000 OA
ATOM     12  C   UNL     1       3.850   0.909  18.801  0.00  0.00    +0.000 C 
ENDBRANCH   2  11
BRANCH   6  13
ATOM     13  O   UNL     1       1.703   6.194  18.932  0.00  0.00    +0.000 OA
ATOM     14  C   UNL     1       2.317   7.366  19.463  0.00  0.00    +0.000 C 
ENDBRANCH   6  13
BRANCH   4  15
ATOM     15  C   UNL     1       5.756   5.273  16.257  0.00  0.00    +0.000 C 
BRANCH  15  16
ATOM     16  C   UNL     1       6.614   6.198  17.058  0.00  0.00    +0.000 A 
ATOM     17  C   UNL     1       6.662   7.548  16.771  0.00  0.00    +0.000 A 
ATOM     18  N   UNL     1       7.433   8.428  17.429  0.00  0.00    +0.000 NA
ATOM     19  C   UNL     1       8.203   7.927  18.394  0.00  0.00    +0.000 A 
ATOM     20  N   UNL     1       8.991   8.810  19.102  0.00  0.00    +0.000 N 
ATOM     21  N   UNL     1       8.226   6.646  18.768  0.00  0.00    +0.000 NA
ATOM     22  C   UNL     1       7.443   5.800  18.095  0.00  0.00    +0.000 A 
ATOM     23  H   UNL     1       8.606   9.741  19.025  0.00  0.00    +0.000 HD
ATOM     24  H   UNL     1       9.163   8.453  20.029  0.00  0.00    +0.000 HD
BRANCH  22  25
ATOM     25  N   UNL     1       7.530   4.465  18.495  0.00  0.00    +0.000 N 
ATOM     26  H   UNL     1       6.718   3.994  18.100  0.00  0.00    +0.000 HD
ATOM     27  H   UNL     1       8.384   4.033  18.165  0.00  0.00    +0.000 HD
ENDBRANCH  22  25
ENDBRANCH  15  16
ENDBRANCH   4  15
TORSDOF 7
ENDMDL
MODEL 9
REMARK VINA RESULT:      -6.5      4.456      6.680
REMARK  Name = 
REMARK  10 active torsions:
REMARK  status: ('A' for Active; 'I' for Inactive)
REMARK    1  A    between atoms: C_1  and  O_2
REMARK    2  A    between atoms: O_2  and  C_3
REMARK    3  A    between atoms: C_3  and  C_5
REMARK    4  A    between atoms: C_6  and  O_7
REMARK    5  A    between atoms: O_7  and  C_8
REMARK    6  A    between atoms: C_10  and  C_11
REMARK    7  A    between atoms: C_11  and  C_12
REMARK    8  A    between atoms: C_18  and  N_19
REMARK    9  A    between atoms: C_21  and  O_22
REMARK   10  A    between atoms: O_22  and  C_23
REMARK                            x       y       z     vdW  Elec       q    Type
REMARK                         _______ _______ _______ _____ _____    ______ ____
ROOT
ATOM      1  C   UNL     1       6.242   5.519  17.990  0.00  0.00    +0.000 A 
ATOM      2  C   UNL     1       6.085   6.765  17.342  0.00  0.00    +0.000 A 
ATOM      3  C   UNL     1       4.801   7.309  17.177  0.00  0.00    +0.000 A 
ATOM      4  C   UNL     1       3.673   6.666  17.686  0.00  0.00    +0.000 A 
ATOM      5  C   UNL     1       3.832   5.422  18.300  0.00  0.00    +0.000 A 
ATOM      6  C   UNL     1       5.100   4.848  18.480  0.00  0.00    +0.000 A 
ENDROOT
BRANCH   1   7
ATOM      7  C   UNL     1       7.616   5.024  18.297  0.00  0.00    +0.000 C 
ATOM      8  O   UNL     1       8.208   5.283  19.335  0.00  0.00    +0.000 OA
BRANCH   7  10
ATOM      9  C   UNL     1       7.294   4.175  16.110  0.00  0.00    +0.000 C 
ATOM     10  O   UNL     1       8.095   4.243  17.295  0.00  0.00    +0.000 OA
ENDBRANCH   7  10
ENDBRANCH   1   7
BRANCH   2  11
ATOM     11  O   UNL     1       7.205   7.406  16.867  0.00  0.00    +0.000 OA
ATOM     12  C   UNL     1       7.724   8.452  17.687  0.00  0.00    +0.000 C 
ENDBRANCH   2  11
BRANCH   6  13
ATOM     13  O   UNL     1       5.264   3.661  19.149  0.00  0.00    +0.000 OA
ATOM     14  C   UNL     1       4.077   2.954  19.503  0.00  0.00    +0.000 C 
ENDBRANCH   6  13
BRANCH   4  15
ATOM     15  C   UNL     1       2.313   7.325  17.631  0.00  0.00    +0.000 C 
BRANCH  15  16
ATOM     16  C   UNL     1       1.895   8.008  18.893  0.00  0.00    +0.000 A 
ATOM     17  C   UNL     1       1.901   7.335  20.099  0.00  0.00    +0.000 A 
ATOM     18  N   UNL     1       1.508   7.877  21.262  0.00  0.00    +0.000 NA
ATOM     19  C   UNL     1       1.070   9.134  21.205  0.00  0.00    +0.000 A 
ATOM     20  N   UNL     1       0.679   9.725  22.388  0.00  0.00    +0.000 N 
ATOM     21  N   UNL     1       1.036   9.885  20.102  0.00  0.00    +0.000 NA
ATOM     22  C   UNL     1       1.438   9.314  18.964  0.00  0.00    +0.000 A 
ATOM     23  H   UNL     1       1.115   9.246  23.164  0.00  0.00    +0.000 HD
ATOM     24  H   UNL     1       0.801  10.724  22.331  0.00  0.00    +0.000 HD
BRANCH  22  25
ATOM     25  N   UNL     1       1.347  10.124  17.830  0.00  0.00    +0.000 N 
ATOM     26  H   UNL     1       2.216   9.992  17.315  0.00  0.00    +0.000 HD
ATOM     27  H   UNL     1       0.554   9.872  17.256  0.00  0.00    +0.000 HD
ENDBRANCH  22  25
ENDBRANCH  15  16
ENDBRANCH   4  15
TORSDOF 7
ENDMDL
