MODEL 1
REMARK VINA RESULT:      -7.7      0.000      0.000
REMARK  Name = 
REMARK  1 active torsions:
REMARK  status: ('A' for Active; 'I' for Inactive)
REMARK    1  A    between atoms: C_1  and  C_2
REMARK                            x       y       z     vdW  Elec       q    Type
REMARK                         _______ _______ _______ _____ _____    ______ ____
ROOT
ATOM      1  C   UNL     1       7.193   5.669  19.149  0.00  0.00    +0.000 C 
ATOM      2  C   UNL     1       6.485   5.062  17.970  0.00  0.00    +0.000 A 
ATOM      3  C   UNL     1       7.010   5.249  16.684  0.00  0.00    +0.000 A 
ATOM      4  C   UNL     1       6.363   4.702  15.578  0.00  0.00    +0.000 A 
ATOM      5 CL   UNL     1       7.026   4.923  14.004  0.00  0.00    +0.000 Cl
ATOM      6  C   UNL     1       5.195   3.962  15.737  0.00  0.00    +0.000 A 
ATOM      7  C   UNL     1       4.665   3.725  17.012  0.00  0.00    +0.000 A 
ATOM      8  C   UNL     1       5.298   4.312  18.132  0.00  0.00    +0.000 A 
ATOM      9  O   UNL     1       4.888   4.109  19.438  0.00  0.00    +0.000 OA
ATOM     10  C   UNL     1       3.578   4.416  19.719  0.00  0.00    +0.000 A 
ATOM     11  C   UNL     1       3.237   5.718  20.085  0.00  0.00    +0.000 A 
ATOM     12  C   UNL     1       1.915   6.020  20.405  0.00  0.00    +0.000 A 
ATOM     13  C   UNL     1       0.941   5.022  20.367  0.00  0.00    +0.000 A 
ATOM     14  C   UNL     1       1.290   3.713  20.030  0.00  0.00    +0.000 A 
ATOM     15  C   UNL     1       2.618   3.394  19.720  0.00  0.00    +0.000 A 
ATOM     16  C   UNL     1       3.009   1.987  19.355  0.00  0.00    +0.000 C 
ATOM     17  C   UNL     1       3.540   1.780  17.927  0.00  0.00    +0.000 C 
ATOM     18  N   UNL     1       3.482   2.953  17.045  0.00  0.00    +0.000 N 
ATOM     19  H   UNL     1       2.700   3.562  17.292  0.00  0.00    +0.000 HD
ENDROOT
TORSDOF 0
ENDMDL
MODEL 2
REMARK VINA RESULT:      -7.0      2.365      3.661
REMARK  Name = 
REMARK  1 active torsions:
REMARK  status: ('A' for Active; 'I' for Inactive)
REMARK    1  A    between atoms: C_1  and  C_2
REMARK                            x       y       z     vdW  Elec       q    Type
REMARK                         _______ _______ _______ _____ _____    ______ ____
ROOT
ATOM      1  C   UNL     1       8.382   5.197  20.106  0.00  0.00    +0.000 C 
ATOM      2  C   UNL     1       7.921   6.150  19.039  0.00  0.00    +0.000 A 
ATOM      3  C   UNL     1       8.452   7.446  18.999  0.00  0.00    +0.000 A 
ATOM      4  C   UNL     1       8.030   8.346  18.024  0.00  0.00    +0.000 A 
ATOM      5 CL   UNL     1       8.702   9.930  17.973  0.00  0.00    +0.000 Cl
ATOM      6  C   UNL     1       7.082   7.968  17.077  0.00  0.00    +0.000 A 
ATOM      7  C   UNL     1       6.558   6.669  17.066  0.00  0.00    +0.000 A 
ATOM      8  C   UNL     1       6.957   5.766  18.079  0.00  0.00    +0.000 A 
ATOM      9  O   UNL     1       6.539   4.448  18.139  0.00  0.00    +0.000 OA
ATOM     10  C   UNL     1       5.180   4.241  18.158  0.00  0.00    +0.000 A 
ATOM     11  C   UNL     1       4.499   4.244  19.376  0.00  0.00    +0.000 A 
ATOM     12  C   UNL     1       3.128   3.998  19.398  0.00  0.00    +0.000 A 
ATOM     13  C   UNL     1       2.444   3.741  18.209  0.00  0.00    +0.000 A 
ATOM     14  C   UNL     1       3.133   3.708  16.996  0.00  0.00    +0.000 A 
ATOM     15  C   UNL     1       4.514   3.940  16.963  0.00  0.00    +0.000 A 
ATOM     16  C   UNL     1       5.271   3.908  15.661  0.00  0.00    +0.000 C 
ATOM     17  C   UNL     1       5.917   5.231  15.219  0.00  0.00    +0.000 C 
ATOM     18  N   UNL     1       5.612   6.403  16.051  0.00  0.00    +0.000 N 
ATOM     19  H   UNL     1       4.687   6.320  16.479  0.00  0.00    +0.000 HD
ENDROOT
TORSDOF 0
ENDMDL
MODEL 3
REMARK VINA RESULT:      -7.0      2.598      5.648
REMARK  Name = 
REMARK  1 active torsions:
REMARK  status: ('A' for Active; 'I' for Inactive)
REMARK    1  A    between atoms: C_1  and  C_2
REMARK                            x       y       z     vdW  Elec       q    Type
REMARK                         _______ _______ _______ _____ _____    ______ ____
ROOT
ATOM      1  C   UNL     1       2.669   2.130  18.074  0.00  0.00    +0.000 C 
ATOM      2  C   UNL     1       2.998   3.520  18.539  0.00  0.00    +0.000 A 
ATOM      3  C   UNL     1       2.059   4.229  19.301  0.00  0.00    +0.000 A 
ATOM      4  C   UNL     1       2.342   5.523  19.733  0.00  0.00    +0.000 A 
ATOM      5 CL   UNL     1       1.189   6.378  20.684  0.00  0.00    +0.000 Cl
ATOM      6  C   UNL     1       3.559   6.123  19.418  0.00  0.00    +0.000 A 
ATOM      7  C   UNL     1       4.533   5.428  18.689  0.00  0.00    +0.000 A 
ATOM      8  C   UNL     1       4.232   4.130  18.217  0.00  0.00    +0.000 A 
ATOM      9  O   UNL     1       5.133   3.337  17.528  0.00  0.00    +0.000 OA
ATOM     10  C   UNL     1       5.678   3.883  16.390  0.00  0.00    +0.000 A 
ATOM     11  C   UNL     1       5.014   3.742  15.171  0.00  0.00    +0.000 A 
ATOM     12  C   UNL     1       5.584   4.264  14.012  0.00  0.00    +0.000 A 
ATOM     13  C   UNL     1       6.816   4.916  14.071  0.00  0.00    +0.000 A 
ATOM     14  C   UNL     1       7.492   5.029  15.286  0.00  0.00    +0.000 A 
ATOM     15  C   UNL     1       6.936   4.496  16.456  0.00  0.00    +0.000 A 
ATOM     16  C   UNL     1       7.654   4.611  17.775  0.00  0.00    +0.000 C 
ATOM     17  C   UNL     1       6.953   5.445  18.859  0.00  0.00    +0.000 C 
ATOM     18  N   UNL     1       5.728   6.139  18.441  0.00  0.00    +0.000 N 
ATOM     19  H   UNL     1       5.763   6.385  17.450  0.00  0.00    +0.000 HD
ENDROOT
TORSDOF 0
ENDMDL
MODEL 4
REMARK VINA RESULT:      -6.9      2.221      3.393
REMARK  Name = 
REMARK  1 active torsions:
REMARK  status: ('A' for Active; 'I' for Inactive)
REMARK    1  A    between atoms: C_1  and  C_2
REMARK                            x       y       z     vdW  Elec       q    Type
REMARK                         _______ _______ _______ _____ _____    ______ ____
ROOT
ATOM      1  C   UNL     1       6.082   3.900  14.950  0.00  0.00    +0.000 C 
ATOM      2  C   UNL     1       5.917   4.931  16.030  0.00  0.00    +0.000 A 
ATOM      3  C   UNL     1       6.951   5.846  16.271  0.00  0.00    +0.000 A 
ATOM      4  C   UNL     1       6.820   6.802  17.275  0.00  0.00    +0.000 A 
ATOM      5 CL   UNL     1       8.090   7.933  17.549  0.00  0.00    +0.000 Cl
ATOM      6  C   UNL     1       5.662   6.864  18.045  0.00  0.00    +0.000 A 
ATOM      7  C   UNL     1       4.595   5.988  17.807  0.00  0.00    +0.000 A 
ATOM      8  C   UNL     1       4.742   4.992  16.814  0.00  0.00    +0.000 A 
ATOM      9  O   UNL     1       3.738   4.105  16.465  0.00  0.00    +0.000 OA
ATOM     10  C   UNL     1       3.213   3.348  17.485  0.00  0.00    +0.000 A 
ATOM     11  C   UNL     1       3.813   2.136  17.824  0.00  0.00    +0.000 A 
ATOM     12  C   UNL     1       3.259   1.351  18.834  0.00  0.00    +0.000 A 
ATOM     13  C   UNL     1       2.104   1.774  19.494  0.00  0.00    +0.000 A 
ATOM     14  C   UNL     1       1.488   2.973  19.130  0.00  0.00    +0.000 A 
ATOM     15  C   UNL     1       2.028   3.763  18.108  0.00  0.00    +0.000 A 
ATOM     16  C   UNL     1       1.374   5.058  17.706  0.00  0.00    +0.000 C 
ATOM     17  C   UNL     1       2.198   6.335  17.940  0.00  0.00    +0.000 C 
ATOM     18  N   UNL     1       3.472   6.155  18.648  0.00  0.00    +0.000 N 
ATOM     19  H   UNL     1       3.426   5.365  19.294  0.00  0.00    +0.000 HD
ENDROOT
TORSDOF 0
ENDMDL
MODEL 5
REMARK VINA RESULT:      -6.9      1.089      1.232
REMARK  Name = 
REMARK  1 active torsions:
REMARK  status: ('A' for Active; 'I' for Inactive)
REMARK    1  A    between atoms: C_1  and  C_2
REMARK                            x       y       z     vdW  Elec       q    Type
REMARK                         _______ _______ _______ _____ _____    ______ ____
ROOT
ATOM      1  C   UNL     1       7.173   6.498  17.356  0.00  0.00    +0.000 C 
ATOM      2  C   UNL     1       6.331   5.415  16.743  0.00  0.00    +0.000 A 
ATOM      3  C   UNL     1       6.500   5.096  15.389  0.00  0.00    +0.000 A 
ATOM      4  C   UNL     1       5.722   4.102  14.801  0.00  0.00    +0.000 A 
ATOM      5 CL   UNL     1       5.952   3.707  13.140  0.00  0.00    +0.000 Cl
ATOM      6  C   UNL     1       4.773   3.412  15.550  0.00  0.00    +0.000 A 
ATOM      7  C   UNL     1       4.604   3.680  16.914  0.00  0.00    +0.000 A 
ATOM      8  C   UNL     1       5.366   4.716  17.503  0.00  0.00    +0.000 A 
ATOM      9  O   UNL     1       5.313   5.035  18.849  0.00  0.00    +0.000 OA
ATOM     10  C   UNL     1       4.070   5.338  19.354  0.00  0.00    +0.000 A 
ATOM     11  C   UNL     1       3.599   6.649  19.287  0.00  0.00    +0.000 A 
ATOM     12  C   UNL     1       2.355   6.963  19.832  0.00  0.00    +0.000 A 
ATOM     13  C   UNL     1       1.592   5.971  20.448  0.00  0.00    +0.000 A 
ATOM     14  C   UNL     1       2.080   4.667  20.541  0.00  0.00    +0.000 A 
ATOM     15  C   UNL     1       3.335   4.342  20.010  0.00  0.00    +0.000 A 
ATOM     16  C   UNL     1       3.873   2.939  20.103  0.00  0.00    +0.000 C 
ATOM     17  C   UNL     1       4.086   2.204  18.769  0.00  0.00    +0.000 C 
ATOM     18  N   UNL     1       3.618   2.908  17.568  0.00  0.00    +0.000 N 
ATOM     19  H   UNL     1       2.819   3.509  17.781  0.00  0.00    +0.000 HD
ENDROOT
TORSDOF 0
ENDMDL
MODEL 6
REMARK VINA RESULT:      -6.7      2.888      4.744
REMARK  Name = 
REMARK  1 active torsions:
REMARK  status: ('A' for Active; 'I' for Inactive)
REMARK    1  A    between atoms: C_1  and  C_2
REMARK                            x       y       z     vdW  Elec       q    Type
REMARK                         _______ _______ _______ _____ _____    ______ ____
ROOT
ATOM      1  C   UNL     1       0.961   7.420  21.537  0.00  0.00    +0.000 C 
ATOM      2  C   UNL     1       1.632   7.678  20.218  0.00  0.00    +0.000 A 
ATOM      3  C   UNL     1       1.450   8.916  19.585  0.00  0.00    +0.000 A 
ATOM      4  C   UNL     1       2.056   9.170  18.357  0.00  0.00    +0.000 A 
ATOM      5 CL   UNL     1       1.840  10.700  17.597  0.00  0.00    +0.000 Cl
ATOM      6  C   UNL     1       2.853   8.203  17.749  0.00  0.00    +0.000 A 
ATOM      7  C   UNL     1       3.086   6.971  18.372  0.00  0.00    +0.000 A 
ATOM      8  C   UNL     1       2.439   6.696  19.599  0.00  0.00    +0.000 A 
ATOM      9  O   UNL     1       2.632   5.532  20.323  0.00  0.00    +0.000 OA
ATOM     10  C   UNL     1       2.387   4.354  19.658  0.00  0.00    +0.000 A 
ATOM     11  C   UNL     1       1.096   3.827  19.641  0.00  0.00    +0.000 A 
ATOM     12  C   UNL     1       0.856   2.614  18.997  0.00  0.00    +0.000 A 
ATOM     13  C   UNL     1       1.904   1.930  18.381  0.00  0.00    +0.000 A 
ATOM     14  C   UNL     1       3.201   2.445  18.427  0.00  0.00    +0.000 A 
ATOM     15  C   UNL     1       3.457   3.656  19.083  0.00  0.00    +0.000 A 
ATOM     16  C   UNL     1       4.851   4.224  19.139  0.00  0.00    +0.000 C 
ATOM     17  C   UNL     1       5.065   5.568  18.424  0.00  0.00    +0.000 C 
ATOM     18  N   UNL     1       3.918   6.077  17.661  0.00  0.00    +0.000 N 
ATOM     19  H   UNL     1       3.345   5.311  17.301  0.00  0.00    +0.000 HD
ENDROOT
TORSDOF 0
ENDMDL
MODEL 7
REMARK VINA RESULT:      -6.6      2.910      5.808
REMARK  Name = 
REMARK  1 active torsions:
REMARK  status: ('A' for Active; 'I' for Inactive)
REMARK    1  A    between atoms: C_1  and  C_2
REMARK                            x       y       z     vdW  Elec       q    Type
REMARK                         _______ _______ _______ _____ _____    ______ ____
ROOT
ATOM      1  C   UNL     1       2.139   3.672  17.708  0.00  0.00    +0.000 C 
ATOM      2  C   UNL     1       2.719   5.057  17.772  0.00  0.00    +0.000 A 
ATOM      3  C   UNL     1       1.919   6.117  18.219  0.00  0.00    +0.000 A 
ATOM      4  C   UNL     1       2.437   7.409  18.276  0.00  0.00    +0.000 A 
ATOM      5 CL   UNL     1       1.450   8.700  18.844  0.00  0.00    +0.000 Cl
ATOM      6  C   UNL     1       3.752   7.660  17.895  0.00  0.00    +0.000 A 
ATOM      7  C   UNL     1       4.589   6.618  17.479  0.00  0.00    +0.000 A 
ATOM      8  C   UNL     1       4.054   5.312  17.384  0.00  0.00    +0.000 A 
ATOM      9  O   UNL     1       4.801   4.202  17.028  0.00  0.00    +0.000 OA
ATOM     10  C   UNL     1       5.464   4.275  15.826  0.00  0.00    +0.000 A 
ATOM     11  C   UNL     1       4.812   3.894  14.653  0.00  0.00    +0.000 A 
ATOM     12  C   UNL     1       5.497   3.933  13.440  0.00  0.00    +0.000 A 
ATOM     13  C   UNL     1       6.829   4.343  13.402  0.00  0.00    +0.000 A 
ATOM     14  C   UNL     1       7.489   4.695  14.581  0.00  0.00    +0.000 A 
ATOM     15  C   UNL     1       6.816   4.646  15.809  0.00  0.00    +0.000 A 
ATOM     16  C   UNL     1       7.514   5.023  17.089  0.00  0.00    +0.000 C 
ATOM     17  C   UNL     1       6.964   6.255  17.825  0.00  0.00    +0.000 C 
ATOM     18  N   UNL     1       5.905   6.997  17.128  0.00  0.00    +0.000 N 
ATOM     19  H   UNL     1       6.008   6.923  16.114  0.00  0.00    +0.000 HD
ENDROOT
TORSDOF 0
ENDMDL
MODEL 8
REMARK VINA RESULT:      -6.6      3.646      5.773
REMARK  Name = 
REMARK  1 active torsions:
REMARK  status: ('A' for Active; 'I' for Inactive)
REMARK    1  A    between atoms: C_1  and  C_2
REMARK                            x       y       z     vdW  Elec       q    Type
REMARK                         _______ _______ _______ _____ _____    ______ ____
ROOT
ATOM      1  C   UNL     1       1.992   9.561  17.640  0.00  0.00    +0.000 C 
ATOM      2  C   UNL     1       1.838   8.668  18.839  0.00  0.00    +0.000 A 
ATOM      3  C   UNL     1       1.289   9.190  20.019  0.00  0.00    +0.000 A 
ATOM      4  C   UNL     1       1.148   8.379  21.143  0.00  0.00    +0.000 A 
ATOM      5 CL   UNL     1       0.457   9.026  22.581  0.00  0.00    +0.000 Cl
ATOM      6  C   UNL     1       1.543   7.045  21.106  0.00  0.00    +0.000 A 
ATOM      7  C   UNL     1       2.060   6.483  19.932  0.00  0.00    +0.000 A 
ATOM      8  C   UNL     1       2.241   7.314  18.802  0.00  0.00    +0.000 A 
ATOM      9  O   UNL     1       2.700   6.855  17.580  0.00  0.00    +0.000 OA
ATOM     10  C   UNL     1       3.911   6.203  17.590  0.00  0.00    +0.000 A 
ATOM     11  C   UNL     1       5.091   6.936  17.470  0.00  0.00    +0.000 A 
ATOM     12  C   UNL     1       6.315   6.271  17.444  0.00  0.00    +0.000 A 
ATOM     13  C   UNL     1       6.357   4.880  17.529  0.00  0.00    +0.000 A 
ATOM     14  C   UNL     1       5.173   4.146  17.619  0.00  0.00    +0.000 A 
ATOM     15  C   UNL     1       3.935   4.802  17.632  0.00  0.00    +0.000 A 
ATOM     16  C   UNL     1       2.650   4.024  17.728  0.00  0.00    +0.000 C 
ATOM     17  C   UNL     1       1.807   4.260  18.992  0.00  0.00    +0.000 C 
ATOM     18  N   UNL     1       2.416   5.118  20.017  0.00  0.00    +0.000 N 
ATOM     19  H   UNL     1       3.435   5.044  20.002  0.00  0.00    +0.000 HD
ENDROOT
TORSDOF 0
ENDMDL
MODEL 9
REMARK VINA RESULT:      -6.5      2.732      5.231
REMARK  Name = 
REMARK  1 active torsions:
REMARK  status: ('A' for Active; 'I' for Inactive)
REMARK    1  A    between atoms: C_1  and  C_2
REMARK                            x       y       z     vdW  Elec       q    Type
REMARK                         _______ _______ _______ _____ _____    ______ ____
ROOT
ATOM      1  C   UNL     1       2.265   6.910  19.977  0.00  0.00    +0.000 C 
ATOM      2  C   UNL     1       2.422   5.416  20.031  0.00  0.00    +0.000 A 
ATOM      3  C   UNL     1       1.727   4.687  21.006  0.00  0.00    +0.000 A 
ATOM      4  C   UNL     1       1.867   3.303  21.077  0.00  0.00    +0.000 A 
ATOM      5 CL   UNL     1       0.996   2.416  22.268  0.00  0.00    +0.000 Cl
ATOM      6  C   UNL     1       2.692   2.629  20.180  0.00  0.00    +0.000 A 
ATOM      7  C   UNL     1       3.371   3.323  19.171  0.00  0.00    +0.000 A 
ATOM      8  C   UNL     1       3.260   4.732  19.121  0.00  0.00    +0.000 A 
ATOM      9  O   UNL     1       3.850   5.513  18.142  0.00  0.00    +0.000 OA
ATOM     10  C   UNL     1       5.210   5.377  17.992  0.00  0.00    +0.000 A 
ATOM     11  C   UNL     1       6.071   6.152  18.768  0.00  0.00    +0.000 A 
ATOM     12  C   UNL     1       7.449   6.039  18.589  0.00  0.00    +0.000 A 
ATOM     13  C   UNL     1       7.961   5.162  17.633  0.00  0.00    +0.000 A 
ATOM     14  C   UNL     1       7.095   4.410  16.836  0.00  0.00    +0.000 A 
ATOM     15  C   UNL     1       5.708   4.525  16.997  0.00  0.00    +0.000 A 
ATOM     16  C   UNL     1       4.763   3.720  16.145  0.00  0.00    +0.000 C 
ATOM     17  C   UNL     1       3.889   2.695  16.885  0.00  0.00    +0.000 C 
ATOM     18  N   UNL     1       4.169   2.528  18.317  0.00  0.00    +0.000 N 
ATOM     19  H   UNL     1       5.153   2.712  18.524  0.00  0.00    +0.000 HD
ENDROOT
TORSDOF 0
ENDMDL
