MODEL 1
REMARK VINA RESULT:      -7.1      0.000      0.000
REMARK  Name = 
REMARK  7 active torsions:
REMARK  status: ('A' for Active; 'I' for Inactive)
REMARK    1  A    between atoms: C_1  and  C_2
REMARK    2  A    between atoms: C_4  and  C_5
REMARK    3  A    between atoms: C_7  and  C_8
REMARK    4  A    between atoms: C_9  and  O_10
REMARK    5  A    between atoms: C_12  and  C_13
REMARK    6  A    between atoms: C_13  and  O_15
REMARK    7  A    between atoms: C_17  and  O_18
REMARK                            x       y       z     vdW  Elec       q    Type
REMARK                         _______ _______ _______ _____ _____    ______ ____
ROOT
ATOM      1  C   UNL     1       2.202   7.411  19.113  0.00  0.00    +0.000 A 
ATOM      2  C   UNL     1       1.830   8.657  18.553  0.00  0.00    +0.000 A 
ATOM      3  C   UNL     1       1.185   9.659  19.288  0.00  0.00    +0.000 A 
ATOM      4  C   UNL     1       0.859   9.438  20.623  0.00  0.00    +0.000 A 
ATOM      5  C   UNL     1       1.179   8.215  21.212  0.00  0.00    +0.000 A 
ATOM      6  C   UNL     1       1.851   7.235  20.474  0.00  0.00    +0.000 A 
ENDROOT
BRANCH   1  13
ATOM      7  C   UNL     1       6.078   5.961  16.225  0.00  0.00    +0.000 C 
ATOM      8  C   UNL     1       4.819   5.601  16.961  0.00  0.00    +0.000 A 
ATOM      9  C   UNL     1       4.272   4.319  16.875  0.00  0.00    +0.000 A 
ATOM     10  C   UNL     1       3.050   4.036  17.488  0.00  0.00    +0.000 A 
ATOM     11  C   UNL     1       2.471   2.653  17.467  0.00  0.00    +0.000 C 
ATOM     12  C   UNL     1       2.360   5.063  18.155  0.00  0.00    +0.000 A 
ATOM     13  C   UNL     1       2.908   6.347  18.328  0.00  0.00    +0.000 A 
ATOM     14  C   UNL     1       4.158   6.577  17.721  0.00  0.00    +0.000 A 
ENDBRANCH   1  13
BRANCH   2  15
ATOM     15  O   UNL     1       2.020   8.991  17.233  0.00  0.00    +0.000 OA
ATOM     16  H   UNL     1       1.718   8.249  16.682  0.00  0.00    +0.000 HD
ENDBRANCH   2  15
BRANCH   4  17
ATOM     17  C   UNL     1       0.123  10.430  21.442  0.00  0.00    +0.000 C 
ATOM     18  O   UNL     1      -0.721  11.168  20.969  0.00  0.00    +0.000 OA
BRANCH  17  19
ATOM     19  O   UNL     1       0.434  10.411  22.755  0.00  0.00    +0.000 OA
ATOM     20  H   UNL     1       0.240   9.577  23.222  0.00  0.00    +0.000 HD
ENDBRANCH  17  19
ENDBRANCH   4  17
BRANCH   6  21
ATOM     21  O   UNL     1       2.180   6.074  21.132  0.00  0.00    +0.000 OA
ATOM     22  H   UNL     1       3.145   5.955  21.132  0.00  0.00    +0.000 HD
ENDBRANCH   6  21
TORSDOF 5
ENDMDL
MODEL 2
REMARK VINA RESULT:      -7.1      0.046      1.976
REMARK  Name = 
REMARK  7 active torsions:
REMARK  status: ('A' for Active; 'I' for Inactive)
REMARK    1  A    between atoms: C_1  and  C_2
REMARK    2  A    between atoms: C_4  and  C_5
REMARK    3  A    between atoms: C_7  and  C_8
REMARK    4  A    between atoms: C_9  and  O_10
REMARK    5  A    between atoms: C_12  and  C_13
REMARK    6  A    between atoms: C_13  and  O_15
REMARK    7  A    between atoms: C_17  and  O_18
REMARK                            x       y       z     vdW  Elec       q    Type
REMARK                         _______ _______ _______ _____ _____    ______ ____
ROOT
ATOM      1  C   UNL     1       2.223   7.370  19.129  0.00  0.00    +0.000 A 
ATOM      2  C   UNL     1       1.851   8.612  18.561  0.00  0.00    +0.000 A 
ATOM      3  C   UNL     1       1.202   9.617  19.289  0.00  0.00    +0.000 A 
ATOM      4  C   UNL     1       0.870   9.401  20.624  0.00  0.00    +0.000 A 
ATOM      5  C   UNL     1       1.189   8.181  21.220  0.00  0.00    +0.000 A 
ATOM      6  C   UNL     1       1.866   7.198  20.489  0.00  0.00    +0.000 A 
ENDROOT
BRANCH   1  13
ATOM      7  C   UNL     1       2.478   2.610  17.471  0.00  0.00    +0.000 C 
ATOM      8  C   UNL     1       3.051   3.998  17.485  0.00  0.00    +0.000 A 
ATOM      9  C   UNL     1       4.256   4.290  16.840  0.00  0.00    +0.000 A 
ATOM     10  C   UNL     1       4.818   5.563  16.949  0.00  0.00    +0.000 A 
ATOM     11  C   UNL     1       6.076   5.923  16.215  0.00  0.00    +0.000 C 
ATOM     12  C   UNL     1       4.182   6.532  17.745  0.00  0.00    +0.000 A 
ATOM     13  C   UNL     1       2.933   6.303  18.351  0.00  0.00    +0.000 A 
ATOM     14  C   UNL     1       2.388   5.015  18.186  0.00  0.00    +0.000 A 
ENDBRANCH   1  13
BRANCH   2  15
ATOM     15  O   UNL     1       2.046   8.941  17.241  0.00  0.00    +0.000 OA
ATOM     16  H   UNL     1       1.178   8.991  16.806  0.00  0.00    +0.000 HD
ENDBRANCH   2  15
BRANCH   4  17
ATOM     17  C   UNL     1       0.129  10.395  21.436  0.00  0.00    +0.000 C 
ATOM     18  O   UNL     1      -0.715  11.128  20.956  0.00  0.00    +0.000 OA
BRANCH  17  19
ATOM     19  O   UNL     1       0.436  10.383  22.750  0.00  0.00    +0.000 OA
ATOM     20  H   UNL     1      -0.228   9.974  23.335  0.00  0.00    +0.000 HD
ENDBRANCH  17  19
ENDBRANCH   4  17
BRANCH   6  21
ATOM     21  O   UNL     1       2.194   6.041  21.153  0.00  0.00    +0.000 OA
ATOM     22  H   UNL     1       1.390   5.531  21.349  0.00  0.00    +0.000 HD
ENDBRANCH   6  21
TORSDOF 5
ENDMDL
MODEL 3
REMARK VINA RESULT:      -7.0      3.669      5.033
REMARK  Name = 
REMARK  7 active torsions:
REMARK  status: ('A' for Active; 'I' for Inactive)
REMARK    1  A    between atoms: C_1  and  C_2
REMARK    2  A    between atoms: C_4  and  C_5
REMARK    3  A    between atoms: C_7  and  C_8
REMARK    4  A    between atoms: C_9  and  O_10
REMARK    5  A    between atoms: C_12  and  C_13
REMARK    6  A    between atoms: C_13  and  O_15
REMARK    7  A    between atoms: C_17  and  O_18
REMARK                            x       y       z     vdW  Elec       q    Type
REMARK                         _______ _______ _______ _____ _____    ______ ____
ROOT
ATOM      1  C   UNL     1       4.145   4.656  18.452  0.00  0.00    +0.000 A 
ATOM      2  C   UNL     1       2.854   5.231  18.544  0.00  0.00    +0.000 A 
ATOM      3  C   UNL     1       1.845   4.707  19.362  0.00  0.00    +0.000 A 
ATOM      4  C   UNL     1       2.085   3.555  20.106  0.00  0.00    +0.000 A 
ATOM      5  C   UNL     1       3.332   2.936  20.027  0.00  0.00    +0.000 A 
ATOM      6  C   UNL     1       4.341   3.488  19.230  0.00  0.00    +0.000 A 
ENDROOT
BRANCH   1  13
ATOM      7  C   UNL     1       7.876   7.983  17.762  0.00  0.00    +0.000 C 
ATOM      8  C   UNL     1       7.090   6.809  17.251  0.00  0.00    +0.000 A 
ATOM      9  C   UNL     1       7.313   6.290  15.973  0.00  0.00    +0.000 A 
ATOM     10  C   UNL     1       6.505   5.263  15.483  0.00  0.00    +0.000 A 
ATOM     11  C   UNL     1       6.761   4.643  14.142  0.00  0.00    +0.000 C 
ATOM     12  C   UNL     1       5.442   4.787  16.271  0.00  0.00    +0.000 A 
ATOM     13  C   UNL     1       5.228   5.230  17.589  0.00  0.00    +0.000 A 
ATOM     14  C   UNL     1       6.089   6.243  18.054  0.00  0.00    +0.000 A 
ENDBRANCH   1  13
BRANCH   2  15
ATOM     15  O   UNL     1       2.447   6.323  17.816  0.00  0.00    +0.000 OA
ATOM     16  H   UNL     1       2.065   6.008  16.979  0.00  0.00    +0.000 HD
ENDBRANCH   2  15
BRANCH   4  17
ATOM     17  C   UNL     1       1.045   2.913  20.944  0.00  0.00    +0.000 C 
ATOM     18  O   UNL     1       1.205   2.699  22.131  0.00  0.00    +0.000 OA
BRANCH  17  19
ATOM     19  O   UNL     1      -0.103   2.631  20.292  0.00  0.00    +0.000 OA
ATOM     20  H   UNL     1      -0.311   3.211  19.536  0.00  0.00    +0.000 HD
ENDBRANCH  17  19
ENDBRANCH   4  17
BRANCH   6  21
ATOM     21  O   UNL     1       5.560   2.855  19.238  0.00  0.00    +0.000 OA
ATOM     22  H   UNL     1       5.474   1.965  18.857  0.00  0.00    +0.000 HD
ENDBRANCH   6  21
TORSDOF 5
ENDMDL
MODEL 4
REMARK VINA RESULT:      -7.0      0.099      1.928
REMARK  Name = 
REMARK  7 active torsions:
REMARK  status: ('A' for Active; 'I' for Inactive)
REMARK    1  A    between atoms: C_1  and  C_2
REMARK    2  A    between atoms: C_4  and  C_5
REMARK    3  A    between atoms: C_7  and  C_8
REMARK    4  A    between atoms: C_9  and  O_10
REMARK    5  A    between atoms: C_12  and  C_13
REMARK    6  A    between atoms: C_13  and  O_15
REMARK    7  A    between atoms: C_17  and  O_18
REMARK                            x       y       z     vdW  Elec       q    Type
REMARK                         _______ _______ _______ _____ _____    ______ ____
ROOT
ATOM      1  C   UNL     1       2.200   7.360  19.109  0.00  0.00    +0.000 A 
ATOM      2  C   UNL     1       1.841   7.185  20.467  0.00  0.00    +0.000 A 
ATOM      3  C   UNL     1       1.169   8.165  21.208  0.00  0.00    +0.000 A 
ATOM      4  C   UNL     1       0.853   9.385  20.617  0.00  0.00    +0.000 A 
ATOM      5  C   UNL     1       1.212   9.616  19.289  0.00  0.00    +0.000 A 
ATOM      6  C   UNL     1       1.855   8.616  18.552  0.00  0.00    +0.000 A 
ENDROOT
BRANCH   1  13
ATOM      7  C   UNL     1       6.056   5.941  16.178  0.00  0.00    +0.000 C 
ATOM      8  C   UNL     1       4.806   5.572  16.925  0.00  0.00    +0.000 A 
ATOM      9  C   UNL     1       4.265   4.287  16.840  0.00  0.00    +0.000 A 
ATOM     10  C   UNL     1       3.051   3.995  17.464  0.00  0.00    +0.000 A 
ATOM     11  C   UNL     1       2.480   2.608  17.444  0.00  0.00    +0.000 C 
ATOM     12  C   UNL     1       2.362   5.016  18.141  0.00  0.00    +0.000 A 
ATOM     13  C   UNL     1       2.904   6.302  18.313  0.00  0.00    +0.000 A 
ATOM     14  C   UNL     1       4.147   6.541  17.695  0.00  0.00    +0.000 A 
ENDBRANCH   1  13
BRANCH   2  15
ATOM     15  O   UNL     1       2.150   6.066  21.203  0.00  0.00    +0.000 OA
ATOM     16  H   UNL     1       2.157   6.311  22.144  0.00  0.00    +0.000 HD
ENDBRANCH   2  15
BRANCH   4  17
ATOM     17  C   UNL     1       0.197  10.488  21.359  0.00  0.00    +0.000 C 
ATOM     18  O   UNL     1      -0.499  11.319  20.809  0.00  0.00    +0.000 OA
BRANCH  17  19
ATOM     19  O   UNL     1       0.401  10.461  22.694  0.00  0.00    +0.000 OA
ATOM     20  H   UNL     1      -0.107  11.113  23.210  0.00  0.00    +0.000 HD
ENDBRANCH  17  19
ENDBRANCH   4  17
BRANCH   6  21
ATOM     21  O   UNL     1       2.133   8.893  17.235  0.00  0.00    +0.000 OA
ATOM     22  H   UNL     1       1.307   9.044  16.746  0.00  0.00    +0.000 HD
ENDBRANCH   6  21
TORSDOF 5
ENDMDL
MODEL 5
REMARK VINA RESULT:      -7.0      0.107      2.760
REMARK  Name = 
REMARK  7 active torsions:
REMARK  status: ('A' for Active; 'I' for Inactive)
REMARK    1  A    between atoms: C_1  and  C_2
REMARK    2  A    between atoms: C_4  and  C_5
REMARK    3  A    between atoms: C_7  and  C_8
REMARK    4  A    between atoms: C_9  and  O_10
REMARK    5  A    between atoms: C_12  and  C_13
REMARK    6  A    between atoms: C_13  and  O_15
REMARK    7  A    between atoms: C_17  and  O_18
REMARK                            x       y       z     vdW  Elec       q    Type
REMARK                         _______ _______ _______ _____ _____    ______ ____
ROOT
ATOM      1  C   UNL     1       2.205   7.369  19.113  0.00  0.00    +0.000 A 
ATOM      2  C   UNL     1       1.834   7.203  20.469  0.00  0.00    +0.000 A 
ATOM      3  C   UNL     1       1.154   8.187  21.197  0.00  0.00    +0.000 A 
ATOM      4  C   UNL     1       0.843   9.403  20.595  0.00  0.00    +0.000 A 
ATOM      5  C   UNL     1       1.214   9.626  19.269  0.00  0.00    +0.000 A 
ATOM      6  C   UNL     1       1.865   8.622  18.544  0.00  0.00    +0.000 A 
ENDROOT
BRANCH   1  13
ATOM      7  C   UNL     1       2.482   2.609  17.461  0.00  0.00    +0.000 C 
ATOM      8  C   UNL     1       3.045   4.001  17.468  0.00  0.00    +0.000 A 
ATOM      9  C   UNL     1       4.241   4.301  16.812  0.00  0.00    +0.000 A 
ATOM     10  C   UNL     1       4.795   5.578  16.913  0.00  0.00    +0.000 A 
ATOM     11  C   UNL     1       6.043   5.947  16.168  0.00  0.00    +0.000 C 
ATOM     12  C   UNL     1       4.159   6.544  17.713  0.00  0.00    +0.000 A 
ATOM     13  C   UNL     1       2.917   6.307  18.331  0.00  0.00    +0.000 A 
ATOM     14  C   UNL     1       2.380   5.014  18.173  0.00  0.00    +0.000 A 
ENDBRANCH   1  13
BRANCH   2  15
ATOM     15  O   UNL     1       2.136   6.089  21.215  0.00  0.00    +0.000 OA
ATOM     16  H   UNL     1       2.408   6.380  22.102  0.00  0.00    +0.000 HD
ENDBRANCH   2  15
BRANCH   4  17
ATOM     17  C   UNL     1       0.180  10.511  21.324  0.00  0.00    +0.000 C 
ATOM     18  O   UNL     1      -0.537  11.320  20.766  0.00  0.00    +0.000 OA
BRANCH  17  19
ATOM     19  O   UNL     1       0.402  10.514  22.655  0.00  0.00    +0.000 OA
ATOM     20  H   UNL     1       1.253  10.895  22.940  0.00  0.00    +0.000 HD
ENDBRANCH  17  19
ENDBRANCH   4  17
BRANCH   6  21
ATOM     21  O   UNL     1       2.156   8.890  17.228  0.00  0.00    +0.000 OA
ATOM     22  H   UNL     1       1.401   8.646  16.666  0.00  0.00    +0.000 HD
ENDBRANCH   6  21
TORSDOF 5
ENDMDL
MODEL 6
REMARK VINA RESULT:      -7.0      3.267      6.948
REMARK  Name = 
REMARK  7 active torsions:
REMARK  status: ('A' for Active; 'I' for Inactive)
REMARK    1  A    between atoms: C_1  and  C_2
REMARK    2  A    between atoms: C_4  and  C_5
REMARK    3  A    between atoms: C_7  and  C_8
REMARK    4  A    between atoms: C_9  and  O_10
REMARK    5  A    between atoms: C_12  and  C_13
REMARK    6  A    between atoms: C_13  and  O_15
REMARK    7  A    between atoms: C_17  and  O_18
REMARK                            x       y       z     vdW  Elec       q    Type
REMARK                         _______ _______ _______ _____ _____    ______ ____
ROOT
ATOM      1  C   UNL     1       4.166   4.983  17.538  0.00  0.00    +0.000 A 
ATOM      2  C   UNL     1       4.663   3.732  17.101  0.00  0.00    +0.000 A 
ATOM      3  C   UNL     1       5.543   3.598  16.020  0.00  0.00    +0.000 A 
ATOM      4  C   UNL     1       5.941   4.726  15.308  0.00  0.00    +0.000 A 
ATOM      5  C   UNL     1       5.455   5.978  15.681  0.00  0.00    +0.000 A 
ATOM      6  C   UNL     1       4.601   6.100  16.782  0.00  0.00    +0.000 A 
ENDROOT
BRANCH   1  13
ATOM      7  C   UNL     1       1.564   7.912  20.719  0.00  0.00    +0.000 C 
ATOM      8  C   UNL     1       1.915   6.533  20.238  0.00  0.00    +0.000 A 
ATOM      9  C   UNL     1       1.442   5.395  20.894  0.00  0.00    +0.000 A 
ATOM     10  C   UNL     1       1.860   4.127  20.488  0.00  0.00    +0.000 A 
ATOM     11  C   UNL     1       1.319   2.885  21.132  0.00  0.00    +0.000 C 
ATOM     12  C   UNL     1       2.792   4.011  19.441  0.00  0.00    +0.000 A 
ATOM     13  C   UNL     1       3.238   5.125  18.706  0.00  0.00    +0.000 A 
ATOM     14  C   UNL     1       2.763   6.381  19.130  0.00  0.00    +0.000 A 
ENDBRANCH   1  13
BRANCH   2  15
ATOM     15  O   UNL     1       4.304   2.528  17.659  0.00  0.00    +0.000 OA
ATOM     16  H   UNL     1       3.342   2.421  17.564  0.00  0.00    +0.000 HD
ENDBRANCH   2  15
BRANCH   4  17
ATOM     17  C   UNL     1       6.821   4.651  14.117  0.00  0.00    +0.000 C 
ATOM     18  O   UNL     1       7.730   5.437  13.929  0.00  0.00    +0.000 OA
BRANCH  17  19
ATOM     19  O   UNL     1       6.556   3.616  13.292  0.00  0.00    +0.000 OA
ATOM     20  H   UNL     1       6.538   3.829  12.340  0.00  0.00    +0.000 HD
ENDBRANCH  17  19
ENDBRANCH   4  17
BRANCH   6  21
ATOM     21  O   UNL     1       4.201   7.370  17.125  0.00  0.00    +0.000 OA
ATOM     22  H   UNL     1       4.531   8.009  16.471  0.00  0.00    +0.000 HD
ENDBRANCH   6  21
TORSDOF 5
ENDMDL
MODEL 7
REMARK VINA RESULT:      -7.0      3.267      7.136
REMARK  Name = 
REMARK  7 active torsions:
REMARK  status: ('A' for Active; 'I' for Inactive)
REMARK    1  A    between atoms: C_1  and  C_2
REMARK    2  A    between atoms: C_4  and  C_5
REMARK    3  A    between atoms: C_7  and  C_8
REMARK    4  A    between atoms: C_9  and  O_10
REMARK    5  A    between atoms: C_12  and  C_13
REMARK    6  A    between atoms: C_13  and  O_15
REMARK    7  A    between atoms: C_17  and  O_18
REMARK                            x       y       z     vdW  Elec       q    Type
REMARK                         _______ _______ _______ _____ _____    ______ ____
ROOT
ATOM      1  C   UNL     1       4.149   4.989  17.530  0.00  0.00    +0.000 A 
ATOM      2  C   UNL     1       4.629   3.734  17.083  0.00  0.00    +0.000 A 
ATOM      3  C   UNL     1       5.515   3.598  16.008  0.00  0.00    +0.000 A 
ATOM      4  C   UNL     1       5.936   4.726  15.309  0.00  0.00    +0.000 A 
ATOM      5  C   UNL     1       5.467   5.982  15.693  0.00  0.00    +0.000 A 
ATOM      6  C   UNL     1       4.607   6.107  16.789  0.00  0.00    +0.000 A 
ENDROOT
BRANCH   1  13
ATOM      7  C   UNL     1       1.345   2.893  21.164  0.00  0.00    +0.000 C 
ATOM      8  C   UNL     1       1.881   4.134  20.510  0.00  0.00    +0.000 A 
ATOM      9  C   UNL     1       1.478   5.404  20.928  0.00  0.00    +0.000 A 
ATOM     10  C   UNL     1       1.914   6.539  20.242  0.00  0.00    +0.000 A 
ATOM     11  C   UNL     1       1.550   7.917  20.707  0.00  0.00    +0.000 C 
ATOM     12  C   UNL     1       2.727   6.386  19.105  0.00  0.00    +0.000 A 
ATOM     13  C   UNL     1       3.215   5.133  18.693  0.00  0.00    +0.000 A 
ATOM     14  C   UNL     1       2.776   4.019  19.436  0.00  0.00    +0.000 A 
ENDBRANCH   1  13
BRANCH   2  15
ATOM     15  O   UNL     1       4.247   2.530  17.626  0.00  0.00    +0.000 OA
ATOM     16  H   UNL     1       3.852   2.699  18.498  0.00  0.00    +0.000 HD
ENDBRANCH   2  15
BRANCH   4  17
ATOM     17  C   UNL     1       6.823   4.649  14.124  0.00  0.00    +0.000 C 
ATOM     18  O   UNL     1       7.728   5.440  13.936  0.00  0.00    +0.000 OA
BRANCH  17  19
ATOM     19  O   UNL     1       6.570   3.607  13.304  0.00  0.00    +0.000 OA
ATOM     20  H   UNL     1       5.681   3.591  12.905  0.00  0.00    +0.000 HD
ENDBRANCH  17  19
ENDBRANCH   4  17
BRANCH   6  21
ATOM     21  O   UNL     1       4.226   7.379  17.143  0.00  0.00    +0.000 OA
ATOM     22  H   UNL     1       4.451   8.002  16.431  0.00  0.00    +0.000 HD
ENDBRANCH   6  21
TORSDOF 5
ENDMDL
MODEL 8
REMARK VINA RESULT:      -7.0      3.672      5.203
REMARK  Name = 
REMARK  7 active torsions:
REMARK  status: ('A' for Active; 'I' for Inactive)
REMARK    1  A    between atoms: C_1  and  C_2
REMARK    2  A    between atoms: C_4  and  C_5
REMARK    3  A    between atoms: C_7  and  C_8
REMARK    4  A    between atoms: C_9  and  O_10
REMARK    5  A    between atoms: C_12  and  C_13
REMARK    6  A    between atoms: C_13  and  O_15
REMARK    7  A    between atoms: C_17  and  O_18
REMARK                            x       y       z     vdW  Elec       q    Type
REMARK                         _______ _______ _______ _____ _____    ______ ____
ROOT
ATOM      1  C   UNL     1       4.162   4.632  18.475  0.00  0.00    +0.000 A 
ATOM      2  C   UNL     1       2.878   5.221  18.569  0.00  0.00    +0.000 A 
ATOM      3  C   UNL     1       1.861   4.703  19.379  0.00  0.00    +0.000 A 
ATOM      4  C   UNL     1       2.085   3.542  20.115  0.00  0.00    +0.000 A 
ATOM      5  C   UNL     1       3.324   2.908  20.032  0.00  0.00    +0.000 A 
ATOM      6  C   UNL     1       4.341   3.455  19.243  0.00  0.00    +0.000 A 
ENDROOT
BRANCH   1  13
ATOM      7  C   UNL     1       6.755   4.649  14.146  0.00  0.00    +0.000 C 
ATOM      8  C   UNL     1       6.500   5.262  15.493  0.00  0.00    +0.000 A 
ATOM      9  C   UNL     1       7.296   6.303  15.977  0.00  0.00    +0.000 A 
ATOM     10  C   UNL     1       7.102   6.790  17.270  0.00  0.00    +0.000 A 
ATOM     11  C   UNL     1       7.898   7.948  17.794  0.00  0.00    +0.000 C 
ATOM     12  C   UNL     1       6.126   6.197  18.091  0.00  0.00    +0.000 A 
ATOM     13  C   UNL     1       5.254   5.199  17.619  0.00  0.00    +0.000 A 
ATOM     14  C   UNL     1       5.466   4.762  16.297  0.00  0.00    +0.000 A 
ENDBRANCH   1  13
BRANCH   2  15
ATOM     15  O   UNL     1       2.487   6.325  17.849  0.00  0.00    +0.000 OA
ATOM     16  H   UNL     1       3.275   6.713  17.432  0.00  0.00    +0.000 HD
ENDBRANCH   2  15
BRANCH   4  17
ATOM     17  C   UNL     1       1.034   2.905  20.944  0.00  0.00    +0.000 C 
ATOM     18  O   UNL     1       1.181   2.700  22.135  0.00  0.00    +0.000 OA
BRANCH  17  19
ATOM     19  O   UNL     1      -0.105   2.620  20.280  0.00  0.00    +0.000 OA
ATOM     20  H   UNL     1      -0.002   2.065  19.485  0.00  0.00    +0.000 HD
ENDBRANCH  17  19
ENDBRANCH   4  17
BRANCH   6  21
ATOM     21  O   UNL     1       5.553   2.806  19.248  0.00  0.00    +0.000 OA
ATOM     22  H   UNL     1       5.999   2.930  18.393  0.00  0.00    +0.000 HD
ENDBRANCH   6  21
TORSDOF 5
ENDMDL
MODEL 9
REMARK VINA RESULT:      -7.0      3.259      6.742
REMARK  Name = 
REMARK  7 active torsions:
REMARK  status: ('A' for Active; 'I' for Inactive)
REMARK    1  A    between atoms: C_1  and  C_2
REMARK    2  A    between atoms: C_4  and  C_5
REMARK    3  A    between atoms: C_7  and  C_8
REMARK    4  A    between atoms: C_9  and  O_10
REMARK    5  A    between atoms: C_12  and  C_13
REMARK    6  A    between atoms: C_13  and  O_15
REMARK    7  A    between atoms: C_17  and  O_18
REMARK                            x       y       z     vdW  Elec       q    Type
REMARK                         _______ _______ _______ _____ _____    ______ ____
ROOT
ATOM      1  C   UNL     1       4.129   5.026  17.532  0.00  0.00    +0.000 A 
ATOM      2  C   UNL     1       4.547   6.156  16.789  0.00  0.00    +0.000 A 
ATOM      3  C   UNL     1       5.390   6.063  15.675  0.00  0.00    +0.000 A 
ATOM      4  C   UNL     1       5.876   4.822  15.274  0.00  0.00    +0.000 A 
ATOM      5  C   UNL     1       5.516   3.682  15.993  0.00  0.00    +0.000 A 
ATOM      6  C   UNL     1       4.648   3.785  17.085  0.00  0.00    +0.000 A 
ENDROOT
BRANCH   1  13
ATOM      7  C   UNL     1       1.528   7.841  20.814  0.00  0.00    +0.000 C 
ATOM      8  C   UNL     1       1.891   6.479  20.295  0.00  0.00    +0.000 A 
ATOM      9  C   UNL     1       1.439   5.319  20.928  0.00  0.00    +0.000 A 
ATOM     10  C   UNL     1       1.868   4.067  20.486  0.00  0.00    +0.000 A 
ATOM     11  C   UNL     1       1.350   2.803  21.105  0.00  0.00    +0.000 C 
ATOM     12  C   UNL     1       2.790   3.989  19.426  0.00  0.00    +0.000 A 
ATOM     13  C   UNL     1       3.213   5.126  18.714  0.00  0.00    +0.000 A 
ATOM     14  C   UNL     1       2.727   6.366  19.175  0.00  0.00    +0.000 A 
ENDBRANCH   1  13
BRANCH   2  15
ATOM     15  O   UNL     1       4.209   7.450  17.106  0.00  0.00    +0.000 OA
ATOM     16  H   UNL     1       4.642   7.682  17.945  0.00  0.00    +0.000 HD
ENDBRANCH   2  15
BRANCH   4  17
ATOM     17  C   UNL     1       6.819   4.658  14.143  0.00  0.00    +0.000 C 
ATOM     18  O   UNL     1       7.761   5.408  13.967  0.00  0.00    +0.000 OA
BRANCH  17  19
ATOM     19  O   UNL     1       6.572   3.587  13.360  0.00  0.00    +0.000 OA
ATOM     20  H   UNL     1       7.019   2.761  13.622  0.00  0.00    +0.000 HD
ENDBRANCH  17  19
ENDBRANCH   4  17
BRANCH   6  21
ATOM     21  O   UNL     1       4.295   2.616  17.715  0.00  0.00    +0.000 OA
ATOM     22  H   UNL     1       5.056   2.011  17.741  0.00  0.00    +0.000 HD
ENDBRANCH   6  21
TORSDOF 5
ENDMDL
