MODEL 1
REMARK VINA RESULT:      -5.5      0.000      0.000
REMARK  Name = 
REMARK  12 active torsions:
REMARK  status: ('A' for Active; 'I' for Inactive)
REMARK    1  A    between atoms: C_1  and  C_2
REMARK    2  A    between atoms: C_2  and  C_3
REMARK    3  A    between atoms: C_3  and  C_4
REMARK    4  A    between atoms: C_4  and  C_5
REMARK    5  A    between atoms: C_5  and  C_6
REMARK    6  A    between atoms: C_6  and  C_7
REMARK    7  A    between atoms: C_7  and  C_8
REMARK    8  A    between atoms: C_8  and  C_10
REMARK    9  A    between atoms: C_10  and  C_12
REMARK   10  A    between atoms: C_12  and  O_13
REMARK   11  A    between atoms: C_12  and  C_14
REMARK   12  A    between atoms: C_14  and  O_15
REMARK                            x       y       z     vdW  Elec       q    Type
REMARK                         _______ _______ _______ _____ _____    ______ ____
ROOT
ATOM      1  C   UNL     1       5.231   4.411  16.994  0.00  0.00    +0.000 C 
ATOM      2  O   UNL     1       5.618   3.929  15.937  0.00  0.00    +0.000 OA
ENDROOT
BRANCH   1   3
ATOM      3  C   UNL     1       6.228   4.556  18.121  0.00  0.00    +0.000 C 
ATOM      4  O   UNL     1       5.970   4.059  19.210  0.00  0.00    +0.000 OA
BRANCH   3   5
ATOM      5  C   UNL     1       7.504   5.310  17.793  0.00  0.00    +0.000 C 
BRANCH   5   6
ATOM      6  O   UNL     1       7.445   6.036  16.569  0.00  0.00    +0.000 OA
ATOM      7  H   UNL     1       8.155   6.709  16.592  0.00  0.00    +0.000 HD
ENDBRANCH   5   6
BRANCH   5   8
ATOM      8  C   UNL     1       7.869   6.247  18.948  0.00  0.00    +0.000 C 
BRANCH   8   9
ATOM      9  O   UNL     1       8.019   5.529  20.174  0.00  0.00    +0.000 OA
ATOM     10  H   UNL     1       7.408   4.770  20.162  0.00  0.00    +0.000 HD
ENDBRANCH   8   9
ENDBRANCH   5   8
ENDBRANCH   3   5
ENDBRANCH   1   3
BRANCH   1  11
ATOM     11  C   UNL     1       3.822   4.857  17.301  0.00  0.00    +0.000 C 
BRANCH  11  12
ATOM     12  C   UNL     1       2.857   3.671  17.329  0.00  0.00    +0.000 C 
BRANCH  12  13
ATOM     13  C   UNL     1       1.467   4.083  17.800  0.00  0.00    +0.000 C 
BRANCH  13  14
ATOM     14  C   UNL     1       1.484   4.426  19.288  0.00  0.00    +0.000 C 
BRANCH  14  15
ATOM     15  C   UNL     1       0.811   3.332  20.115  0.00  0.00    +0.000 C 
BRANCH  15  17
ATOM     16  C   UNL     1       2.990   2.600  21.130  0.00  0.00    +0.000 C 
ATOM     17  C   UNL     1       1.573   3.072  21.412  0.00  0.00    +0.000 C 
ENDBRANCH  15  17
ENDBRANCH  14  15
ENDBRANCH  13  14
ENDBRANCH  12  13
ENDBRANCH  11  12
ENDBRANCH   1  11
TORSDOF 11
ENDMDL
MODEL 2
REMARK VINA RESULT:      -5.5      1.511      2.819
REMARK  Name = 
REMARK  12 active torsions:
REMARK  status: ('A' for Active; 'I' for Inactive)
REMARK    1  A    between atoms: C_1  and  C_2
REMARK    2  A    between atoms: C_2  and  C_3
REMARK    3  A    between atoms: C_3  and  C_4
REMARK    4  A    between atoms: C_4  and  C_5
REMARK    5  A    between atoms: C_5  and  C_6
REMARK    6  A    between atoms: C_6  and  C_7
REMARK    7  A    between atoms: C_7  and  C_8
REMARK    8  A    between atoms: C_8  and  C_10
REMARK    9  A    between atoms: C_10  and  C_12
REMARK   10  A    between atoms: C_12  and  O_13
REMARK   11  A    between atoms: C_12  and  C_14
REMARK   12  A    between atoms: C_14  and  O_15
REMARK                            x       y       z     vdW  Elec       q    Type
REMARK                         _______ _______ _______ _____ _____    ______ ____
ROOT
ATOM      1  C   UNL     1       6.178   5.404  18.998  0.00  0.00    +0.000 C 
ATOM      2  O   UNL     1       7.094   5.312  19.807  0.00  0.00    +0.000 OA
ENDROOT
BRANCH   1   3
ATOM      3  C   UNL     1       6.477   6.008  17.645  0.00  0.00    +0.000 C 
ATOM      4  O   UNL     1       6.127   7.159  17.419  0.00  0.00    +0.000 OA
BRANCH   3   5
ATOM      5  C   UNL     1       7.220   5.118  16.665  0.00  0.00    +0.000 C 
BRANCH   5   6
ATOM      6  O   UNL     1       7.994   4.098  17.286  0.00  0.00    +0.000 OA
ATOM      7  H   UNL     1       7.500   3.793  18.074  0.00  0.00    +0.000 HD
ENDBRANCH   5   6
BRANCH   5   8
ATOM      8  C   UNL     1       6.233   4.503  15.668  0.00  0.00    +0.000 C 
BRANCH   8   9
ATOM      9  O   UNL     1       6.133   3.088  15.839  0.00  0.00    +0.000 OA
ATOM     10  H   UNL     1       6.839   2.802  16.445  0.00  0.00    +0.000 HD
ENDBRANCH   8   9
ENDBRANCH   5   8
ENDBRANCH   3   5
ENDBRANCH   1   3
BRANCH   1  11
ATOM     11  C   UNL     1       4.745   4.992  19.234  0.00  0.00    +0.000 C 
BRANCH  11  12
ATOM     12  C   UNL     1       4.586   3.472  19.173  0.00  0.00    +0.000 C 
BRANCH  12  13
ATOM     13  C   UNL     1       3.506   3.056  18.181  0.00  0.00    +0.000 C 
BRANCH  13  14
ATOM     14  C   UNL     1       2.467   2.165  18.859  0.00  0.00    +0.000 C 
BRANCH  14  15
ATOM     15  C   UNL     1       1.126   2.883  18.992  0.00  0.00    +0.000 C 
BRANCH  15  17
ATOM     16  C   UNL     1       1.554   2.769  21.465  0.00  0.00    +0.000 C 
ATOM     17  C   UNL     1       1.025   3.622  20.324  0.00  0.00    +0.000 C 
ENDBRANCH  15  17
ENDBRANCH  14  15
ENDBRANCH  13  14
ENDBRANCH  12  13
ENDBRANCH  11  12
ENDBRANCH   1  11
TORSDOF 11
ENDMDL
MODEL 3
REMARK VINA RESULT:      -5.5      1.372      1.956
REMARK  Name = 
REMARK  12 active torsions:
REMARK  status: ('A' for Active; 'I' for Inactive)
REMARK    1  A    between atoms: C_1  and  C_2
REMARK    2  A    between atoms: C_2  and  C_3
REMARK    3  A    between atoms: C_3  and  C_4
REMARK    4  A    between atoms: C_4  and  C_5
REMARK    5  A    between atoms: C_5  and  C_6
REMARK    6  A    between atoms: C_6  and  C_7
REMARK    7  A    between atoms: C_7  and  C_8
REMARK    8  A    between atoms: C_8  and  C_10
REMARK    9  A    between atoms: C_10  and  C_12
REMARK   10  A    between atoms: C_12  and  O_13
REMARK   11  A    between atoms: C_12  and  C_14
REMARK   12  A    between atoms: C_14  and  O_15
REMARK                            x       y       z     vdW  Elec       q    Type
REMARK                         _______ _______ _______ _____ _____    ______ ____
ROOT
ATOM      1  C   UNL     1       5.334   5.785  16.722  0.00  0.00    +0.000 C 
ATOM      2  O   UNL     1       4.827   6.879  16.941  0.00  0.00    +0.000 OA
ENDROOT
BRANCH   1   3
ATOM      3  C   UNL     1       6.837   5.660  16.821  0.00  0.00    +0.000 C 
ATOM      4  O   UNL     1       7.532   6.132  15.930  0.00  0.00    +0.000 OA
BRANCH   3   5
ATOM      5  C   UNL     1       7.370   4.959  18.057  0.00  0.00    +0.000 C 
BRANCH   5   6
ATOM      6  O   UNL     1       8.377   3.991  17.782  0.00  0.00    +0.000 OA
ATOM      7  H   UNL     1       8.755   3.708  18.639  0.00  0.00    +0.000 HD
ENDBRANCH   5   6
BRANCH   5   8
ATOM      8  C   UNL     1       7.888   5.994  19.061  0.00  0.00    +0.000 C 
BRANCH   8   9
ATOM      9  O   UNL     1       7.867   5.483  20.395  0.00  0.00    +0.000 OA
ATOM     10  H   UNL     1       8.786   5.336  20.681  0.00  0.00    +0.000 HD
ENDBRANCH   8   9
ENDBRANCH   5   8
ENDBRANCH   3   5
ENDBRANCH   1   3
BRANCH   1  11
ATOM     11  C   UNL     1       4.593   4.530  16.326  0.00  0.00    +0.000 C 
BRANCH  11  12
ATOM     12  C   UNL     1       4.155   3.732  17.555  0.00  0.00    +0.000 C 
BRANCH  12  13
ATOM     13  C   UNL     1       2.919   4.338  18.211  0.00  0.00    +0.000 C 
BRANCH  13  14
ATOM     14  C   UNL     1       3.235   4.799  19.632  0.00  0.00    +0.000 C 
BRANCH  14  15
ATOM     15  C   UNL     1       1.959   5.141  20.399  0.00  0.00    +0.000 C 
BRANCH  15  17
ATOM     16  C   UNL     1       1.658   2.875  21.441  0.00  0.00    +0.000 C 
ATOM     17  C   UNL     1       1.047   3.922  20.525  0.00  0.00    +0.000 C 
ENDBRANCH  15  17
ENDBRANCH  14  15
ENDBRANCH  13  14
ENDBRANCH  12  13
ENDBRANCH  11  12
ENDBRANCH   1  11
TORSDOF 11
ENDMDL
MODEL 4
REMARK VINA RESULT:      -5.4      1.278      1.697
REMARK  Name = 
REMARK  12 active torsions:
REMARK  status: ('A' for Active; 'I' for Inactive)
REMARK    1  A    between atoms: C_1  and  C_2
REMARK    2  A    between atoms: C_2  and  C_3
REMARK    3  A    between atoms: C_3  and  C_4
REMARK    4  A    between atoms: C_4  and  C_5
REMARK    5  A    between atoms: C_5  and  C_6
REMARK    6  A    between atoms: C_6  and  C_7
REMARK    7  A    between atoms: C_7  and  C_8
REMARK    8  A    between atoms: C_8  and  C_10
REMARK    9  A    between atoms: C_10  and  C_12
REMARK   10  A    between atoms: C_12  and  O_13
REMARK   11  A    between atoms: C_12  and  C_14
REMARK   12  A    between atoms: C_14  and  O_15
REMARK                            x       y       z     vdW  Elec       q    Type
REMARK                         _______ _______ _______ _____ _____    ______ ____
ROOT
ATOM      1  C   UNL     1       5.101   5.955  17.090  0.00  0.00    +0.000 C 
ATOM      2  O   UNL     1       4.564   6.825  16.415  0.00  0.00    +0.000 OA
ENDROOT
BRANCH   1   3
ATOM      3  C   UNL     1       6.592   5.754  16.945  0.00  0.00    +0.000 C 
ATOM      4  O   UNL     1       7.159   6.209  15.959  0.00  0.00    +0.000 OA
BRANCH   3   5
ATOM      5  C   UNL     1       7.278   5.003  18.071  0.00  0.00    +0.000 C 
BRANCH   5   6
ATOM      6  O   UNL     1       8.242   4.054  17.626  0.00  0.00    +0.000 OA
ATOM      7  H   UNL     1       8.474   4.280  16.703  0.00  0.00    +0.000 HD
ENDBRANCH   5   6
BRANCH   5   8
ATOM      8  C   UNL     1       7.920   5.995  19.045  0.00  0.00    +0.000 C 
BRANCH   8   9
ATOM      9  O   UNL     1       7.906   5.496  20.383  0.00  0.00    +0.000 OA
ATOM     10  H   UNL     1       7.536   4.595  20.370  0.00  0.00    +0.000 HD
ENDBRANCH   8   9
ENDBRANCH   5   8
ENDBRANCH   3   5
ENDBRANCH   1   3
BRANCH   1  11
ATOM     11  C   UNL     1       4.401   5.024  18.052  0.00  0.00    +0.000 C 
BRANCH  11  12
ATOM     12  C   UNL     1       3.588   3.965  17.307  0.00  0.00    +0.000 C 
BRANCH  12  13
ATOM     13  C   UNL     1       2.088   4.205  17.442  0.00  0.00    +0.000 C 
BRANCH  13  14
ATOM     14  C   UNL     1       1.718   4.487  18.896  0.00  0.00    +0.000 C 
BRANCH  14  15
ATOM     15  C   UNL     1       0.856   3.366  19.474  0.00  0.00    +0.000 C 
BRANCH  15  17
ATOM     16  C   UNL     1       2.235   3.808  21.527  0.00  0.00    +0.000 C 
ATOM     17  C   UNL     1       1.506   2.753  20.713  0.00  0.00    +0.000 C 
ENDBRANCH  15  17
ENDBRANCH  14  15
ENDBRANCH  13  14
ENDBRANCH  12  13
ENDBRANCH  11  12
ENDBRANCH   1  11
TORSDOF 11
ENDMDL
MODEL 5
REMARK VINA RESULT:      -5.4      1.435      2.461
REMARK  Name = 
REMARK  12 active torsions:
REMARK  status: ('A' for Active; 'I' for Inactive)
REMARK    1  A    between atoms: C_1  and  C_2
REMARK    2  A    between atoms: C_2  and  C_3
REMARK    3  A    between atoms: C_3  and  C_4
REMARK    4  A    between atoms: C_4  and  C_5
REMARK    5  A    between atoms: C_5  and  C_6
REMARK    6  A    between atoms: C_6  and  C_7
REMARK    7  A    between atoms: C_7  and  C_8
REMARK    8  A    between atoms: C_8  and  C_10
REMARK    9  A    between atoms: C_10  and  C_12
REMARK   10  A    between atoms: C_12  and  O_13
REMARK   11  A    between atoms: C_12  and  C_14
REMARK   12  A    between atoms: C_14  and  O_15
REMARK                            x       y       z     vdW  Elec       q    Type
REMARK                         _______ _______ _______ _____ _____    ______ ____
ROOT
ATOM      1  C   UNL     1       5.822   4.717  18.729  0.00  0.00    +0.000 C 
ATOM      2  O   UNL     1       5.796   5.443  19.716  0.00  0.00    +0.000 OA
ENDROOT
BRANCH   1   3
ATOM      3  C   UNL     1       6.976   4.863  17.763  0.00  0.00    +0.000 C 
ATOM      4  O   UNL     1       8.001   4.223  17.962  0.00  0.00    +0.000 OA
BRANCH   3   5
ATOM      5  C   UNL     1       6.751   5.799  16.591  0.00  0.00    +0.000 C 
BRANCH   5   6
ATOM      6  O   UNL     1       7.680   6.876  16.528  0.00  0.00    +0.000 OA
ATOM      7  H   UNL     1       8.490   6.542  16.092  0.00  0.00    +0.000 HD
ENDBRANCH   5   6
BRANCH   5   8
ATOM      8  C   UNL     1       6.768   5.007  15.280  0.00  0.00    +0.000 C 
BRANCH   8   9
ATOM      9  O   UNL     1       7.839   5.425  14.431  0.00  0.00    +0.000 OA
ATOM     10  H   UNL     1       7.562   6.234  13.965  0.00  0.00    +0.000 HD
ENDBRANCH   8   9
ENDBRANCH   5   8
ENDBRANCH   3   5
ENDBRANCH   1   3
BRANCH   1  11
ATOM     11  C   UNL     1       4.779   3.689  18.359  0.00  0.00    +0.000 C 
BRANCH  11  12
ATOM     12  C   UNL     1       3.721   4.283  17.428  0.00  0.00    +0.000 C 
BRANCH  12  13
ATOM     13  C   UNL     1       2.472   4.712  18.192  0.00  0.00    +0.000 C 
BRANCH  13  14
ATOM     14  C   UNL     1       1.339   3.711  17.975  0.00  0.00    +0.000 C 
BRANCH  14  15
ATOM     15  C   UNL     1       1.073   2.897  19.239  0.00  0.00    +0.000 C 
BRANCH  15  17
ATOM     16  C   UNL     1       2.005   2.973  21.571  0.00  0.00    +0.000 C 
ATOM     17  C   UNL     1       1.264   3.746  20.494  0.00  0.00    +0.000 C 
ENDBRANCH  15  17
ENDBRANCH  14  15
ENDBRANCH  13  14
ENDBRANCH  12  13
ENDBRANCH  11  12
ENDBRANCH   1  11
TORSDOF 11
ENDMDL
MODEL 6
REMARK VINA RESULT:      -5.4      1.202      1.983
REMARK  Name = 
REMARK  12 active torsions:
REMARK  status: ('A' for Active; 'I' for Inactive)
REMARK    1  A    between atoms: C_1  and  C_2
REMARK    2  A    between atoms: C_2  and  C_3
REMARK    3  A    between atoms: C_3  and  C_4
REMARK    4  A    between atoms: C_4  and  C_5
REMARK    5  A    between atoms: C_5  and  C_6
REMARK    6  A    between atoms: C_6  and  C_7
REMARK    7  A    between atoms: C_7  and  C_8
REMARK    8  A    between atoms: C_8  and  C_10
REMARK    9  A    between atoms: C_10  and  C_12
REMARK   10  A    between atoms: C_12  and  O_13
REMARK   11  A    between atoms: C_12  and  C_14
REMARK   12  A    between atoms: C_14  and  O_15
REMARK                            x       y       z     vdW  Elec       q    Type
REMARK                         _______ _______ _______ _____ _____    ______ ____
ROOT
ATOM      1  C   UNL     1       5.765   4.522  16.820  0.00  0.00    +0.000 C 
ATOM      2  O   UNL     1       5.540   4.980  15.706  0.00  0.00    +0.000 OA
ENDROOT
BRANCH   1   3
ATOM      3  C   UNL     1       7.114   4.792  17.446  0.00  0.00    +0.000 C 
ATOM      4  O   UNL     1       8.093   4.184  17.031  0.00  0.00    +0.000 OA
BRANCH   3   5
ATOM      5  C   UNL     1       7.143   5.833  18.549  0.00  0.00    +0.000 C 
BRANCH   5   6
ATOM      6  O   UNL     1       7.848   5.418  19.714  0.00  0.00    +0.000 OA
ATOM      7  H   UNL     1       7.501   5.935  20.469  0.00  0.00    +0.000 HD
ENDBRANCH   5   6
BRANCH   5   8
ATOM      8  C   UNL     1       7.728   7.143  18.014  0.00  0.00    +0.000 C 
BRANCH   8   9
ATOM      9  O   UNL     1       7.785   7.145  16.587  0.00  0.00    +0.000 OA
ATOM     10  H   UNL     1       7.911   6.228  16.284  0.00  0.00    +0.000 HD
ENDBRANCH   8   9
ENDBRANCH   5   8
ENDBRANCH   3   5
ENDBRANCH   1   3
BRANCH   1  11
ATOM     11  C   UNL     1       4.819   3.672  17.635  0.00  0.00    +0.000 C 
BRANCH  11  12
ATOM     12  C   UNL     1       3.409   4.266  17.647  0.00  0.00    +0.000 C 
BRANCH  12  13
ATOM     13  C   UNL     1       2.357   3.231  17.263  0.00  0.00    +0.000 C 
BRANCH  13  14
ATOM     14  C   UNL     1       2.028   2.331  18.452  0.00  0.00    +0.000 C 
BRANCH  14  15
ATOM     15  C   UNL     1       0.812   2.849  19.216  0.00  0.00    +0.000 C 
BRANCH  15  17
ATOM     16  C   UNL     1       1.641   4.623  20.791  0.00  0.00    +0.000 C 
ATOM     17  C   UNL     1       1.171   3.184  20.663  0.00  0.00    +0.000 C 
ENDBRANCH  15  17
ENDBRANCH  14  15
ENDBRANCH  13  14
ENDBRANCH  12  13
ENDBRANCH  11  12
ENDBRANCH   1  11
TORSDOF 11
ENDMDL
MODEL 7
REMARK VINA RESULT:      -5.4      1.161      1.947
REMARK  Name = 
REMARK  12 active torsions:
REMARK  status: ('A' for Active; 'I' for Inactive)
REMARK    1  A    between atoms: C_1  and  C_2
REMARK    2  A    between atoms: C_2  and  C_3
REMARK    3  A    between atoms: C_3  and  C_4
REMARK    4  A    between atoms: C_4  and  C_5
REMARK    5  A    between atoms: C_5  and  C_6
REMARK    6  A    between atoms: C_6  and  C_7
REMARK    7  A    between atoms: C_7  and  C_8
REMARK    8  A    between atoms: C_8  and  C_10
REMARK    9  A    between atoms: C_10  and  C_12
REMARK   10  A    between atoms: C_12  and  O_13
REMARK   11  A    between atoms: C_12  and  C_14
REMARK   12  A    between atoms: C_14  and  O_15
REMARK                            x       y       z     vdW  Elec       q    Type
REMARK                         _______ _______ _______ _____ _____    ______ ____
ROOT
ATOM      1  C   UNL     1       4.207   5.074  18.245  0.00  0.00    +0.000 C 
ATOM      2  O   UNL     1       3.666   6.094  18.656  0.00  0.00    +0.000 OA
ENDROOT
BRANCH   1   3
ATOM      3  C   UNL     1       5.431   4.570  18.974  0.00  0.00    +0.000 C 
ATOM      4  O   UNL     1       5.372   3.497  19.562  0.00  0.00    +0.000 OA
BRANCH   3   5
ATOM      5  C   UNL     1       6.665   5.450  18.897  0.00  0.00    +0.000 C 
BRANCH   5   6
ATOM      6  O   UNL     1       7.488   5.390  20.057  0.00  0.00    +0.000 OA
ATOM      7  H   UNL     1       8.070   4.609  19.965  0.00  0.00    +0.000 HD
ENDBRANCH   5   6
BRANCH   5   8
ATOM      8  C   UNL     1       7.480   5.097  17.649  0.00  0.00    +0.000 C 
BRANCH   8   9
ATOM      9  O   UNL     1       7.457   6.159  16.693  0.00  0.00    +0.000 OA
ATOM     10  H   UNL     1       8.299   6.643  16.753  0.00  0.00    +0.000 HD
ENDBRANCH   8   9
ENDBRANCH   5   8
ENDBRANCH   3   5
ENDBRANCH   1   3
BRANCH   1  11
ATOM     11  C   UNL     1       3.780   4.271  17.039  0.00  0.00    +0.000 C 
BRANCH  11  12
ATOM     12  C   UNL     1       2.773   3.187  17.422  0.00  0.00    +0.000 C 
BRANCH  12  13
ATOM     13  C   UNL     1       1.454   3.784  17.901  0.00  0.00    +0.000 C 
BRANCH  13  14
ATOM     14  C   UNL     1       1.035   3.165  19.233  0.00  0.00    +0.000 C 
BRANCH  14  15
ATOM     15  C   UNL     1       0.973   4.218  20.337  0.00  0.00    +0.000 C 
BRANCH  15  17
ATOM     16  C   UNL     1       2.495   2.634  21.555  0.00  0.00    +0.000 C 
ATOM     17  C   UNL     1       2.160   4.091  21.290  0.00  0.00    +0.000 C 
ENDBRANCH  15  17
ENDBRANCH  14  15
ENDBRANCH  13  14
ENDBRANCH  12  13
ENDBRANCH  11  12
ENDBRANCH   1  11
TORSDOF 11
ENDMDL
MODEL 8
REMARK VINA RESULT:      -5.4      1.725      2.982
REMARK  Name = 
REMARK  12 active torsions:
REMARK  status: ('A' for Active; 'I' for Inactive)
REMARK    1  A    between atoms: C_1  and  C_2
REMARK    2  A    between atoms: C_2  and  C_3
REMARK    3  A    between atoms: C_3  and  C_4
REMARK    4  A    between atoms: C_4  and  C_5
REMARK    5  A    between atoms: C_5  and  C_6
REMARK    6  A    between atoms: C_6  and  C_7
REMARK    7  A    between atoms: C_7  and  C_8
REMARK    8  A    between atoms: C_8  and  C_10
REMARK    9  A    between atoms: C_10  and  C_12
REMARK   10  A    between atoms: C_12  and  O_13
REMARK   11  A    between atoms: C_12  and  C_14
REMARK   12  A    between atoms: C_14  and  O_15
REMARK                            x       y       z     vdW  Elec       q    Type
REMARK                         _______ _______ _______ _____ _____    ______ ____
ROOT
ATOM      1  C   UNL     1       6.931   5.112  18.043  0.00  0.00    +0.000 C 
ATOM      2  O   UNL     1       7.879   4.350  18.191  0.00  0.00    +0.000 OA
ENDROOT
BRANCH   1   3
ATOM      3  C   UNL     1       6.897   5.981  16.806  0.00  0.00    +0.000 C 
ATOM      4  O   UNL     1       7.648   6.946  16.738  0.00  0.00    +0.000 OA
BRANCH   3   5
ATOM      5  C   UNL     1       5.924   5.561  15.720  0.00  0.00    +0.000 C 
BRANCH   5   6
ATOM      6  O   UNL     1       5.206   6.644  15.140  0.00  0.00    +0.000 OA
ATOM      7  H   UNL     1       5.851   7.352  14.941  0.00  0.00    +0.000 HD
ENDBRANCH   5   6
BRANCH   5   8
ATOM      8  C   UNL     1       6.663   4.772  14.635  0.00  0.00    +0.000 C 
BRANCH   8   9
ATOM      9  O   UNL     1       7.856   5.441  14.224  0.00  0.00    +0.000 OA
ATOM     10  H   UNL     1       8.193   5.003  13.423  0.00  0.00    +0.000 HD
ENDBRANCH   8   9
ENDBRANCH   5   8
ENDBRANCH   3   5
ENDBRANCH   1   3
BRANCH   1  11
ATOM     11  C   UNL     1       5.783   5.295  19.007  0.00  0.00    +0.000 C 
BRANCH  11  12
ATOM     12  C   UNL     1       4.757   4.169  18.870  0.00  0.00    +0.000 C 
BRANCH  12  13
ATOM     13  C   UNL     1       3.331   4.706  18.821  0.00  0.00    +0.000 C 
BRANCH  13  14
ATOM     14  C   UNL     1       2.821   5.007  20.229  0.00  0.00    +0.000 C 
BRANCH  14  15
ATOM     15  C   UNL     1       1.334   4.686  20.358  0.00  0.00    +0.000 C 
BRANCH  15  17
ATOM     16  C   UNL     1       2.124   2.685  21.656  0.00  0.00    +0.000 C 
ATOM     17  C   UNL     1       1.112   3.203  20.648  0.00  0.00    +0.000 C 
ENDBRANCH  15  17
ENDBRANCH  14  15
ENDBRANCH  13  14
ENDBRANCH  12  13
ENDBRANCH  11  12
ENDBRANCH   1  11
TORSDOF 11
ENDMDL
MODEL 9
REMARK VINA RESULT:      -5.4      1.426      2.281
REMARK  Name = 
REMARK  12 active torsions:
REMARK  status: ('A' for Active; 'I' for Inactive)
REMARK    1  A    between atoms: C_1  and  C_2
REMARK    2  A    between atoms: C_2  and  C_3
REMARK    3  A    between atoms: C_3  and  C_4
REMARK    4  A    between atoms: C_4  and  C_5
REMARK    5  A    between atoms: C_5  and  C_6
REMARK    6  A    between atoms: C_6  and  C_7
REMARK    7  A    between atoms: C_7  and  C_8
REMARK    8  A    between atoms: C_8  and  C_10
REMARK    9  A    between atoms: C_10  and  C_12
REMARK   10  A    between atoms: C_12  and  O_13
REMARK   11  A    between atoms: C_12  and  C_14
REMARK   12  A    between atoms: C_14  and  O_15
REMARK                            x       y       z     vdW  Elec       q    Type
REMARK                         _______ _______ _______ _____ _____    ______ ____
ROOT
ATOM      1  C   UNL     1       6.855   5.245  16.149  0.00  0.00    +0.000 C 
ATOM      2  O   UNL     1       7.537   5.289  15.132  0.00  0.00    +0.000 OA
ENDROOT
BRANCH   1   3
ATOM      3  C   UNL     1       7.552   4.997  17.467  0.00  0.00    +0.000 C 
ATOM      4  O   UNL     1       8.271   4.013  17.583  0.00  0.00    +0.000 OA
BRANCH   3   5
ATOM      5  C   UNL     1       7.308   6.027  18.555  0.00  0.00    +0.000 C 
BRANCH   5   6
ATOM      6  O   UNL     1       7.876   5.680  19.814  0.00  0.00    +0.000 OA
ATOM      7  H   UNL     1       7.327   4.966  20.197  0.00  0.00    +0.000 HD
ENDBRANCH   5   6
BRANCH   5   8
ATOM      8  C   UNL     1       7.822   7.397  18.102  0.00  0.00    +0.000 C 
BRANCH   8   9
ATOM      9  O   UNL     1       8.746   7.945  19.043  0.00  0.00    +0.000 OA
ATOM     10  H   UNL     1       9.362   8.528  18.564  0.00  0.00    +0.000 HD
ENDBRANCH   8   9
ENDBRANCH   5   8
ENDBRANCH   3   5
ENDBRANCH   1   3
BRANCH   1  11
ATOM     11  C   UNL     1       5.353   5.386  16.214  0.00  0.00    +0.000 C 
BRANCH  11  12
ATOM     12  C   UNL     1       4.689   4.074  16.632  0.00  0.00    +0.000 C 
BRANCH  12  13
ATOM     13  C   UNL     1       3.702   4.279  17.777  0.00  0.00    +0.000 C 
BRANCH  13  14
ATOM     14  C   UNL     1       2.331   3.713  17.413  0.00  0.00    +0.000 C 
BRANCH  14  15
ATOM     15  C   UNL     1       2.059   2.406  18.154  0.00  0.00    +0.000 C 
BRANCH  15  17
ATOM     16  C   UNL     1       1.012   3.311  20.251  0.00  0.00    +0.000 C 
ATOM     17  C   UNL     1       0.782   2.500  18.988  0.00  0.00    +0.000 C 
ENDBRANCH  15  17
ENDBRANCH  14  15
ENDBRANCH  13  14
ENDBRANCH  12  13
ENDBRANCH  11  12
ENDBRANCH   1  11
TORSDOF 11
ENDMDL
