MODEL 1
REMARK VINA RESULT:      -6.4      0.000      0.000
REMARK  Name = 
REMARK  4 active torsions:
REMARK  status: ('A' for Active; 'I' for Inactive)
REMARK    1  A    between atoms: C_1  and  C_2
REMARK    2  A    between atoms: C_7  and  C_8
REMARK    3  A    between atoms: C_11  and  S_12
REMARK    4  A    between atoms: N_13  and  C_14
REMARK                            x       y       z     vdW  Elec       q    Type
REMARK                         _______ _______ _______ _____ _____    ______ ____
ROOT
ATOM      1  C   UNL     1       4.585   4.615  18.996  0.00  0.00    +0.000 A 
ATOM      2  N   UNL     1       5.721   4.037  19.357  0.00  0.00    +0.000 NA
ATOM      3  N   UNL     1       6.773   4.767  18.866  0.00  0.00    +0.000 NA
ATOM      4  C   UNL     1       6.271   5.785  18.216  0.00  0.00    +0.000 A 
ATOM      5  N   UNL     1       4.906   5.764  18.290  0.00  0.00    +0.000 N 
ATOM      6  C   UNL     1       3.992   6.756  17.785  0.00  0.00    +0.000 C 
ENDROOT
BRANCH   1  13
ATOM      7  C   UNL     1       2.986   3.084  16.966  0.00  0.00    +0.000 C 
ATOM      8  C   UNL     1       2.473   3.391  18.350  0.00  0.00    +0.000 A 
ATOM      9  C   UNL     1       1.171   2.965  18.680  0.00  0.00    +0.000 A 
ATOM     10  C   UNL     1       0.634   3.208  19.943  0.00  0.00    +0.000 A 
ATOM     11  C   UNL     1       1.378   3.905  20.884  0.00  0.00    +0.000 A 
ATOM     12  C   UNL     1       2.655   4.366  20.558  0.00  0.00    +0.000 A 
ATOM     13  C   UNL     1       3.238   4.103  19.305  0.00  0.00    +0.000 A 
ENDBRANCH   1  13
BRANCH   4  14
ATOM     14  S   UNL     1       7.202   6.974  17.383  0.00  0.00    +0.000 S 
ATOM     15  H   UNL     1       7.267   6.323  16.213  0.00  0.00    +0.000 HD
ENDBRANCH   4  14
TORSDOF 2
ENDMDL
MODEL 2
REMARK VINA RESULT:      -6.2      1.523      2.040
REMARK  Name = 
REMARK  4 active torsions:
REMARK  status: ('A' for Active; 'I' for Inactive)
REMARK    1  A    between atoms: C_1  and  C_2
REMARK    2  A    between atoms: C_7  and  C_8
REMARK    3  A    between atoms: C_11  and  S_12
REMARK    4  A    between atoms: N_13  and  C_14
REMARK                            x       y       z     vdW  Elec       q    Type
REMARK                         _______ _______ _______ _____ _____    ______ ____
ROOT
ATOM      1  C   UNL     1       4.861   4.382  19.051  0.00  0.00    +0.000 A 
ATOM      2  N   UNL     1       5.986   4.764  19.638  0.00  0.00    +0.000 NA
ATOM      3  N   UNL     1       6.956   4.935  18.683  0.00  0.00    +0.000 NA
ATOM      4  C   UNL     1       6.413   4.662  17.524  0.00  0.00    +0.000 A 
ATOM      5  N   UNL     1       5.094   4.341  17.685  0.00  0.00    +0.000 N 
ATOM      6  C   UNL     1       4.131   4.069  16.648  0.00  0.00    +0.000 C 
ENDROOT
BRANCH   1  13
ATOM      7  C   UNL     1       2.694   6.432  19.397  0.00  0.00    +0.000 C 
ATOM      8  C   UNL     1       2.584   5.027  19.932  0.00  0.00    +0.000 A 
ATOM      9  C   UNL     1       1.423   4.684  20.653  0.00  0.00    +0.000 A 
ATOM     10  C   UNL     1       1.251   3.402  21.170  0.00  0.00    +0.000 A 
ATOM     11  C   UNL     1       2.247   2.452  21.000  0.00  0.00    +0.000 A 
ATOM     12  C   UNL     1       3.419   2.788  20.320  0.00  0.00    +0.000 A 
ATOM     13  C   UNL     1       3.605   4.063  19.754  0.00  0.00    +0.000 A 
ENDBRANCH   1  13
BRANCH   4  14
ATOM     14  S   UNL     1       7.249   4.696  16.016  0.00  0.00    +0.000 S 
ATOM     15  H   UNL     1       7.984   3.595  16.225  0.00  0.00    +0.000 HD
ENDBRANCH   4  14
TORSDOF 2
ENDMDL
MODEL 3
REMARK VINA RESULT:      -6.2      1.479      1.546
REMARK  Name = 
REMARK  4 active torsions:
REMARK  status: ('A' for Active; 'I' for Inactive)
REMARK    1  A    between atoms: C_1  and  C_2
REMARK    2  A    between atoms: C_7  and  C_8
REMARK    3  A    between atoms: C_11  and  S_12
REMARK    4  A    between atoms: N_13  and  C_14
REMARK                            x       y       z     vdW  Elec       q    Type
REMARK                         _______ _______ _______ _____ _____    ______ ____
ROOT
ATOM      1  C   UNL     1       4.852   4.181  18.759  0.00  0.00    +0.000 A 
ATOM      2  N   UNL     1       6.023   4.324  19.364  0.00  0.00    +0.000 NA
ATOM      3  N   UNL     1       6.992   4.552  18.420  0.00  0.00    +0.000 NA
ATOM      4  C   UNL     1       6.405   4.551  17.251  0.00  0.00    +0.000 A 
ATOM      5  N   UNL     1       5.059   4.358  17.399  0.00  0.00    +0.000 N 
ATOM      6  C   UNL     1       4.057   4.384  16.365  0.00  0.00    +0.000 C 
ENDROOT
BRANCH   1  13
ATOM      7  C   UNL     1       3.591   1.459  18.612  0.00  0.00    +0.000 C 
ATOM      8  C   UNL     1       2.970   2.609  19.364  0.00  0.00    +0.000 A 
ATOM      9  C   UNL     1       1.728   2.394  19.991  0.00  0.00    +0.000 A 
ATOM     10  C   UNL     1       1.099   3.410  20.708  0.00  0.00    +0.000 A 
ATOM     11  C   UNL     1       1.688   4.663  20.785  0.00  0.00    +0.000 A 
ATOM     12  C   UNL     1       2.901   4.902  20.137  0.00  0.00    +0.000 A 
ATOM     13  C   UNL     1       3.578   3.886  19.438  0.00  0.00    +0.000 A 
ENDBRANCH   1  13
BRANCH   4  14
ATOM     14  S   UNL     1       7.217   4.759  15.744  0.00  0.00    +0.000 S 
ATOM     15  H   UNL     1       6.215   4.317  14.970  0.00  0.00    +0.000 HD
ENDBRANCH   4  14
TORSDOF 2
ENDMDL
MODEL 4
REMARK VINA RESULT:      -6.2      0.862      1.874
REMARK  Name = 
REMARK  4 active torsions:
REMARK  status: ('A' for Active; 'I' for Inactive)
REMARK    1  A    between atoms: C_1  and  C_2
REMARK    2  A    between atoms: C_7  and  C_8
REMARK    3  A    between atoms: C_11  and  S_12
REMARK    4  A    between atoms: N_13  and  C_14
REMARK                            x       y       z     vdW  Elec       q    Type
REMARK                         _______ _______ _______ _____ _____    ______ ____
ROOT
ATOM      1  C   UNL     1       4.891   4.698  18.654  0.00  0.00    +0.000 A 
ATOM      2  N   UNL     1       5.932   4.333  19.388  0.00  0.00    +0.000 NA
ATOM      3  N   UNL     1       6.981   5.180  19.133  0.00  0.00    +0.000 NA
ATOM      4  C   UNL     1       6.569   6.056  18.253  0.00  0.00    +0.000 A 
ATOM      5  N   UNL     1       5.258   5.827  17.938  0.00  0.00    +0.000 N 
ATOM      6  C   UNL     1       4.417   6.624  17.082  0.00  0.00    +0.000 C 
ENDROOT
BRANCH   1  13
ATOM      7  C   UNL     1       2.529   5.737  20.192  0.00  0.00    +0.000 C 
ATOM      8  C   UNL     1       2.475   4.483  19.358  0.00  0.00    +0.000 A 
ATOM      9  C   UNL     1       1.268   3.757  19.335  0.00  0.00    +0.000 A 
ATOM     10  C   UNL     1       1.144   2.592  18.581  0.00  0.00    +0.000 A 
ATOM     11  C   UNL     1       2.231   2.119  17.861  0.00  0.00    +0.000 A 
ATOM     12  C   UNL     1       3.445   2.808  17.904  0.00  0.00    +0.000 A 
ATOM     13  C   UNL     1       3.589   4.007  18.626  0.00  0.00    +0.000 A 
ENDBRANCH   1  13
BRANCH   4  14
ATOM     14  S   UNL     1       7.546   7.310  17.584  0.00  0.00    +0.000 S 
ATOM     15  H   UNL     1       7.214   8.252  18.478  0.00  0.00    +0.000 HD
ENDBRANCH   4  14
TORSDOF 2
ENDMDL
MODEL 5
REMARK VINA RESULT:      -6.1      1.648      2.623
REMARK  Name = 
REMARK  4 active torsions:
REMARK  status: ('A' for Active; 'I' for Inactive)
REMARK    1  A    between atoms: C_1  and  C_2
REMARK    2  A    between atoms: C_7  and  C_8
REMARK    3  A    between atoms: C_11  and  S_12
REMARK    4  A    between atoms: N_13  and  C_14
REMARK                            x       y       z     vdW  Elec       q    Type
REMARK                         _______ _______ _______ _____ _____    ______ ____
ROOT
ATOM      1  C   UNL     1       4.768   5.322  17.158  0.00  0.00    +0.000 A 
ATOM      2  N   UNL     1       4.938   5.845  15.952  0.00  0.00    +0.000 NA
ATOM      3  N   UNL     1       6.015   6.694  15.977  0.00  0.00    +0.000 NA
ATOM      4  C   UNL     1       6.496   6.677  17.194  0.00  0.00    +0.000 A 
ATOM      5  N   UNL     1       5.779   5.811  17.972  0.00  0.00    +0.000 N 
ATOM      6  C   UNL     1       6.048   5.442  19.338  0.00  0.00    +0.000 C 
ENDROOT
BRANCH   1  13
ATOM      7  C   UNL     1       2.162   6.313  18.273  0.00  0.00    +0.000 C 
ATOM      8  C   UNL     1       2.462   4.850  18.072  0.00  0.00    +0.000 A 
ATOM      9  C   UNL     1       1.482   3.916  18.460  0.00  0.00    +0.000 A 
ATOM     10  C   UNL     1       1.689   2.548  18.297  0.00  0.00    +0.000 A 
ATOM     11  C   UNL     1       2.889   2.091  17.771  0.00  0.00    +0.000 A 
ATOM     12  C   UNL     1       3.884   3.003  17.417  0.00  0.00    +0.000 A 
ATOM     13  C   UNL     1       3.689   4.392  17.534  0.00  0.00    +0.000 A 
ENDBRANCH   1  13
BRANCH   4  14
ATOM     14  S   UNL     1       7.837   7.618  17.733  0.00  0.00    +0.000 S 
ATOM     15  H   UNL     1       7.178   8.285  18.691  0.00  0.00    +0.000 HD
ENDBRANCH   4  14
TORSDOF 2
ENDMDL
MODEL 6
REMARK VINA RESULT:      -6.1      2.905      4.763
REMARK  Name = 
REMARK  4 active torsions:
REMARK  status: ('A' for Active; 'I' for Inactive)
REMARK    1  A    between atoms: C_1  and  C_2
REMARK    2  A    between atoms: C_7  and  C_8
REMARK    3  A    between atoms: C_11  and  S_12
REMARK    4  A    between atoms: N_13  and  C_14
REMARK                            x       y       z     vdW  Elec       q    Type
REMARK                         _______ _______ _______ _____ _____    ______ ____
ROOT
ATOM      1  C   UNL     1       4.742   3.931  19.346  0.00  0.00    +0.000 A 
ATOM      2  N   UNL     1       5.021   2.690  19.718  0.00  0.00    +0.000 NA
ATOM      3  N   UNL     1       3.967   2.187  20.437  0.00  0.00    +0.000 NA
ATOM      4  C   UNL     1       3.053   3.122  20.493  0.00  0.00    +0.000 A 
ATOM      5  N   UNL     1       3.465   4.226  19.799  0.00  0.00    +0.000 N 
ATOM      6  C   UNL     1       2.710   5.427  19.547  0.00  0.00    +0.000 C 
ENDROOT
BRANCH   1  13
ATOM      7  C   UNL     1       4.521   4.217  16.365  0.00  0.00    +0.000 C 
ATOM      8  C   UNL     1       5.558   4.944  17.182  0.00  0.00    +0.000 A 
ATOM      9  C   UNL     1       6.479   5.764  16.501  0.00  0.00    +0.000 A 
ATOM     10  C   UNL     1       7.460   6.470  17.192  0.00  0.00    +0.000 A 
ATOM     11  C   UNL     1       7.554   6.347  18.571  0.00  0.00    +0.000 A 
ATOM     12  C   UNL     1       6.672   5.510  19.256  0.00  0.00    +0.000 A 
ATOM     13  C   UNL     1       5.647   4.813  18.589  0.00  0.00    +0.000 A 
ENDBRANCH   1  13
BRANCH   4  14
ATOM     14  S   UNL     1       1.550   2.977  21.327  0.00  0.00    +0.000 S 
ATOM     15  H   UNL     1       1.650   4.122  22.017  0.00  0.00    +0.000 HD
ENDBRANCH   4  14
TORSDOF 2
ENDMDL
MODEL 7
REMARK VINA RESULT:      -6.0      2.927      5.168
REMARK  Name = 
REMARK  4 active torsions:
REMARK  status: ('A' for Active; 'I' for Inactive)
REMARK    1  A    between atoms: C_1  and  C_2
REMARK    2  A    between atoms: C_7  and  C_8
REMARK    3  A    between atoms: C_11  and  S_12
REMARK    4  A    between atoms: N_13  and  C_14
REMARK                            x       y       z     vdW  Elec       q    Type
REMARK                         _______ _______ _______ _____ _____    ______ ____
ROOT
ATOM      1  C   UNL     1       3.923   4.436  18.717  0.00  0.00    +0.000 A 
ATOM      2  N   UNL     1       3.052   5.414  18.923  0.00  0.00    +0.000 NA
ATOM      3  N   UNL     1       2.183   5.040  19.917  0.00  0.00    +0.000 NA
ATOM      4  C   UNL     1       2.534   3.844  20.312  0.00  0.00    +0.000 A 
ATOM      5  N   UNL     1       3.638   3.425  19.622  0.00  0.00    +0.000 N 
ATOM      6  C   UNL     1       4.383   2.209  19.827  0.00  0.00    +0.000 C 
ENDROOT
BRANCH   1  13
ATOM      7  C   UNL     1       6.686   5.421  19.360  0.00  0.00    +0.000 C 
ATOM      8  C   UNL     1       6.292   4.926  17.992  0.00  0.00    +0.000 A 
ATOM      9  C   UNL     1       7.262   4.964  16.971  0.00  0.00    +0.000 A 
ATOM     10  C   UNL     1       6.969   4.516  15.685  0.00  0.00    +0.000 A 
ATOM     11  C   UNL     1       5.696   4.050  15.392  0.00  0.00    +0.000 A 
ATOM     12  C   UNL     1       4.713   4.041  16.383  0.00  0.00    +0.000 A 
ATOM     13  C   UNL     1       4.990   4.451  17.701  0.00  0.00    +0.000 A 
ENDBRANCH   1  13
BRANCH   4  14
ATOM     14  S   UNL     1       1.715   2.930  21.523  0.00  0.00    +0.000 S 
ATOM     15  H   UNL     1       1.681   3.901  22.447  0.00  0.00    +0.000 HD
ENDBRANCH   4  14
TORSDOF 2
ENDMDL
MODEL 8
REMARK VINA RESULT:      -5.9      3.015      4.901
REMARK  Name = 
REMARK  4 active torsions:
REMARK  status: ('A' for Active; 'I' for Inactive)
REMARK    1  A    between atoms: C_1  and  C_2
REMARK    2  A    between atoms: C_7  and  C_8
REMARK    3  A    between atoms: C_11  and  S_12
REMARK    4  A    between atoms: N_13  and  C_14
REMARK                            x       y       z     vdW  Elec       q    Type
REMARK                         _______ _______ _______ _____ _____    ______ ____
ROOT
ATOM      1  C   UNL     1       4.207   3.764  18.377  0.00  0.00    +0.000 A 
ATOM      2  N   UNL     1       4.904   3.294  19.402  0.00  0.00    +0.000 NA
ATOM      3  N   UNL     1       4.039   2.876  20.381  0.00  0.00    +0.000 NA
ATOM      4  C   UNL     1       2.824   3.089  19.943  0.00  0.00    +0.000 A 
ATOM      5  N   UNL     1       2.862   3.612  18.680  0.00  0.00    +0.000 N 
ATOM      6  C   UNL     1       1.741   3.897  17.822  0.00  0.00    +0.000 C 
ENDROOT
BRANCH   1  13
ATOM      7  C   UNL     1       4.077   6.710  17.812  0.00  0.00    +0.000 C 
ATOM      8  C   UNL     1       4.719   5.724  16.870  0.00  0.00    +0.000 A 
ATOM      9  C   UNL     1       5.247   6.215  15.660  0.00  0.00    +0.000 A 
ATOM     10  C   UNL     1       5.860   5.362  14.745  0.00  0.00    +0.000 A 
ATOM     11  C   UNL     1       5.930   4.003  15.011  0.00  0.00    +0.000 A 
ATOM     12  C   UNL     1       5.378   3.496  16.190  0.00  0.00    +0.000 A 
ATOM     13  C   UNL     1       4.787   4.338  17.150  0.00  0.00    +0.000 A 
ENDBRANCH   1  13
BRANCH   4  14
ATOM     14  S   UNL     1       1.387   2.760  20.838  0.00  0.00    +0.000 S 
ATOM     15  H   UNL     1       1.582   1.439  20.957  0.00  0.00    +0.000 HD
ENDBRANCH   4  14
TORSDOF 2
ENDMDL
MODEL 9
REMARK VINA RESULT:      -5.9      2.701      5.009
REMARK  Name = 
REMARK  4 active torsions:
REMARK  status: ('A' for Active; 'I' for Inactive)
REMARK    1  A    between atoms: C_1  and  C_2
REMARK    2  A    between atoms: C_7  and  C_8
REMARK    3  A    between atoms: C_11  and  S_12
REMARK    4  A    between atoms: N_13  and  C_14
REMARK                            x       y       z     vdW  Elec       q    Type
REMARK                         _______ _______ _______ _____ _____    ______ ____
ROOT
ATOM      1  C   UNL     1       4.535   4.483  18.140  0.00  0.00    +0.000 A 
ATOM      2  N   UNL     1       4.447   3.393  17.391  0.00  0.00    +0.000 NA
ATOM      3  N   UNL     1       3.247   2.775  17.635  0.00  0.00    +0.000 NA
ATOM      4  C   UNL     1       2.612   3.495  18.525  0.00  0.00    +0.000 A 
ATOM      5  N   UNL     1       3.353   4.596  18.856  0.00  0.00    +0.000 N 
ATOM      6  C   UNL     1       2.965   5.676  19.726  0.00  0.00    +0.000 C 
ENDROOT
BRANCH   1  13
ATOM      7  C   UNL     1       4.867   6.699  16.141  0.00  0.00    +0.000 C 
ATOM      8  C   UNL     1       5.866   6.430  17.237  0.00  0.00    +0.000 A 
ATOM      9  C   UNL     1       7.017   7.239  17.294  0.00  0.00    +0.000 A 
ATOM     10  C   UNL     1       7.979   7.051  18.284  0.00  0.00    +0.000 A 
ATOM     11  C   UNL     1       7.820   6.035  19.215  0.00  0.00    +0.000 A 
ATOM     12  C   UNL     1       6.702   5.201  19.148  0.00  0.00    +0.000 A 
ATOM     13  C   UNL     1       5.695   5.391  18.183  0.00  0.00    +0.000 A 
ENDBRANCH   1  13
BRANCH   4  14
ATOM     14  S   UNL     1       1.068   3.102  19.185  0.00  0.00    +0.000 S 
ATOM     15  H   UNL     1       1.015   1.850  18.710  0.00  0.00    +0.000 HD
ENDBRANCH   4  14
TORSDOF 2
ENDMDL
