MODEL 1
REMARK VINA RESULT:      -8.8      0.000      0.000
REMARK  Name = 
REMARK  4 active torsions:
REMARK  status: ('A' for Active; 'I' for Inactive)
REMARK    1  A    between atoms: C_1  and  N_2
REMARK    2  A    between atoms: N_5  and  C_6
REMARK    3  A    between atoms: C_11  and  N_12
REMARK    4  A    between atoms: C_13  and  C_15
REMARK                            x       y       z     vdW  Elec       q    Type
REMARK                         _______ _______ _______ _____ _____    ______ ____
ROOT
ATOM      1  C   UNL     1       3.930   4.645  17.446  0.00  0.00    +0.000 A 
ATOM      2  C   UNL     1       4.603   4.062  16.342  0.00  0.00    +0.000 A 
ATOM      3  C   UNL     1       5.352   4.803  15.431  0.00  0.00    +0.000 A 
ATOM      4  C   UNL     1       5.442   6.178  15.585  0.00  0.00    +0.000 A 
ATOM      5  C   UNL     1       4.749   6.807  16.625  0.00  0.00    +0.000 A 
ATOM      6  C   UNL     1       4.001   6.062  17.558  0.00  0.00    +0.000 A 
ENDROOT
BRANCH   1  11
ATOM      7  C   UNL     1       1.284   2.724  21.869  0.00  0.00    +0.000 C 
ATOM      8  N   UNL     1       1.713   2.624  20.475  0.00  0.00    +0.000 NA
ATOM      9  C   UNL     1       3.194   2.621  20.407  0.00  0.00    +0.000 C 
ATOM     10  C   UNL     1       3.765   2.657  18.969  0.00  0.00    +0.000 C 
ATOM     11  N   UNL     1       3.195   3.800  18.258  0.00  0.00    +0.000 N 
ATOM     12  C   UNL     1       1.721   3.804  18.234  0.00  0.00    +0.000 C 
ATOM     13  C   UNL     1       1.177   3.758  19.684  0.00  0.00    +0.000 C 
ENDBRANCH   1  11
BRANCH   6  14
ATOM     14  N   UNL     1       3.391   6.802  18.625  0.00  0.00    +0.000 N 
ATOM     15  C   UNL     1       2.585   7.889  18.296  0.00  0.00    +0.000 C 
ATOM     16  O   UNL     1       2.446   8.266  17.131  0.00  0.00    +0.000 OA
ATOM     17  H   UNL     1       3.037   6.269  19.410  0.00  0.00    +0.000 HD
BRANCH  15  18
ATOM     18  C   UNL     1       1.807   8.535  19.355  0.00  0.00    +0.000 A 
ATOM     19  C   UNL     1       1.566   7.999  20.607  0.00  0.00    +0.000 A 
ATOM     20  C   UNL     1       0.752   8.894  21.325  0.00  0.00    +0.000 A 
ATOM     21  C   UNL     1       0.189   8.887  22.619  0.00  0.00    +0.000 A 
ATOM     22  C   UNL     1      -0.605   9.967  23.019  0.00  0.00    +0.000 A 
ATOM     23  C   UNL     1      -0.850  11.021  22.139  0.00  0.00    +0.000 A 
ATOM     24  C   UNL     1      -0.304  11.038  20.839  0.00  0.00    +0.000 A 
ATOM     25  C   UNL     1       0.501   9.959  20.468  0.00  0.00    +0.000 A 
ATOM     26  O   UNL     1       1.171   9.762  19.263  0.00  0.00    +0.000 OA
ENDBRANCH  15  18
ENDBRANCH   6  14
TORSDOF 3
ENDMDL
MODEL 2
REMARK VINA RESULT:      -8.8      0.534      1.165
REMARK  Name = 
REMARK  4 active torsions:
REMARK  status: ('A' for Active; 'I' for Inactive)
REMARK    1  A    between atoms: C_1  and  N_2
REMARK    2  A    between atoms: N_5  and  C_6
REMARK    3  A    between atoms: C_11  and  N_12
REMARK    4  A    between atoms: C_13  and  C_15
REMARK                            x       y       z     vdW  Elec       q    Type
REMARK                         _______ _______ _______ _____ _____    ______ ____
ROOT
ATOM      1  C   UNL     1       3.982   4.664  17.437  0.00  0.00    +0.000 A 
ATOM      2  C   UNL     1       4.689   4.103  16.343  0.00  0.00    +0.000 A 
ATOM      3  C   UNL     1       5.428   4.867  15.443  0.00  0.00    +0.000 A 
ATOM      4  C   UNL     1       5.472   6.245  15.598  0.00  0.00    +0.000 A 
ATOM      5  C   UNL     1       4.745   6.850  16.628  0.00  0.00    +0.000 A 
ATOM      6  C   UNL     1       4.007   6.082  17.550  0.00  0.00    +0.000 A 
ENDROOT
BRANCH   1  11
ATOM      7  C   UNL     1       1.288   2.679  21.803  0.00  0.00    +0.000 C 
ATOM      8  N   UNL     1       1.767   2.581  20.425  0.00  0.00    +0.000 NA
ATOM      9  C   UNL     1       3.247   2.648  20.403  0.00  0.00    +0.000 C 
ATOM     10  C   UNL     1       3.862   2.691  18.983  0.00  0.00    +0.000 C 
ATOM     11  N   UNL     1       3.262   3.796  18.238  0.00  0.00    +0.000 N 
ATOM     12  C   UNL     1       1.791   3.729  18.168  0.00  0.00    +0.000 C 
ATOM     13  C   UNL     1       1.203   3.677  19.600  0.00  0.00    +0.000 C 
ENDBRANCH   1  11
BRANCH   6  14
ATOM     14  N   UNL     1       3.358   6.803  18.607  0.00  0.00    +0.000 N 
ATOM     15  C   UNL     1       2.574   7.904  18.271  0.00  0.00    +0.000 C 
ATOM     16  O   UNL     1       2.487   8.309  17.111  0.00  0.00    +0.000 OA
ATOM     17  H   UNL     1       2.968   6.255  19.364  0.00  0.00    +0.000 HD
BRANCH  15  18
ATOM     18  C   UNL     1       1.758   8.531  19.312  0.00  0.00    +0.000 A 
ATOM     19  C   UNL     1       0.996   9.674  19.146  0.00  0.00    +0.000 A 
ATOM     20  C   UNL     1       0.390   9.987  20.378  0.00  0.00    +0.000 A 
ATOM     21  C   UNL     1      -0.471  11.016  20.814  0.00  0.00    +0.000 A 
ATOM     22  C   UNL     1      -0.884  11.032  22.150  0.00  0.00    +0.000 A 
ATOM     23  C   UNL     1      -0.430  10.056  23.037  0.00  0.00    +0.000 A 
ATOM     24  C   UNL     1       0.440   9.028  22.619  0.00  0.00    +0.000 A 
ATOM     25  C   UNL     1       0.824   9.020  21.277  0.00  0.00    +0.000 A 
ATOM     26  O   UNL     1       1.642   8.102  20.624  0.00  0.00    +0.000 OA
ENDBRANCH  15  18
ENDBRANCH   6  14
TORSDOF 3
ENDMDL
MODEL 3
REMARK VINA RESULT:      -8.3      4.521      6.298
REMARK  Name = 
REMARK  4 active torsions:
REMARK  status: ('A' for Active; 'I' for Inactive)
REMARK    1  A    between atoms: C_1  and  N_2
REMARK    2  A    between atoms: N_5  and  C_6
REMARK    3  A    between atoms: C_11  and  N_12
REMARK    4  A    between atoms: C_13  and  C_15
REMARK                            x       y       z     vdW  Elec       q    Type
REMARK                         _______ _______ _______ _____ _____    ______ ____
ROOT
ATOM      1  C   UNL     1       5.358   5.271  16.873  0.00  0.00    +0.000 A 
ATOM      2  C   UNL     1       5.092   4.016  16.267  0.00  0.00    +0.000 A 
ATOM      3  C   UNL     1       5.790   3.545  15.158  0.00  0.00    +0.000 A 
ATOM      4  C   UNL     1       6.784   4.332  14.596  0.00  0.00    +0.000 A 
ATOM      5  C   UNL     1       7.044   5.602  15.123  0.00  0.00    +0.000 A 
ATOM      6  C   UNL     1       6.351   6.079  16.252  0.00  0.00    +0.000 A 
ENDROOT
BRANCH   1  11
ATOM      7  C   UNL     1       1.299   5.167  20.583  0.00  0.00    +0.000 C 
ATOM      8  N   UNL     1       2.527   5.732  20.026  0.00  0.00    +0.000 NA
ATOM      9  C   UNL     1       2.283   6.186  18.637  0.00  0.00    +0.000 C 
ATOM     10  C   UNL     1       3.550   6.679  17.897  0.00  0.00    +0.000 C 
ATOM     11  N   UNL     1       4.570   5.634  17.951  0.00  0.00    +0.000 N 
ATOM     12  C   UNL     1       4.901   5.203  19.322  0.00  0.00    +0.000 C 
ATOM     13  C   UNL     1       3.615   4.725  20.042  0.00  0.00    +0.000 C 
ENDBRANCH   1  11
BRANCH   6  14
ATOM     14  N   UNL     1       6.749   7.365  16.750  0.00  0.00    +0.000 N 
ATOM     15  C   UNL     1       7.665   7.412  17.798  0.00  0.00    +0.000 C 
ATOM     16  O   UNL     1       8.078   6.389  18.346  0.00  0.00    +0.000 OA
ATOM     17  H   UNL     1       6.891   8.098  16.066  0.00  0.00    +0.000 HD
BRANCH  15  18
ATOM     18  C   UNL     1       8.222   8.709  18.189  0.00  0.00    +0.000 A 
ATOM     19  C   UNL     1       8.104   9.878  17.460  0.00  0.00    +0.000 A 
ATOM     20  C   UNL     1       8.802  10.896  18.138  0.00  0.00    +0.000 A 
ATOM     21  C   UNL     1       9.034  12.264  17.882  0.00  0.00    +0.000 A 
ATOM     22  C   UNL     1       9.805  13.001  18.786  0.00  0.00    +0.000 A 
ATOM     23  C   UNL     1      10.351  12.381  19.910  0.00  0.00    +0.000 A 
ATOM     24  C   UNL     1      10.138  11.013  20.174  0.00  0.00    +0.000 A 
ATOM     25  C   UNL     1       9.349  10.301  19.268  0.00  0.00    +0.000 A 
ATOM     26  O   UNL     1       8.973   8.962  19.325  0.00  0.00    +0.000 OA
ENDBRANCH  15  18
ENDBRANCH   6  14
TORSDOF 3
ENDMDL
MODEL 4
REMARK VINA RESULT:      -8.2      1.274      1.677
REMARK  Name = 
REMARK  4 active torsions:
REMARK  status: ('A' for Active; 'I' for Inactive)
REMARK    1  A    between atoms: C_1  and  N_2
REMARK    2  A    between atoms: N_5  and  C_6
REMARK    3  A    between atoms: C_11  and  N_12
REMARK    4  A    between atoms: C_13  and  C_15
REMARK                            x       y       z     vdW  Elec       q    Type
REMARK                         _______ _______ _______ _____ _____    ______ ____
ROOT
ATOM      1  C   UNL     1       4.470   4.113  17.224  0.00  0.00    +0.000 A 
ATOM      2  C   UNL     1       5.543   3.478  16.547  0.00  0.00    +0.000 A 
ATOM      3  C   UNL     1       6.373   4.142  15.647  0.00  0.00    +0.000 A 
ATOM      4  C   UNL     1       6.146   5.484  15.376  0.00  0.00    +0.000 A 
ATOM      5  C   UNL     1       5.065   6.139  15.975  0.00  0.00    +0.000 A 
ATOM      6  C   UNL     1       4.230   5.477  16.896  0.00  0.00    +0.000 A 
ENDROOT
BRANCH   1  11
ATOM      7  C   UNL     1       1.183   2.691  21.399  0.00  0.00    +0.000 C 
ATOM      8  N   UNL     1       1.939   2.383  20.185  0.00  0.00    +0.000 NA
ATOM      9  C   UNL     1       3.377   2.669  20.405  0.00  0.00    +0.000 C 
ATOM     10  C   UNL     1       4.258   2.509  19.143  0.00  0.00    +0.000 C 
ATOM     11  N   UNL     1       3.703   3.331  18.068  0.00  0.00    +0.000 N 
ATOM     12  C   UNL     1       2.293   3.027  17.762  0.00  0.00    +0.000 C 
ATOM     13  C   UNL     1       1.437   3.185  19.044  0.00  0.00    +0.000 C 
ENDBRANCH   1  11
BRANCH   6  14
ATOM     14  N   UNL     1       3.197   6.265  17.504  0.00  0.00    +0.000 N 
ATOM     15  C   UNL     1       3.278   6.519  18.871  0.00  0.00    +0.000 C 
ATOM     16  O   UNL     1       4.165   6.028  19.571  0.00  0.00    +0.000 OA
ATOM     17  H   UNL     1       2.851   7.055  16.974  0.00  0.00    +0.000 HD
BRANCH  15  18
ATOM     18  C   UNL     1       2.341   7.474  19.467  0.00  0.00    +0.000 A 
ATOM     19  C   UNL     1       1.846   8.602  18.839  0.00  0.00    +0.000 A 
ATOM     20  C   UNL     1       1.010   9.283  19.744  0.00  0.00    +0.000 A 
ATOM     21  C   UNL     1       0.249  10.469  19.673  0.00  0.00    +0.000 A 
ATOM     22  C   UNL     1      -0.479  10.874  20.797  0.00  0.00    +0.000 A 
ATOM     23  C   UNL     1      -0.432  10.124  21.972  0.00  0.00    +0.000 A 
ATOM     24  C   UNL     1       0.333   8.943  22.061  0.00  0.00    +0.000 A 
ATOM     25  C   UNL     1       1.036   8.547  20.922  0.00  0.00    +0.000 A 
ATOM     26  O   UNL     1       1.829   7.415  20.753  0.00  0.00    +0.000 OA
ENDBRANCH  15  18
ENDBRANCH   6  14
TORSDOF 3
ENDMDL
MODEL 5
REMARK VINA RESULT:      -8.2      1.152      1.211
REMARK  Name = 
REMARK  4 active torsions:
REMARK  status: ('A' for Active; 'I' for Inactive)
REMARK    1  A    between atoms: C_1  and  N_2
REMARK    2  A    between atoms: N_5  and  C_6
REMARK    3  A    between atoms: C_11  and  N_12
REMARK    4  A    between atoms: C_13  and  C_15
REMARK                            x       y       z     vdW  Elec       q    Type
REMARK                         _______ _______ _______ _____ _____    ______ ____
ROOT
ATOM      1  C   UNL     1       4.383   4.109  17.255  0.00  0.00    +0.000 A 
ATOM      2  C   UNL     1       5.430   3.459  16.551  0.00  0.00    +0.000 A 
ATOM      3  C   UNL     1       6.256   4.115  15.642  0.00  0.00    +0.000 A 
ATOM      4  C   UNL     1       6.051   5.463  15.388  0.00  0.00    +0.000 A 
ATOM      5  C   UNL     1       4.995   6.134  16.014  0.00  0.00    +0.000 A 
ATOM      6  C   UNL     1       4.164   5.480  16.944  0.00  0.00    +0.000 A 
ENDROOT
BRANCH   1  11
ATOM      7  C   UNL     1       1.198   2.701  21.513  0.00  0.00    +0.000 C 
ATOM      8  N   UNL     1       1.894   2.398  20.263  0.00  0.00    +0.000 NA
ATOM      9  C   UNL     1       3.350   2.619  20.435  0.00  0.00    +0.000 C 
ATOM     10  C   UNL     1       4.176   2.460  19.136  0.00  0.00    +0.000 C 
ATOM     11  N   UNL     1       3.616   3.334  18.106  0.00  0.00    +0.000 N 
ATOM     12  C   UNL     1       2.184   3.097  17.847  0.00  0.00    +0.000 C 
ATOM     13  C   UNL     1       1.384   3.252  19.164  0.00  0.00    +0.000 C 
ENDBRANCH   1  11
BRANCH   6  14
ATOM     14  N   UNL     1       3.159   6.284  17.578  0.00  0.00    +0.000 N 
ATOM     15  C   UNL     1       3.260   6.506  18.950  0.00  0.00    +0.000 C 
ATOM     16  O   UNL     1       4.139   5.975  19.631  0.00  0.00    +0.000 OA
ATOM     17  H   UNL     1       2.831   7.095  17.069  0.00  0.00    +0.000 HD
BRANCH  15  18
ATOM     18  C   UNL     1       2.356   7.472  19.575  0.00  0.00    +0.000 A 
ATOM     19  C   UNL     1       1.793   7.340  20.832  0.00  0.00    +0.000 A 
ATOM     20  C   UNL     1       0.954   8.446  21.062  0.00  0.00    +0.000 A 
ATOM     21  C   UNL     1       0.132   8.847  22.136  0.00  0.00    +0.000 A 
ATOM     22  C   UNL     1      -0.598  10.035  22.024  0.00  0.00    +0.000 A 
ATOM     23  C   UNL     1      -0.526  10.796  20.857  0.00  0.00    +0.000 A 
ATOM     24  C   UNL     1       0.282  10.403  19.771  0.00  0.00    +0.000 A 
ATOM     25  C   UNL     1       1.017   9.224  19.912  0.00  0.00    +0.000 A 
ATOM     26  O   UNL     1       1.900   8.648  19.002  0.00  0.00    +0.000 OA
ENDBRANCH  15  18
ENDBRANCH   6  14
TORSDOF 3
ENDMDL
MODEL 6
REMARK VINA RESULT:      -8.1      4.446      6.134
REMARK  Name = 
REMARK  4 active torsions:
REMARK  status: ('A' for Active; 'I' for Inactive)
REMARK    1  A    between atoms: C_1  and  N_2
REMARK    2  A    between atoms: N_5  and  C_6
REMARK    3  A    between atoms: C_11  and  N_12
REMARK    4  A    between atoms: C_13  and  C_15
REMARK                            x       y       z     vdW  Elec       q    Type
REMARK                         _______ _______ _______ _____ _____    ______ ____
ROOT
ATOM      1  C   UNL     1       5.329   5.268  16.871  0.00  0.00    +0.000 A 
ATOM      2  C   UNL     1       5.065   3.996  16.301  0.00  0.00    +0.000 A 
ATOM      3  C   UNL     1       5.752   3.501  15.196  0.00  0.00    +0.000 A 
ATOM      4  C   UNL     1       6.733   4.282  14.600  0.00  0.00    +0.000 A 
ATOM      5  C   UNL     1       6.989   5.566  15.090  0.00  0.00    +0.000 A 
ATOM      6  C   UNL     1       6.308   6.067  16.216  0.00  0.00    +0.000 A 
ENDROOT
BRANCH   1  11
ATOM      7  C   UNL     1       1.292   5.258  20.606  0.00  0.00    +0.000 C 
ATOM      8  N   UNL     1       2.524   5.800  20.036  0.00  0.00    +0.000 NA
ATOM      9  C   UNL     1       2.279   6.244  18.644  0.00  0.00    +0.000 C 
ATOM     10  C   UNL     1       3.548   6.712  17.891  0.00  0.00    +0.000 C 
ATOM     11  N   UNL     1       4.553   5.652  17.950  0.00  0.00    +0.000 N 
ATOM     12  C   UNL     1       4.886   5.231  19.323  0.00  0.00    +0.000 C 
ATOM     13  C   UNL     1       3.599   4.778  20.055  0.00  0.00    +0.000 C 
ENDBRANCH   1  11
BRANCH   6  14
ATOM     14  N   UNL     1       6.702   7.368  16.675  0.00  0.00    +0.000 N 
ATOM     15  C   UNL     1       7.629   7.449  17.712  0.00  0.00    +0.000 C 
ATOM     16  O   UNL     1       8.055   6.444  18.282  0.00  0.00    +0.000 OA
ATOM     17  H   UNL     1       6.832   8.084  15.971  0.00  0.00    +0.000 HD
BRANCH  15  18
ATOM     18  C   UNL     1       8.181   8.760  18.062  0.00  0.00    +0.000 A 
ATOM     19  C   UNL     1       8.956   9.026  19.176  0.00  0.00    +0.000 A 
ATOM     20  C   UNL     1       9.260  10.400  19.188  0.00  0.00    +0.000 A 
ATOM     21  C   UNL     1       9.994  11.235  20.057  0.00  0.00    +0.000 A 
ATOM     22  C   UNL     1      10.088  12.599  19.767  0.00  0.00    +0.000 A 
ATOM     23  C   UNL     1       9.445  13.124  18.645  0.00  0.00    +0.000 A 
ATOM     24  C   UNL     1       8.698  12.305  17.773  0.00  0.00    +0.000 A 
ATOM     25  C   UNL     1       8.635  10.943  18.072  0.00  0.00    +0.000 A 
ATOM     26  O   UNL     1       7.992   9.936  17.356  0.00  0.00    +0.000 OA
ENDBRANCH  15  18
ENDBRANCH   6  14
TORSDOF 3
ENDMDL
MODEL 7
REMARK VINA RESULT:      -8.0      2.609      7.888
REMARK  Name = 
REMARK  4 active torsions:
REMARK  status: ('A' for Active; 'I' for Inactive)
REMARK    1  A    between atoms: C_1  and  N_2
REMARK    2  A    between atoms: N_5  and  C_6
REMARK    3  A    between atoms: C_11  and  N_12
REMARK    4  A    between atoms: C_13  and  C_15
REMARK                            x       y       z     vdW  Elec       q    Type
REMARK                         _______ _______ _______ _____ _____    ______ ____
ROOT
ATOM      1  C   UNL     1       2.156   5.075  19.624  0.00  0.00    +0.000 A 
ATOM      2  C   UNL     1       1.487   4.648  20.799  0.00  0.00    +0.000 A 
ATOM      3  C   UNL     1       1.262   3.307  21.101  0.00  0.00    +0.000 A 
ATOM      4  C   UNL     1       1.691   2.330  20.214  0.00  0.00    +0.000 A 
ATOM      5  C   UNL     1       2.305   2.704  19.014  0.00  0.00    +0.000 A 
ATOM      6  C   UNL     1       2.547   4.058  18.710  0.00  0.00    +0.000 A 
ENDROOT
BRANCH   1  11
ATOM      7  C   UNL     1       0.879  10.261  18.306  0.00  0.00    +0.000 C 
ATOM      8  N   UNL     1       1.797   9.247  18.825  0.00  0.00    +0.000 NA
ATOM      9  C   UNL     1       2.069   8.235  17.777  0.00  0.00    +0.000 C 
ATOM     10  C   UNL     1       2.922   7.036  18.257  0.00  0.00    +0.000 C 
ATOM     11  N   UNL     1       2.286   6.439  19.430  0.00  0.00    +0.000 N 
ATOM     12  C   UNL     1       2.065   7.395  20.530  0.00  0.00    +0.000 C 
ATOM     13  C   UNL     1       1.219   8.588  20.021  0.00  0.00    +0.000 C 
ENDBRANCH   1  11
BRANCH   6  14
ATOM     14  N   UNL     1       3.247   4.322  17.485  0.00  0.00    +0.000 N 
ATOM     15  C   UNL     1       4.634   4.200  17.479  0.00  0.00    +0.000 C 
ATOM     16  O   UNL     1       5.269   3.946  18.504  0.00  0.00    +0.000 OA
ATOM     17  H   UNL     1       2.816   3.993  16.630  0.00  0.00    +0.000 HD
BRANCH  15  18
ATOM     18  C   UNL     1       5.342   4.280  16.199  0.00  0.00    +0.000 A 
ATOM     19  C   UNL     1       6.397   5.132  15.924  0.00  0.00    +0.000 A 
ATOM     20  C   UNL     1       6.782   4.944  14.584  0.00  0.00    +0.000 A 
ATOM     21  C   UNL     1       7.770   5.520  13.757  0.00  0.00    +0.000 A 
ATOM     22  C   UNL     1       7.873   5.095  12.428  0.00  0.00    +0.000 A 
ATOM     23  C   UNL     1       6.995   4.133  11.929  0.00  0.00    +0.000 A 
ATOM     24  C   UNL     1       5.995   3.556  12.739  0.00  0.00    +0.000 A 
ATOM     25  C   UNL     1       5.924   3.980  14.067  0.00  0.00    +0.000 A 
ATOM     26  O   UNL     1       5.053   3.544  15.063  0.00  0.00    +0.000 OA
ENDBRANCH  15  18
ENDBRANCH   6  14
TORSDOF 3
ENDMDL
MODEL 8
REMARK VINA RESULT:      -7.9      2.583      7.868
REMARK  Name = 
REMARK  4 active torsions:
REMARK  status: ('A' for Active; 'I' for Inactive)
REMARK    1  A    between atoms: C_1  and  N_2
REMARK    2  A    between atoms: N_5  and  C_6
REMARK    3  A    between atoms: C_11  and  N_12
REMARK    4  A    between atoms: C_13  and  C_15
REMARK                            x       y       z     vdW  Elec       q    Type
REMARK                         _______ _______ _______ _____ _____    ______ ____
ROOT
ATOM      1  C   UNL     1       2.194   5.100  19.655  0.00  0.00    +0.000 A 
ATOM      2  C   UNL     1       1.560   4.653  20.842  0.00  0.00    +0.000 A 
ATOM      3  C   UNL     1       1.364   3.307  21.139  0.00  0.00    +0.000 A 
ATOM      4  C   UNL     1       1.787   2.343  20.236  0.00  0.00    +0.000 A 
ATOM      5  C   UNL     1       2.366   2.736  19.024  0.00  0.00    +0.000 A 
ATOM      6  C   UNL     1       2.580   4.095  18.724  0.00  0.00    +0.000 A 
ENDROOT
BRANCH   1  11
ATOM      7  C   UNL     1       0.830  10.260  18.328  0.00  0.00    +0.000 C 
ATOM      8  N   UNL     1       1.759   9.265  18.862  0.00  0.00    +0.000 NA
ATOM      9  C   UNL     1       2.074   8.263  17.816  0.00  0.00    +0.000 C 
ATOM     10  C   UNL     1       2.943   7.081  18.309  0.00  0.00    +0.000 C 
ATOM     11  N   UNL     1       2.298   6.466  19.468  0.00  0.00    +0.000 N 
ATOM     12  C   UNL     1       2.034   7.413  20.566  0.00  0.00    +0.000 C 
ATOM     13  C   UNL     1       1.172   8.589  20.044  0.00  0.00    +0.000 C 
ENDBRANCH   1  11
BRANCH   6  14
ATOM     14  N   UNL     1       3.247   4.379  17.486  0.00  0.00    +0.000 N 
ATOM     15  C   UNL     1       4.637   4.297  17.451  0.00  0.00    +0.000 C 
ATOM     16  O   UNL     1       5.299   4.062  18.463  0.00  0.00    +0.000 OA
ATOM     17  H   UNL     1       2.808   4.037  16.639  0.00  0.00    +0.000 HD
BRANCH  15  18
ATOM     18  C   UNL     1       5.316   4.397  16.158  0.00  0.00    +0.000 A 
ATOM     19  C   UNL     1       5.040   3.616  15.050  0.00  0.00    +0.000 A 
ATOM     20  C   UNL     1       5.924   3.981  14.017  0.00  0.00    +0.000 A 
ATOM     21  C   UNL     1       6.118   3.541  12.691  0.00  0.00    +0.000 A 
ATOM     22  C   UNL     1       7.126   4.131  11.922  0.00  0.00    +0.000 A 
ATOM     23  C   UNL     1       7.938   5.123  12.471  0.00  0.00    +0.000 A 
ATOM     24  C   UNL     1       7.764   5.566  13.799  0.00  0.00    +0.000 A 
ATOM     25  C   UNL     1       6.739   4.977  14.541  0.00  0.00    +0.000 A 
ATOM     26  O   UNL     1       6.353   5.262  15.849  0.00  0.00    +0.000 OA
ENDBRANCH  15  18
ENDBRANCH   6  14
TORSDOF 3
ENDMDL
MODEL 9
REMARK VINA RESULT:      -7.7      2.155      4.487
REMARK  Name = 
REMARK  4 active torsions:
REMARK  status: ('A' for Active; 'I' for Inactive)
REMARK    1  A    between atoms: C_1  and  N_2
REMARK    2  A    between atoms: N_5  and  C_6
REMARK    3  A    between atoms: C_11  and  N_12
REMARK    4  A    between atoms: C_13  and  C_15
REMARK                            x       y       z     vdW  Elec       q    Type
REMARK                         _______ _______ _______ _____ _____    ______ ____
ROOT
ATOM      1  C   UNL     1       4.413   4.348  19.003  0.00  0.00    +0.000 A 
ATOM      2  C   UNL     1       4.500   2.932  19.030  0.00  0.00    +0.000 A 
ATOM      3  C   UNL     1       3.578   2.126  19.693  0.00  0.00    +0.000 A 
ATOM      4  C   UNL     1       2.528   2.719  20.379  0.00  0.00    +0.000 A 
ATOM      5  C   UNL     1       2.432   4.113  20.430  0.00  0.00    +0.000 A 
ATOM      6  C   UNL     1       3.353   4.934  19.749  0.00  0.00    +0.000 A 
ENDROOT
BRANCH   1  11
ATOM      7  C   UNL     1       7.908   8.365  17.626  0.00  0.00    +0.000 C 
ATOM      8  N   UNL     1       7.364   7.017  17.474  0.00  0.00    +0.000 NA
ATOM      9  C   UNL     1       5.928   7.095  17.116  0.00  0.00    +0.000 C 
ATOM     10  C   UNL     1       5.210   5.724  17.061  0.00  0.00    +0.000 C 
ATOM     11  N   UNL     1       5.412   5.031  18.333  0.00  0.00    +0.000 N 
ATOM     12  C   UNL     1       6.831   4.863  18.693  0.00  0.00    +0.000 C 
ATOM     13  C   UNL     1       7.527   6.246  18.730  0.00  0.00    +0.000 C 
ENDBRANCH   1  11
BRANCH   6  14
ATOM     14  N   UNL     1       3.116   6.347  19.811  0.00  0.00    +0.000 N 
ATOM     15  C   UNL     1       2.322   6.927  18.825  0.00  0.00    +0.000 C 
ATOM     16  O   UNL     1       1.885   6.274  17.875  0.00  0.00    +0.000 OA
ATOM     17  H   UNL     1       2.964   6.748  20.728  0.00  0.00    +0.000 HD
BRANCH  15  18
ATOM     18  C   UNL     1       1.917   8.326  18.978  0.00  0.00    +0.000 A 
ATOM     19  C   UNL     1       2.178   9.334  18.068  0.00  0.00    +0.000 A 
ATOM     20  C   UNL     1       1.668  10.541  18.584  0.00  0.00    +0.000 A 
ATOM     21  C   UNL     1       1.640  11.872  18.120  0.00  0.00    +0.000 A 
ATOM     22  C   UNL     1       1.045  12.856  18.917  0.00  0.00    +0.000 A 
ATOM     23  C   UNL     1       0.509  12.522  20.160  0.00  0.00    +0.000 A 
ATOM     24  C   UNL     1       0.539  11.197  20.644  0.00  0.00    +0.000 A 
ATOM     25  C   UNL     1       1.120  10.229  19.823  0.00  0.00    +0.000 A 
ATOM     26  O   UNL     1       1.242   8.862  20.062  0.00  0.00    +0.000 OA
ENDBRANCH  15  18
ENDBRANCH   6  14
TORSDOF 3
ENDMDL
