MODEL 1
REMARK VINA RESULT:      -8.1      0.000      0.000
REMARK  Name = 
REMARK  13 active torsions:
REMARK  status: ('A' for Active; 'I' for Inactive)
REMARK    1  A    between atoms: C_1  and  C_2
REMARK    2  A    between atoms: C_4  and  O_5
REMARK    3  A    between atoms: O_5  and  C_6
REMARK    4  A    between atoms: C_7  and  O_8
REMARK    5  A    between atoms: O_8  and  C_9
REMARK    6  A    between atoms: N_13  and  C_14
REMARK    7  A    between atoms: C_22  and  C_23
REMARK    8  A    between atoms: C_23  and  O_24
REMARK    9  A    between atoms: C_25  and  O_26
REMARK   10  A    between atoms: C_27  and  O_28
REMARK   11  A    between atoms: C_29  and  O_30
REMARK   12  A    between atoms: C_31  and  O_32
REMARK   13  A    between atoms: C_33  and  O_34
REMARK                            x       y       z     vdW  Elec       q    Type
REMARK                         _______ _______ _______ _____ _____    ______ ____
ROOT
ATOM      1  C   UNL     1       3.902   5.456  18.297  0.00  0.00    +0.000 C 
ATOM      2  C   UNL     1       2.603   6.104  18.883  0.00  0.00    +0.000 C 
ATOM      3  O   UNL     1       2.394   5.564  20.192  0.00  0.00    +0.000 OA
ATOM      4  C   UNL     1       2.043   4.173  20.169  0.00  0.00    +0.000 C 
ATOM      5  C   UNL     1       3.175   3.326  19.591  0.00  0.00    +0.000 C 
ATOM      6  C   UNL     1       3.656   3.922  18.267  0.00  0.00    +0.000 C 
ENDROOT
BRANCH   5   7
ATOM      7  O   UNL     1       2.722   1.980  19.400  0.00  0.00    +0.000 OA
ATOM      8  H   UNL     1       3.478   1.369  19.486  0.00  0.00    +0.000 HD
ENDBRANCH   5   7
BRANCH   6   9
ATOM      9  O   UNL     1       4.808   3.213  17.783  0.00  0.00    +0.000 OA
ATOM     10  H   UNL     1       4.602   2.830  16.913  0.00  0.00    +0.000 HD
ENDBRANCH   6   9
BRANCH   1  11
ATOM     11  O   UNL     1       4.104   5.720  16.914  0.00  0.00    +0.000 OA
BRANCH  11  15
ATOM     12  C   UNL     1       7.002   5.020  14.054  0.00  0.00    +0.000 C 
ATOM     13  C   UNL     1       6.305   5.258  15.385  0.00  0.00    +0.000 C 
ATOM     14  O   UNL     1       5.549   6.471  15.264  0.00  0.00    +0.000 OA
ATOM     15  C   UNL     1       4.878   6.826  16.472  0.00  0.00    +0.000 C 
ATOM     16  C   UNL     1       5.932   7.084  17.583  0.00  0.00    +0.000 C 
ATOM     17  C   UNL     1       6.621   5.742  17.861  0.00  0.00    +0.000 C 
ATOM     18  C   UNL     1       7.305   5.252  16.571  0.00  0.00    +0.000 C 
BRANCH  16  19
ATOM     19  O   UNL     1       6.903   8.073  17.208  0.00  0.00    +0.000 OA
ATOM     20  H   UNL     1       7.125   7.889  16.272  0.00  0.00    +0.000 HD
ENDBRANCH  16  19
BRANCH  17  21
ATOM     21  O   UNL     1       7.555   5.896  18.936  0.00  0.00    +0.000 OA
ATOM     22  H   UNL     1       7.669   6.856  19.064  0.00  0.00    +0.000 HD
ENDBRANCH  17  21
BRANCH  18  23
ATOM     23  O   UNL     1       7.840   3.936  16.775  0.00  0.00    +0.000 OA
ATOM     24  H   UNL     1       7.799   3.736  17.725  0.00  0.00    +0.000 HD
ENDBRANCH  18  23
ENDBRANCH  11  15
ENDBRANCH   1  11
BRANCH   2  25
ATOM     25  O   UNL     1       2.678   7.522  18.944  0.00  0.00    +0.000 OA
BRANCH  25  26
ATOM     26  C   UNL     1       1.624   8.414  19.179  0.00  0.00    +0.000 A 
ATOM     27  C   UNL     1       1.009   8.838  18.071  0.00  0.00    +0.000 A 
ATOM     28  C   UNL     1      -0.161   9.733  18.041  0.00  0.00    +0.000 A 
ATOM     29  O   UNL     1      -0.634  10.044  16.950  0.00  0.00    +0.000 OA
ATOM     30  N   UNL     1      -0.658  10.156  19.261  0.00  0.00    +0.000 N 
ATOM     31  C   UNL     1      -1.855  10.989  19.259  0.00  0.00    +0.000 C 
ATOM     32  C   UNL     1      -0.046   9.778  20.492  0.00  0.00    +0.000 A 
ATOM     33  C   UNL     1      -0.561  10.290  21.712  0.00  0.00    +0.000 A 
ATOM     34  C   UNL     1       0.002   9.966  22.937  0.00  0.00    +0.000 A 
ATOM     35  C   UNL     1       1.085   9.113  22.957  0.00  0.00    +0.000 A 
ATOM     36  C   UNL     1       1.595   8.583  21.756  0.00  0.00    +0.000 A 
ATOM     37  C   UNL     1       1.083   8.905  20.498  0.00  0.00    +0.000 A 
ENDBRANCH  25  26
ENDBRANCH   2  25
BRANCH   4  38
ATOM     38  C   UNL     1       1.710   3.757  21.603  0.00  0.00    +0.000 C 
BRANCH  38  39
ATOM     39  O   UNL     1       2.639   2.759  22.031  0.00  0.00    +0.000 OA
ATOM     40  H   UNL     1       2.242   1.900  21.785  0.00  0.00    +0.000 HD
ENDBRANCH  38  39
ENDBRANCH   4  38
TORSDOF 11
ENDMDL
MODEL 2
REMARK VINA RESULT:      -8.1      1.005      2.268
REMARK  Name = 
REMARK  13 active torsions:
REMARK  status: ('A' for Active; 'I' for Inactive)
REMARK    1  A    between atoms: C_1  and  C_2
REMARK    2  A    between atoms: C_4  and  O_5
REMARK    3  A    between atoms: O_5  and  C_6
REMARK    4  A    between atoms: C_7  and  O_8
REMARK    5  A    between atoms: O_8  and  C_9
REMARK    6  A    between atoms: N_13  and  C_14
REMARK    7  A    between atoms: C_22  and  C_23
REMARK    8  A    between atoms: C_23  and  O_24
REMARK    9  A    between atoms: C_25  and  O_26
REMARK   10  A    between atoms: C_27  and  O_28
REMARK   11  A    between atoms: C_29  and  O_30
REMARK   12  A    between atoms: C_31  and  O_32
REMARK   13  A    between atoms: C_33  and  O_34
REMARK                            x       y       z     vdW  Elec       q    Type
REMARK                         _______ _______ _______ _____ _____    ______ ____
ROOT
ATOM      1  C   UNL     1       3.889   5.435  18.338  0.00  0.00    +0.000 C 
ATOM      2  C   UNL     1       2.570   6.052  18.912  0.00  0.00    +0.000 C 
ATOM      3  O   UNL     1       2.364   5.509  20.220  0.00  0.00    +0.000 OA
ATOM      4  C   UNL     1       2.047   4.109  20.195  0.00  0.00    +0.000 C 
ATOM      5  C   UNL     1       3.204   3.290  19.628  0.00  0.00    +0.000 C 
ATOM      6  C   UNL     1       3.681   3.897  18.306  0.00  0.00    +0.000 C 
ENDROOT
BRANCH   5   7
ATOM      7  O   UNL     1       2.786   1.933  19.434  0.00  0.00    +0.000 OA
ATOM      8  H   UNL     1       2.674   1.502  20.302  0.00  0.00    +0.000 HD
ENDBRANCH   5   7
BRANCH   6   9
ATOM      9  O   UNL     1       4.854   3.215  17.833  0.00  0.00    +0.000 OA
ATOM     10  H   UNL     1       5.451   3.862  17.419  0.00  0.00    +0.000 HD
ENDBRANCH   6   9
BRANCH   1  11
ATOM     11  O   UNL     1       4.096   5.703  16.955  0.00  0.00    +0.000 OA
BRANCH  11  15
ATOM     12  C   UNL     1       7.005   5.036  14.098  0.00  0.00    +0.000 C 
ATOM     13  C   UNL     1       6.303   5.264  15.429  0.00  0.00    +0.000 C 
ATOM     14  O   UNL     1       5.539   6.471  15.311  0.00  0.00    +0.000 OA
ATOM     15  C   UNL     1       4.862   6.817  16.519  0.00  0.00    +0.000 C 
ATOM     16  C   UNL     1       5.912   7.080  17.633  0.00  0.00    +0.000 C 
ATOM     17  C   UNL     1       6.611   5.742  17.907  0.00  0.00    +0.000 C 
ATOM     18  C   UNL     1       7.301   5.262  16.617  0.00  0.00    +0.000 C 
BRANCH  16  19
ATOM     19  O   UNL     1       6.875   8.078  17.263  0.00  0.00    +0.000 OA
ATOM     20  H   UNL     1       6.578   8.430  16.398  0.00  0.00    +0.000 HD
ENDBRANCH  16  19
BRANCH  17  21
ATOM     21  O   UNL     1       7.541   5.899  18.985  0.00  0.00    +0.000 OA
ATOM     22  H   UNL     1       7.441   5.111  19.551  0.00  0.00    +0.000 HD
ENDBRANCH  17  21
BRANCH  18  23
ATOM     23  O   UNL     1       7.847   3.949  16.817  0.00  0.00    +0.000 OA
ATOM     24  H   UNL     1       7.319   3.320  16.298  0.00  0.00    +0.000 HD
ENDBRANCH  18  23
ENDBRANCH  11  15
ENDBRANCH   1  11
BRANCH   2  25
ATOM     25  O   UNL     1       2.610   7.472  18.972  0.00  0.00    +0.000 OA
BRANCH  25  26
ATOM     26  C   UNL     1       1.732   8.312  19.669  0.00  0.00    +0.000 A 
ATOM     27  C   UNL     1       1.962   8.374  20.983  0.00  0.00    +0.000 A 
ATOM     28  C   UNL     1       1.222   9.223  21.934  0.00  0.00    +0.000 A 
ATOM     29  O   UNL     1       1.539   9.189  23.121  0.00  0.00    +0.000 OA
ATOM     30  N   UNL     1       0.217  10.018  21.413  0.00  0.00    +0.000 N 
ATOM     31  C   UNL     1      -0.486  10.915  22.322  0.00  0.00    +0.000 C 
ATOM     32  C   UNL     1      -0.119   9.991  20.027  0.00  0.00    +0.000 A 
ATOM     33  C   UNL     1      -1.199  10.783  19.556  0.00  0.00    +0.000 A 
ATOM     34  C   UNL     1      -1.576  10.787  18.222  0.00  0.00    +0.000 A 
ATOM     35  C   UNL     1      -0.867  10.004  17.336  0.00  0.00    +0.000 A 
ATOM     36  C   UNL     1       0.220   9.228  17.786  0.00  0.00    +0.000 A 
ATOM     37  C   UNL     1       0.617   9.167  19.123  0.00  0.00    +0.000 A 
ENDBRANCH  25  26
ENDBRANCH   2  25
BRANCH   4  38
ATOM     38  C   UNL     1       1.713   3.686  21.627  0.00  0.00    +0.000 C 
BRANCH  38  39
ATOM     39  O   UNL     1       2.639   2.685  22.050  0.00  0.00    +0.000 OA
ATOM     40  H   UNL     1       2.117   2.035  22.562  0.00  0.00    +0.000 HD
ENDBRANCH  38  39
ENDBRANCH   4  38
TORSDOF 11
ENDMDL
MODEL 3
REMARK VINA RESULT:      -8.0      1.210      1.233
REMARK  Name = 
REMARK  13 active torsions:
REMARK  status: ('A' for Active; 'I' for Inactive)
REMARK    1  A    between atoms: C_1  and  C_2
REMARK    2  A    between atoms: C_4  and  O_5
REMARK    3  A    between atoms: O_5  and  C_6
REMARK    4  A    between atoms: C_7  and  O_8
REMARK    5  A    between atoms: O_8  and  C_9
REMARK    6  A    between atoms: N_13  and  C_14
REMARK    7  A    between atoms: C_22  and  C_23
REMARK    8  A    between atoms: C_23  and  O_24
REMARK    9  A    between atoms: C_25  and  O_26
REMARK   10  A    between atoms: C_27  and  O_28
REMARK   11  A    between atoms: C_29  and  O_30
REMARK   12  A    between atoms: C_31  and  O_32
REMARK   13  A    between atoms: C_33  and  O_34
REMARK                            x       y       z     vdW  Elec       q    Type
REMARK                         _______ _______ _______ _____ _____    ______ ____
ROOT
ATOM      1  C   UNL     1       3.408   4.934  18.674  0.00  0.00    +0.000 C 
ATOM      2  C   UNL     1       2.341   5.581  19.618  0.00  0.00    +0.000 C 
ATOM      3  O   UNL     1       2.140   4.698  20.726  0.00  0.00    +0.000 OA
ATOM      4  C   UNL     1       1.494   3.473  20.348  0.00  0.00    +0.000 C 
ATOM      5  C   UNL     1       2.356   2.668  19.379  0.00  0.00    +0.000 C 
ATOM      6  C   UNL     1       2.832   3.561  18.231  0.00  0.00    +0.000 C 
ENDROOT
BRANCH   5   7
ATOM      7  O   UNL     1       1.605   1.558  18.872  0.00  0.00    +0.000 OA
ATOM      8  H   UNL     1       1.043   1.197  19.582  0.00  0.00    +0.000 HD
ENDBRANCH   5   7
BRANCH   6   9
ATOM      9  O   UNL     1       3.753   2.850  17.387  0.00  0.00    +0.000 OA
ATOM     10  H   UNL     1       4.659   3.007  17.705  0.00  0.00    +0.000 HD
ENDBRANCH   6   9
BRANCH   1  11
ATOM     11  O   UNL     1       3.535   5.587  17.416  0.00  0.00    +0.000 OA
BRANCH  11  15
ATOM     12  C   UNL     1       5.653   5.335  13.877  0.00  0.00    +0.000 C 
ATOM     13  C   UNL     1       5.254   5.217  15.341  0.00  0.00    +0.000 C 
ATOM     14  O   UNL     1       4.901   6.530  15.797  0.00  0.00    +0.000 OA
ATOM     15  C   UNL     1       4.545   6.557  17.179  0.00  0.00    +0.000 C 
ATOM     16  C   UNL     1       5.769   6.120  18.029  0.00  0.00    +0.000 C 
ATOM     17  C   UNL     1       6.040   4.648  17.690  0.00  0.00    +0.000 C 
ATOM     18  C   UNL     1       6.355   4.528  16.188  0.00  0.00    +0.000 C 
BRANCH  16  19
ATOM     19  O   UNL     1       6.937   6.914  17.769  0.00  0.00    +0.000 OA
ATOM     20  H   UNL     1       7.702   6.360  18.030  0.00  0.00    +0.000 HD
ENDBRANCH  16  19
BRANCH  17  21
ATOM     21  O   UNL     1       7.114   4.160  18.503  0.00  0.00    +0.000 OA
ATOM     22  H   UNL     1       7.501   4.939  18.942  0.00  0.00    +0.000 HD
ENDBRANCH  17  21
BRANCH  18  23
ATOM     23  O   UNL     1       6.480   3.145  15.827  0.00  0.00    +0.000 OA
ATOM     24  H   UNL     1       5.632   2.851  15.454  0.00  0.00    +0.000 HD
ENDBRANCH  18  23
ENDBRANCH  11  15
ENDBRANCH   1  11
BRANCH   2  25
ATOM     25  O   UNL     1       2.728   6.868  20.083  0.00  0.00    +0.000 OA
BRANCH  25  26
ATOM     26  C   UNL     1       2.045   8.075  19.891  0.00  0.00    +0.000 A 
ATOM     27  C   UNL     1       2.233   8.625  18.687  0.00  0.00    +0.000 A 
ATOM     28  C   UNL     1       1.588   9.861  18.210  0.00  0.00    +0.000 A 
ATOM     29  O   UNL     1       1.845  10.257  17.075  0.00  0.00    +0.000 OA
ATOM     30  N   UNL     1       0.717  10.491  19.082  0.00  0.00    +0.000 N 
ATOM     31  C   UNL     1       0.018  11.680  18.610  0.00  0.00    +0.000 C 
ATOM     32  C   UNL     1       0.482   9.992  20.398  0.00  0.00    +0.000 A 
ATOM     33  C   UNL     1      -0.375  10.711  21.272  0.00  0.00    +0.000 A 
ATOM     34  C   UNL     1      -0.630  10.280  22.564  0.00  0.00    +0.000 A 
ATOM     35  C   UNL     1      -0.037   9.113  22.997  0.00  0.00    +0.000 A 
ATOM     36  C   UNL     1       0.800   8.378  22.133  0.00  0.00    +0.000 A 
ATOM     37  C   UNL     1       1.112   8.789  20.836  0.00  0.00    +0.000 A 
ENDBRANCH  25  26
ENDBRANCH   2  25
BRANCH   4  38
ATOM     38  C   UNL     1       1.211   2.686  21.629  0.00  0.00    +0.000 C 
BRANCH  38  39
ATOM     39  O   UNL     1       2.443   2.431  22.306  0.00  0.00    +0.000 OA
ATOM     40  H   UNL     1       2.776   3.304  22.595  0.00  0.00    +0.000 HD
ENDBRANCH  38  39
ENDBRANCH   4  38
TORSDOF 11
ENDMDL
MODEL 4
REMARK VINA RESULT:      -7.6      1.312      2.126
REMARK  Name = 
REMARK  13 active torsions:
REMARK  status: ('A' for Active; 'I' for Inactive)
REMARK    1  A    between atoms: C_1  and  C_2
REMARK    2  A    between atoms: C_4  and  O_5
REMARK    3  A    between atoms: O_5  and  C_6
REMARK    4  A    between atoms: C_7  and  O_8
REMARK    5  A    between atoms: O_8  and  C_9
REMARK    6  A    between atoms: N_13  and  C_14
REMARK    7  A    between atoms: C_22  and  C_23
REMARK    8  A    between atoms: C_23  and  O_24
REMARK    9  A    between atoms: C_25  and  O_26
REMARK   10  A    between atoms: C_27  and  O_28
REMARK   11  A    between atoms: C_29  and  O_30
REMARK   12  A    between atoms: C_31  and  O_32
REMARK   13  A    between atoms: C_33  and  O_34
REMARK                            x       y       z     vdW  Elec       q    Type
REMARK                         _______ _______ _______ _____ _____    ______ ____
ROOT
ATOM      1  C   UNL     1       3.870   5.264  18.262  0.00  0.00    +0.000 C 
ATOM      2  C   UNL     1       2.612   5.984  18.851  0.00  0.00    +0.000 C 
ATOM      3  O   UNL     1       2.353   5.431  20.145  0.00  0.00    +0.000 OA
ATOM      4  C   UNL     1       1.910   4.067  20.087  0.00  0.00    +0.000 C 
ATOM      5  C   UNL     1       2.989   3.160  19.500  0.00  0.00    +0.000 C 
ATOM      6  C   UNL     1       3.522   3.752  18.194  0.00  0.00    +0.000 C 
ENDROOT
BRANCH   5   7
ATOM      7  O   UNL     1       2.449   1.851  19.275  0.00  0.00    +0.000 OA
ATOM      8  H   UNL     1       2.974   1.195  19.769  0.00  0.00    +0.000 HD
ENDBRANCH   5   7
BRANCH   6   9
ATOM      9  O   UNL     1       4.629   2.977  17.704  0.00  0.00    +0.000 OA
ATOM     10  H   UNL     1       4.306   2.352  17.033  0.00  0.00    +0.000 HD
ENDBRANCH   6   9
BRANCH   1  11
ATOM     11  O   UNL     1       4.103   5.544  16.886  0.00  0.00    +0.000 OA
BRANCH  11  15
ATOM     12  C   UNL     1       7.043   5.004  14.034  0.00  0.00    +0.000 C 
ATOM     13  C   UNL     1       6.329   5.190  15.365  0.00  0.00    +0.000 C 
ATOM     14  O   UNL     1       5.534   6.379  15.264  0.00  0.00    +0.000 OA
ATOM     15  C   UNL     1       4.843   6.685  16.475  0.00  0.00    +0.000 C 
ATOM     16  C   UNL     1       5.879   6.955  17.599  0.00  0.00    +0.000 C 
ATOM     17  C   UNL     1       6.611   5.631  17.853  0.00  0.00    +0.000 C 
ATOM     18  C   UNL     1       7.320   5.192  16.558  0.00  0.00    +0.000 C 
BRANCH  16  19
ATOM     19  O   UNL     1       6.819   7.984  17.252  0.00  0.00    +0.000 OA
ATOM     20  H   UNL     1       6.502   8.797  17.695  0.00  0.00    +0.000 HD
ENDBRANCH  16  19
BRANCH  17  21
ATOM     21  O   UNL     1       7.532   5.793  18.938  0.00  0.00    +0.000 OA
ATOM     22  H   UNL     1       8.410   5.546  18.592  0.00  0.00    +0.000 HD
ENDBRANCH  17  21
BRANCH  18  23
ATOM     23  O   UNL     1       7.899   3.890  16.738  0.00  0.00    +0.000 OA
ATOM     24  H   UNL     1       8.819   3.922  16.427  0.00  0.00    +0.000 HD
ENDBRANCH  18  23
ENDBRANCH  11  15
ENDBRANCH   1  11
BRANCH   2  25
ATOM     25  O   UNL     1       2.781   7.393  18.945  0.00  0.00    +0.000 OA
BRANCH  25  26
ATOM     26  C   UNL     1       1.886   8.315  19.504  0.00  0.00    +0.000 A 
ATOM     27  C   UNL     1       1.140   7.821  20.496  0.00  0.00    +0.000 A 
ATOM     28  C   UNL     1       0.165   8.592  21.288  0.00  0.00    +0.000 A 
ATOM     29  O   UNL     1      -0.455   8.015  22.179  0.00  0.00    +0.000 OA
ATOM     30  N   UNL     1       0.023   9.932  20.974  0.00  0.00    +0.000 N 
ATOM     31  C   UNL     1      -0.889  10.730  21.785  0.00  0.00    +0.000 C 
ATOM     32  C   UNL     1       0.754  10.535  19.909  0.00  0.00    +0.000 A 
ATOM     33  C   UNL     1       0.525  11.900  19.592  0.00  0.00    +0.000 A 
ATOM     34  C   UNL     1       1.199  12.534  18.559  0.00  0.00    +0.000 A 
ATOM     35  C   UNL     1       2.123  11.810  17.836  0.00  0.00    +0.000 A 
ATOM     36  C   UNL     1       2.375  10.461  18.152  0.00  0.00    +0.000 A 
ATOM     37  C   UNL     1       1.700   9.771  19.160  0.00  0.00    +0.000 A 
ENDBRANCH  25  26
ENDBRANCH   2  25
BRANCH   4  38
ATOM     38  C   UNL     1       1.536   3.643  21.508  0.00  0.00    +0.000 C 
BRANCH  38  39
ATOM     39  O   UNL     1       2.597   2.863  22.062  0.00  0.00    +0.000 OA
ATOM     40  H   UNL     1       2.180   2.045  22.400  0.00  0.00    +0.000 HD
ENDBRANCH  38  39
ENDBRANCH   4  38
TORSDOF 11
ENDMDL
MODEL 5
REMARK VINA RESULT:      -7.5      1.270      1.524
REMARK  Name = 
REMARK  13 active torsions:
REMARK  status: ('A' for Active; 'I' for Inactive)
REMARK    1  A    between atoms: C_1  and  C_2
REMARK    2  A    between atoms: C_4  and  O_5
REMARK    3  A    between atoms: O_5  and  C_6
REMARK    4  A    between atoms: C_7  and  O_8
REMARK    5  A    between atoms: O_8  and  C_9
REMARK    6  A    between atoms: N_13  and  C_14
REMARK    7  A    between atoms: C_22  and  C_23
REMARK    8  A    between atoms: C_23  and  O_24
REMARK    9  A    between atoms: C_25  and  O_26
REMARK   10  A    between atoms: C_27  and  O_28
REMARK   11  A    between atoms: C_29  and  O_30
REMARK   12  A    between atoms: C_31  and  O_32
REMARK   13  A    between atoms: C_33  and  O_34
REMARK                            x       y       z     vdW  Elec       q    Type
REMARK                         _______ _______ _______ _____ _____    ______ ____
ROOT
ATOM      1  C   UNL     1       3.965   4.708  19.671  0.00  0.00    +0.000 C 
ATOM      2  C   UNL     1       2.585   5.424  19.853  0.00  0.00    +0.000 C 
ATOM      3  O   UNL     1       1.751   4.577  20.649  0.00  0.00    +0.000 OA
ATOM      4  C   UNL     1       1.370   3.374  19.966  0.00  0.00    +0.000 C 
ATOM      5  C   UNL     1       2.586   2.509  19.647  0.00  0.00    +0.000 C 
ATOM      6  C   UNL     1       3.670   3.352  18.973  0.00  0.00    +0.000 C 
ENDROOT
BRANCH   5   7
ATOM      7  O   UNL     1       2.197   1.421  18.799  0.00  0.00    +0.000 OA
ATOM      8  H   UNL     1       2.542   0.586  19.166  0.00  0.00    +0.000 HD
ENDBRANCH   5   7
BRANCH   6   9
ATOM      9  O   UNL     1       4.869   2.581  18.791  0.00  0.00    +0.000 OA
ATOM     10  H   UNL     1       5.268   2.406  19.661  0.00  0.00    +0.000 HD
ENDBRANCH   6   9
BRANCH   1  11
ATOM     11  O   UNL     1       4.811   5.324  18.707  0.00  0.00    +0.000 OA
BRANCH  11  15
ATOM     12  C   UNL     1       5.626   3.192  15.263  0.00  0.00    +0.000 C 
ATOM     13  C   UNL     1       5.679   4.232  16.373  0.00  0.00    +0.000 C 
ATOM     14  O   UNL     1       4.367   4.800  16.492  0.00  0.00    +0.000 OA
ATOM     15  C   UNL     1       4.299   5.827  17.481  0.00  0.00    +0.000 C 
ATOM     16  C   UNL     1       5.238   6.994  17.069  0.00  0.00    +0.000 C 
ATOM     17  C   UNL     1       6.671   6.449  17.123  0.00  0.00    +0.000 C 
ATOM     18  C   UNL     1       6.800   5.276  16.134  0.00  0.00    +0.000 C 
BRANCH  16  19
ATOM     19  O   UNL     1       4.948   7.502  15.757  0.00  0.00    +0.000 OA
ATOM     20  H   UNL     1       5.270   6.823  15.129  0.00  0.00    +0.000 HD
ENDBRANCH  16  19
BRANCH  17  21
ATOM     21  O   UNL     1       7.596   7.503  16.828  0.00  0.00    +0.000 OA
ATOM     22  H   UNL     1       8.471   7.189  17.122  0.00  0.00    +0.000 HD
ENDBRANCH  17  21
BRANCH  18  23
ATOM     23  O   UNL     1       8.094   4.669  16.267  0.00  0.00    +0.000 OA
ATOM     24  H   UNL     1       7.996   3.712  16.127  0.00  0.00    +0.000 HD
ENDBRANCH  18  23
ENDBRANCH  11  15
ENDBRANCH   1  11
BRANCH   2  25
ATOM     25  O   UNL     1       2.708   6.703  20.462  0.00  0.00    +0.000 OA
BRANCH  25  26
ATOM     26  C   UNL     1       2.008   7.869  20.126  0.00  0.00    +0.000 A 
ATOM     27  C   UNL     1       2.139   8.236  18.848  0.00  0.00    +0.000 A 
ATOM     28  C   UNL     1       1.465   9.388  18.223  0.00  0.00    +0.000 A 
ATOM     29  O   UNL     1       1.669   9.613  17.032  0.00  0.00    +0.000 OA
ATOM     30  N   UNL     1       0.629  10.138  19.031  0.00  0.00    +0.000 N 
ATOM     31  C   UNL     1      -0.099  11.244  18.421  0.00  0.00    +0.000 C 
ATOM     32  C   UNL     1       0.456   9.838  20.415  0.00  0.00    +0.000 A 
ATOM     33  C   UNL     1      -0.367  10.678  21.211  0.00  0.00    +0.000 A 
ATOM     34  C   UNL     1      -0.562  10.440  22.563  0.00  0.00    +0.000 A 
ATOM     35  C   UNL     1       0.058   9.350  23.135  0.00  0.00    +0.000 A 
ATOM     36  C   UNL     1       0.861   8.497  22.353  0.00  0.00    +0.000 A 
ATOM     37  C   UNL     1       1.113   8.713  20.997  0.00  0.00    +0.000 A 
ENDBRANCH  25  26
ENDBRANCH   2  25
BRANCH   4  38
ATOM     38  C   UNL     1       0.375   2.631  20.861  0.00  0.00    +0.000 C 
BRANCH  38  39
ATOM     39  O   UNL     1       0.917   2.524  22.178  0.00  0.00    +0.000 OA
ATOM     40  H   UNL     1       0.832   3.413  22.577  0.00  0.00    +0.000 HD
ENDBRANCH  38  39
ENDBRANCH   4  38
TORSDOF 11
ENDMDL
MODEL 6
REMARK VINA RESULT:      -7.3      6.627     11.580
REMARK  Name = 
REMARK  13 active torsions:
REMARK  status: ('A' for Active; 'I' for Inactive)
REMARK    1  A    between atoms: C_1  and  C_2
REMARK    2  A    between atoms: C_4  and  O_5
REMARK    3  A    between atoms: O_5  and  C_6
REMARK    4  A    between atoms: C_7  and  O_8
REMARK    5  A    between atoms: O_8  and  C_9
REMARK    6  A    between atoms: N_13  and  C_14
REMARK    7  A    between atoms: C_22  and  C_23
REMARK    8  A    between atoms: C_23  and  O_24
REMARK    9  A    between atoms: C_25  and  O_26
REMARK   10  A    between atoms: C_27  and  O_28
REMARK   11  A    between atoms: C_29  and  O_30
REMARK   12  A    between atoms: C_31  and  O_32
REMARK   13  A    between atoms: C_33  and  O_34
REMARK                            x       y       z     vdW  Elec       q    Type
REMARK                         _______ _______ _______ _____ _____    ______ ____
ROOT
ATOM      1  C   UNL     1      -4.876  14.461  22.430  0.00  0.00    +0.000 C 
ATOM      2  C   UNL     1      -4.582  13.157  21.617  0.00  0.00    +0.000 C 
ATOM      3  O   UNL     1      -5.826  12.665  21.109  0.00  0.00    +0.000 OA
ATOM      4  C   UNL     1      -6.693  12.177  22.143  0.00  0.00    +0.000 C 
ATOM      5  C   UNL     1      -7.096  13.296  23.100  0.00  0.00    +0.000 C 
ATOM      6  C   UNL     1      -5.856  14.062  23.566  0.00  0.00    +0.000 C 
ENDROOT
BRANCH   5   7
ATOM      7  O   UNL     1      -7.795  12.742  24.223  0.00  0.00    +0.000 OA
ATOM      8  H   UNL     1      -7.408  13.090  25.048  0.00  0.00    +0.000 HD
ENDBRANCH   5   7
BRANCH   6   9
ATOM      9  O   UNL     1      -6.236  15.199  24.359  0.00  0.00    +0.000 OA
ATOM     10  H   UNL     1      -5.593  15.310  25.081  0.00  0.00    +0.000 HD
ENDBRANCH   6   9
BRANCH   1  11
ATOM     11  O   UNL     1      -3.767  14.930  23.188  0.00  0.00    +0.000 OA
BRANCH  11  15
ATOM     12  C   UNL     1      -0.888  16.300  20.561  0.00  0.00    +0.000 C 
ATOM     13  C   UNL     1      -1.585  15.799  21.817  0.00  0.00    +0.000 C 
ATOM     14  O   UNL     1      -2.712  16.654  22.053  0.00  0.00    +0.000 OA
ATOM     15  C   UNL     1      -3.429  16.309  23.238  0.00  0.00    +0.000 C 
ATOM     16  C   UNL     1      -2.494  16.478  24.467  0.00  0.00    +0.000 C 
ATOM     17  C   UNL     1      -1.382  15.432  24.324  0.00  0.00    +0.000 C 
ATOM     18  C   UNL     1      -0.610  15.693  23.018  0.00  0.00    +0.000 C 
BRANCH  16  19
ATOM     19  O   UNL     1      -1.930  17.796  24.556  0.00  0.00    +0.000 OA
ATOM     20  H   UNL     1      -2.511  18.296  25.165  0.00  0.00    +0.000 HD
ENDBRANCH  16  19
BRANCH  17  21
ATOM     21  O   UNL     1      -0.526  15.484  25.472  0.00  0.00    +0.000 OA
ATOM     22  H   UNL     1       0.291  15.011  25.226  0.00  0.00    +0.000 HD
ENDBRANCH  17  21
BRANCH  18  23
ATOM     23  O   UNL     1       0.348  14.646  22.802  0.00  0.00    +0.000 OA
ATOM     24  H   UNL     1       1.013  14.693  23.509  0.00  0.00    +0.000 HD
ENDBRANCH  18  23
ENDBRANCH  11  15
ENDBRANCH   1  11
BRANCH   2  25
ATOM     25  O   UNL     1      -3.667  13.370  20.549  0.00  0.00    +0.000 OA
BRANCH  25  26
ATOM     26  C   UNL     1      -2.630  12.522  20.144  0.00  0.00    +0.000 A 
ATOM     27  C   UNL     1      -1.592  12.485  20.985  0.00  0.00    +0.000 A 
ATOM     28  C   UNL     1      -0.400  11.634  20.824  0.00  0.00    +0.000 A 
ATOM     29  O   UNL     1       0.483  11.693  21.677  0.00  0.00    +0.000 OA
ATOM     30  N   UNL     1      -0.365  10.808  19.715  0.00  0.00    +0.000 N 
ATOM     31  C   UNL     1       0.774   9.909  19.567  0.00  0.00    +0.000 C 
ATOM     32  C   UNL     1      -1.413  10.806  18.748  0.00  0.00    +0.000 A 
ATOM     33  C   UNL     1      -1.297   9.982  17.597  0.00  0.00    +0.000 A 
ATOM     34  C   UNL     1      -2.280   9.949  16.620  0.00  0.00    +0.000 A 
ATOM     35  C   UNL     1      -3.400  10.735  16.787  0.00  0.00    +0.000 A 
ATOM     36  C   UNL     1      -3.538  11.542  17.934  0.00  0.00    +0.000 A 
ATOM     37  C   UNL     1      -2.562  11.633  18.928  0.00  0.00    +0.000 A 
ENDBRANCH  25  26
ENDBRANCH   2  25
BRANCH   4  38
ATOM     38  C   UNL     1      -7.915  11.555  21.464  0.00  0.00    +0.000 C 
BRANCH  38  39
ATOM     39  O   UNL     1      -7.733  10.142  21.370  0.00  0.00    +0.000 OA
ATOM     40  H   UNL     1      -7.805   9.800  22.284  0.00  0.00    +0.000 HD
ENDBRANCH  38  39
ENDBRANCH   4  38
TORSDOF 11
ENDMDL
MODEL 7
REMARK VINA RESULT:      -7.3      1.515      1.800
REMARK  Name = 
REMARK  13 active torsions:
REMARK  status: ('A' for Active; 'I' for Inactive)
REMARK    1  A    between atoms: C_1  and  C_2
REMARK    2  A    between atoms: C_4  and  O_5
REMARK    3  A    between atoms: O_5  and  C_6
REMARK    4  A    between atoms: C_7  and  O_8
REMARK    5  A    between atoms: O_8  and  C_9
REMARK    6  A    between atoms: N_13  and  C_14
REMARK    7  A    between atoms: C_22  and  C_23
REMARK    8  A    between atoms: C_23  and  O_24
REMARK    9  A    between atoms: C_25  and  O_26
REMARK   10  A    between atoms: C_27  and  O_28
REMARK   11  A    between atoms: C_29  and  O_30
REMARK   12  A    between atoms: C_31  and  O_32
REMARK   13  A    between atoms: C_33  and  O_34
REMARK                            x       y       z     vdW  Elec       q    Type
REMARK                         _______ _______ _______ _____ _____    ______ ____
ROOT
ATOM      1  C   UNL     1       3.851   4.641  19.875  0.00  0.00    +0.000 C 
ATOM      2  C   UNL     1       2.489   5.385  19.674  0.00  0.00    +0.000 C 
ATOM      3  O   UNL     1       1.436   4.453  19.941  0.00  0.00    +0.000 OA
ATOM      4  C   UNL     1       1.352   3.413  18.956  0.00  0.00    +0.000 C 
ATOM      5  C   UNL     1       2.615   2.557  18.946  0.00  0.00    +0.000 C 
ATOM      6  C   UNL     1       3.856   3.450  18.880  0.00  0.00    +0.000 C 
ENDROOT
BRANCH   5   7
ATOM      7  O   UNL     1       2.583   1.660  17.828  0.00  0.00    +0.000 OA
ATOM      8  H   UNL     1       2.098   2.078  17.092  0.00  0.00    +0.000 HD
ENDBRANCH   5   7
BRANCH   6   9
ATOM      9  O   UNL     1       5.052   2.662  19.006  0.00  0.00    +0.000 OA
ATOM     10  H   UNL     1       4.849   1.858  19.516  0.00  0.00    +0.000 HD
ENDBRANCH   6   9
BRANCH   1  11
ATOM     11  O   UNL     1       4.981   5.375  19.417  0.00  0.00    +0.000 OA
BRANCH  11  15
ATOM     12  C   UNL     1       6.072   3.677  15.812  0.00  0.00    +0.000 C 
ATOM     13  C   UNL     1       6.101   4.470  17.110  0.00  0.00    +0.000 C 
ATOM     14  O   UNL     1       4.975   5.357  17.098  0.00  0.00    +0.000 OA
ATOM     15  C   UNL     1       4.917   6.190  18.255  0.00  0.00    +0.000 C 
ATOM     16  C   UNL     1       6.178   7.096  18.295  0.00  0.00    +0.000 C 
ATOM     17  C   UNL     1       7.382   6.168  18.502  0.00  0.00    +0.000 C 
ATOM     18  C   UNL     1       7.463   5.180  17.324  0.00  0.00    +0.000 C 
BRANCH  16  19
ATOM     19  O   UNL     1       6.345   7.868  17.095  0.00  0.00    +0.000 OA
ATOM     20  H   UNL     1       7.083   8.486  17.275  0.00  0.00    +0.000 HD
ENDBRANCH  16  19
BRANCH  17  21
ATOM     21  O   UNL     1       8.575   6.952  18.626  0.00  0.00    +0.000 OA
ATOM     22  H   UNL     1       8.879   6.844  19.546  0.00  0.00    +0.000 HD
ENDBRANCH  17  21
BRANCH  18  23
ATOM     23  O   UNL     1       8.503   4.220  17.566  0.00  0.00    +0.000 OA
ATOM     24  H   UNL     1       8.371   3.849  18.455  0.00  0.00    +0.000 HD
ENDBRANCH  18  23
ENDBRANCH  11  15
ENDBRANCH   1  11
BRANCH   2  25
ATOM     25  O   UNL     1       2.357   6.526  20.512  0.00  0.00    +0.000 OA
BRANCH  25  26
ATOM     26  C   UNL     1       1.838   7.777  20.158  0.00  0.00    +0.000 A 
ATOM     27  C   UNL     1       2.122   8.154  18.908  0.00  0.00    +0.000 A 
ATOM     28  C   UNL     1       1.651   9.396  18.269  0.00  0.00    +0.000 A 
ATOM     29  O   UNL     1       1.983   9.621  17.107  0.00  0.00    +0.000 OA
ATOM     30  N   UNL     1       0.846  10.226  19.030  0.00  0.00    +0.000 N 
ATOM     31  C   UNL     1       0.315  11.428  18.399  0.00  0.00    +0.000 C 
ATOM     32  C   UNL     1       0.519   9.918  20.383  0.00  0.00    +0.000 A 
ATOM     33  C   UNL     1      -0.261  10.835  21.137  0.00  0.00    +0.000 A 
ATOM     34  C   UNL     1      -0.599  10.593  22.459  0.00  0.00    +0.000 A 
ATOM     35  C   UNL     1      -0.170   9.420  23.043  0.00  0.00    +0.000 A 
ATOM     36  C   UNL     1       0.588   8.492  22.302  0.00  0.00    +0.000 A 
ATOM     37  C   UNL     1       0.980   8.706  20.979  0.00  0.00    +0.000 A 
ENDBRANCH  25  26
ENDBRANCH   2  25
BRANCH   4  38
ATOM     38  C   UNL     1       0.112   2.575  19.274  0.00  0.00    +0.000 C 
BRANCH  38  39
ATOM     39  O   UNL     1      -0.065   1.590  18.255  0.00  0.00    +0.000 OA
ATOM     40  H   UNL     1      -0.048   0.725  18.711  0.00  0.00    +0.000 HD
ENDBRANCH  38  39
ENDBRANCH   4  38
TORSDOF 11
ENDMDL
MODEL 8
REMARK VINA RESULT:      -7.2      6.132     11.530
REMARK  Name = 
REMARK  13 active torsions:
REMARK  status: ('A' for Active; 'I' for Inactive)
REMARK    1  A    between atoms: C_1  and  C_2
REMARK    2  A    between atoms: C_4  and  O_5
REMARK    3  A    between atoms: O_5  and  C_6
REMARK    4  A    between atoms: C_7  and  O_8
REMARK    5  A    between atoms: O_8  and  C_9
REMARK    6  A    between atoms: N_13  and  C_14
REMARK    7  A    between atoms: C_22  and  C_23
REMARK    8  A    between atoms: C_23  and  O_24
REMARK    9  A    between atoms: C_25  and  O_26
REMARK   10  A    between atoms: C_27  and  O_28
REMARK   11  A    between atoms: C_29  and  O_30
REMARK   12  A    between atoms: C_31  and  O_32
REMARK   13  A    between atoms: C_33  and  O_34
REMARK                            x       y       z     vdW  Elec       q    Type
REMARK                         _______ _______ _______ _____ _____    ______ ____
ROOT
ATOM      1  C   UNL     1      -3.495  12.961  22.021  0.00  0.00    +0.000 C 
ATOM      2  C   UNL     1      -2.886  14.249  21.373  0.00  0.00    +0.000 C 
ATOM      3  O   UNL     1      -1.907  14.775  22.275  0.00  0.00    +0.000 OA
ATOM      4  C   UNL     1      -2.488  15.298  23.480  0.00  0.00    +0.000 C 
ATOM      5  C   UNL     1      -3.184  14.201  24.280  0.00  0.00    +0.000 C 
ATOM      6  C   UNL     1      -4.121  13.400  23.373  0.00  0.00    +0.000 C 
ENDROOT
BRANCH   5   7
ATOM      7  O   UNL     1      -3.915  14.785  25.366  0.00  0.00    +0.000 OA
ATOM      8  H   UNL     1      -3.444  14.612  26.203  0.00  0.00    +0.000 HD
ENDBRANCH   5   7
BRANCH   6   9
ATOM      9  O   UNL     1      -4.678  12.282  24.085  0.00  0.00    +0.000 OA
ATOM     10  H   UNL     1      -4.085  11.517  23.985  0.00  0.00    +0.000 HD
ENDBRANCH   6   9
BRANCH   1  11
ATOM     11  O   UNL     1      -4.645  12.465  21.345  0.00  0.00    +0.000 OA
BRANCH  11  15
ATOM     12  C   UNL     1      -7.901  10.012  20.675  0.00  0.00    +0.000 C 
ATOM     13  C   UNL     1      -6.824  11.074  20.503  0.00  0.00    +0.000 C 
ATOM     14  O   UNL     1      -6.881  11.932  21.650  0.00  0.00    +0.000 OA
ATOM     15  C   UNL     1      -5.938  13.002  21.585  0.00  0.00    +0.000 C 
ATOM     16  C   UNL     1      -6.266  13.898  20.360  0.00  0.00    +0.000 C 
ATOM     17  C   UNL     1      -6.023  13.042  19.109  0.00  0.00    +0.000 C 
ATOM     18  C   UNL     1      -6.955  11.818  19.149  0.00  0.00    +0.000 C 
BRANCH  16  19
ATOM     19  O   UNL     1      -7.618  14.384  20.374  0.00  0.00    +0.000 OA
ATOM     20  H   UNL     1      -8.125  13.784  19.790  0.00  0.00    +0.000 HD
ENDBRANCH  16  19
BRANCH  17  21
ATOM     21  O   UNL     1      -6.234  13.838  17.936  0.00  0.00    +0.000 OA
ATOM     22  H   UNL     1      -6.377  13.211  17.203  0.00  0.00    +0.000 HD
ENDBRANCH  17  21
BRANCH  18  23
ATOM     23  O   UNL     1      -6.648  10.938  18.056  0.00  0.00    +0.000 OA
ATOM     24  H   UNL     1      -6.800  10.025  18.351  0.00  0.00    +0.000 HD
ENDBRANCH  18  23
ENDBRANCH  11  15
ENDBRANCH   1  11
BRANCH   2  25
ATOM     25  O   UNL     1      -2.297  13.998  20.104  0.00  0.00    +0.000 OA
BRANCH  25  26
ATOM     26  C   UNL     1      -1.534  12.884  19.733  0.00  0.00    +0.000 A 
ATOM     27  C   UNL     1      -0.394  12.750  20.417  0.00  0.00    +0.000 A 
ATOM     28  C   UNL     1       0.561  11.638  20.262  0.00  0.00    +0.000 A 
ATOM     29  O   UNL     1       1.574  11.633  20.960  0.00  0.00    +0.000 OA
ATOM     30  N   UNL     1       0.240  10.659  19.339  0.00  0.00    +0.000 N 
ATOM     31  C   UNL     1       1.136   9.516  19.214  0.00  0.00    +0.000 C 
ATOM     32  C   UNL     1      -0.940  10.739  18.542  0.00  0.00    +0.000 A 
ATOM     33  C   UNL     1      -1.191   9.737  17.567  0.00  0.00    +0.000 A 
ATOM     34  C   UNL     1      -2.315   9.771  16.757  0.00  0.00    +0.000 A 
ATOM     35  C   UNL     1      -3.213  10.805  16.920  0.00  0.00    +0.000 A 
ATOM     36  C   UNL     1      -2.987  11.794  17.897  0.00  0.00    +0.000 A 
ATOM     37  C   UNL     1      -1.855  11.821  18.713  0.00  0.00    +0.000 A 
ENDBRANCH  25  26
ENDBRANCH   2  25
BRANCH   4  38
ATOM     38  C   UNL     1      -1.364  15.951  24.287  0.00  0.00    +0.000 C 
BRANCH  38  39
ATOM     39  O   UNL     1      -0.998  15.090  25.366  0.00  0.00    +0.000 OA
ATOM     40  H   UNL     1      -0.719  14.248  24.954  0.00  0.00    +0.000 HD
ENDBRANCH  38  39
ENDBRANCH   4  38
TORSDOF 11
ENDMDL
MODEL 9
REMARK VINA RESULT:      -7.2      1.822      4.709
REMARK  Name = 
REMARK  13 active torsions:
REMARK  status: ('A' for Active; 'I' for Inactive)
REMARK    1  A    between atoms: C_1  and  C_2
REMARK    2  A    between atoms: C_4  and  O_5
REMARK    3  A    between atoms: O_5  and  C_6
REMARK    4  A    between atoms: C_7  and  O_8
REMARK    5  A    between atoms: O_8  and  C_9
REMARK    6  A    between atoms: N_13  and  C_14
REMARK    7  A    between atoms: C_22  and  C_23
REMARK    8  A    between atoms: C_23  and  O_24
REMARK    9  A    between atoms: C_25  and  O_26
REMARK   10  A    between atoms: C_27  and  O_28
REMARK   11  A    between atoms: C_29  and  O_30
REMARK   12  A    between atoms: C_31  and  O_32
REMARK   13  A    between atoms: C_33  and  O_34
REMARK                            x       y       z     vdW  Elec       q    Type
REMARK                         _______ _______ _______ _____ _____    ______ ____
ROOT
ATOM      1  C   UNL     1       4.038   5.555  17.130  0.00  0.00    +0.000 C 
ATOM      2  C   UNL     1       3.997   6.943  17.852  0.00  0.00    +0.000 C 
ATOM      3  O   UNL     1       5.104   7.718  17.378  0.00  0.00    +0.000 OA
ATOM      4  C   UNL     1       6.370   7.198  17.810  0.00  0.00    +0.000 C 
ATOM      5  C   UNL     1       6.619   5.803  17.243  0.00  0.00    +0.000 C 
ATOM      6  C   UNL     1       5.403   4.908  17.491  0.00  0.00    +0.000 C 
ENDROOT
BRANCH   5   7
ATOM      7  O   UNL     1       7.790   5.238  17.846  0.00  0.00    +0.000 OA
ATOM      8  H   UNL     1       8.462   5.077  17.158  0.00  0.00    +0.000 HD
ENDBRANCH   5   7
BRANCH   6   9
ATOM      9  O   UNL     1       5.572   3.636  16.843  0.00  0.00    +0.000 OA
ATOM     10  H   UNL     1       5.399   3.740  15.892  0.00  0.00    +0.000 HD
ENDBRANCH   6   9
BRANCH   1  11
ATOM     11  O   UNL     1       3.138   4.596  17.675  0.00  0.00    +0.000 OA
BRANCH  11  15
ATOM     12  C   UNL     1       4.658   2.232  20.703  0.00  0.00    +0.000 C 
ATOM     13  C   UNL     1       3.769   2.777  19.595  0.00  0.00    +0.000 C 
ATOM     14  O   UNL     1       3.456   4.137  19.925  0.00  0.00    +0.000 OA
ATOM     15  C   UNL     1       2.585   4.749  18.974  0.00  0.00    +0.000 C 
ATOM     16  C   UNL     1       1.232   3.988  18.958  0.00  0.00    +0.000 C 
ATOM     17  C   UNL     1       1.522   2.580  18.421  0.00  0.00    +0.000 C 
ATOM     18  C   UNL     1       2.524   1.882  19.359  0.00  0.00    +0.000 C 
BRANCH  16  19
ATOM     19  O   UNL     1       0.625   3.909  20.257  0.00  0.00    +0.000 OA
ATOM     20  H   UNL     1       0.152   4.758  20.384  0.00  0.00    +0.000 HD
ENDBRANCH  16  19
BRANCH  17  21
ATOM     21  O   UNL     1       0.296   1.848  18.308  0.00  0.00    +0.000 OA
ATOM     22  H   UNL     1       0.525   0.994  17.896  0.00  0.00    +0.000 HD
ENDBRANCH  17  21
BRANCH  18  23
ATOM     23  O   UNL     1       2.910   0.616  18.801  0.00  0.00    +0.000 OA
ATOM     24  H   UNL     1       2.207  -0.026  18.993  0.00  0.00    +0.000 HD
ENDBRANCH  18  23
ENDBRANCH  11  15
ENDBRANCH   1  11
BRANCH   2  25
ATOM     25  O   UNL     1       2.779   7.642  17.629  0.00  0.00    +0.000 OA
BRANCH  25  26
ATOM     26  C   UNL     1       2.294   8.741  18.347  0.00  0.00    +0.000 A 
ATOM     27  C   UNL     1       2.500   9.919  17.749  0.00  0.00    +0.000 A 
ATOM     28  C   UNL     1       2.040  11.222  18.263  0.00  0.00    +0.000 A 
ATOM     29  O   UNL     1       2.294  12.232  17.610  0.00  0.00    +0.000 OA
ATOM     30  N   UNL     1       1.336  11.213  19.454  0.00  0.00    +0.000 N 
ATOM     31  C   UNL     1       0.815  12.482  19.949  0.00  0.00    +0.000 C 
ATOM     32  C   UNL     1       1.099  10.006  20.176  0.00  0.00    +0.000 A 
ATOM     33  C   UNL     1       0.423  10.063  21.423  0.00  0.00    +0.000 A 
ATOM     34  C   UNL     1       0.175   8.924  22.173  0.00  0.00    +0.000 A 
ATOM     35  C   UNL     1       0.592   7.707  21.676  0.00  0.00    +0.000 A 
ATOM     36  C   UNL     1       1.246   7.633  20.431  0.00  0.00    +0.000 A 
ATOM     37  C   UNL     1       1.546   8.755  19.656  0.00  0.00    +0.000 A 
ENDBRANCH  25  26
ENDBRANCH   2  25
BRANCH   4  38
ATOM     38  C   UNL     1       7.450   8.185  17.363  0.00  0.00    +0.000 C 
BRANCH  38  39
ATOM     39  O   UNL     1       8.473   8.246  18.358  0.00  0.00    +0.000 OA
ATOM     40  H   UNL     1       8.010   8.357  19.212  0.00  0.00    +0.000 HD
ENDBRANCH  38  39
ENDBRANCH   4  38
TORSDOF 11
ENDMDL
