MODEL 1
REMARK VINA RESULT:      -8.1      0.000      0.000
REMARK  Name = 
REMARK  3 active torsions:
REMARK  status: ('A' for Active; 'I' for Inactive)
REMARK    1  A    between atoms: C_5  and  O_6
REMARK    2  A    between atoms: O_6  and  C_7
REMARK    3  A    between atoms: C_7  and  C_8
REMARK                            x       y       z     vdW  Elec       q    Type
REMARK                         _______ _______ _______ _____ _____    ______ ____
ROOT
ATOM      1  C   UNL     1       3.575   3.437  18.239  0.00  0.00    +0.000 C 
ATOM      2  C   UNL     1       2.630   2.254  17.921  0.00  0.00    +0.000 C 
ATOM      3  N   UNL     1       2.287   1.512  19.146  0.00  0.00    +0.000 NA
ATOM      4  C   UNL     1       1.657   2.393  20.138  0.00  0.00    +0.000 C 
ATOM      5  C   UNL     1       2.582   3.561  20.487  0.00  0.00    +0.000 C 
ATOM      6  N   UNL     1       2.927   4.274  19.261  0.00  0.00    +0.000 N 
ATOM      7  C   UNL     1       2.592   5.671  19.152  0.00  0.00    +0.000 A 
ATOM      8  N   UNL     1       2.008   6.352  20.173  0.00  0.00    +0.000 NA
ATOM      9  C   UNL     1       1.853   7.579  19.674  0.00  0.00    +0.000 A 
ATOM     10  N   UNL     1       1.302   8.644  20.304  0.00  0.00    +0.000 NA
ATOM     11  C   UNL     1       1.215   9.830  19.631  0.00  0.00    +0.000 A 
ATOM     12  C   UNL     1       1.696   9.937  18.304  0.00  0.00    +0.000 A 
ATOM     13  C   UNL     1       2.267   8.813  17.670  0.00  0.00    +0.000 A 
ATOM     14  C   UNL     1       2.327   7.629  18.405  0.00  0.00    +0.000 A 
ATOM     15  O   UNL     1       2.789   6.439  18.081  0.00  0.00    +0.000 OA
ATOM     16  H   UNL     1       3.156   1.094  19.556  0.00  0.00    +0.000 HD
ENDROOT
BRANCH   1  17
ATOM     17  C   UNL     1       3.991   4.157  16.947  0.00  0.00    +0.000 C 
BRANCH  17  18
ATOM     18  O   UNL     1       5.377   4.178  16.851  0.00  0.00    +0.000 OA
BRANCH  18  23
ATOM     19  C   UNL     1       7.852   6.130  18.766  0.00  0.00    +0.000 A 
ATOM     20  C   UNL     1       7.786   7.330  18.056  0.00  0.00    +0.000 A 
ATOM     21  N   UNL     1       6.952   7.443  16.989  0.00  0.00    +0.000 NA
ATOM     22  C   UNL     1       6.163   6.410  16.583  0.00  0.00    +0.000 A 
ATOM     23  C   UNL     1       6.188   5.187  17.270  0.00  0.00    +0.000 A 
ATOM     24  C   UNL     1       7.052   5.058  18.373  0.00  0.00    +0.000 A 
ENDBRANCH  18  23
ENDBRANCH  17  18
ENDBRANCH   1  17
TORSDOF 3
ENDMDL
MODEL 2
REMARK VINA RESULT:      -8.0      0.733      1.072
REMARK  Name = 
REMARK  3 active torsions:
REMARK  status: ('A' for Active; 'I' for Inactive)
REMARK    1  A    between atoms: C_5  and  O_6
REMARK    2  A    between atoms: O_6  and  C_7
REMARK    3  A    between atoms: C_7  and  C_8
REMARK                            x       y       z     vdW  Elec       q    Type
REMARK                         _______ _______ _______ _____ _____    ______ ____
ROOT
ATOM      1  C   UNL     1       3.860   3.415  17.935  0.00  0.00    +0.000 C 
ATOM      2  C   UNL     1       2.963   2.197  17.614  0.00  0.00    +0.000 C 
ATOM      3  N   UNL     1       2.718   1.391  18.822  0.00  0.00    +0.000 NA
ATOM      4  C   UNL     1       2.092   2.199  19.877  0.00  0.00    +0.000 C 
ATOM      5  C   UNL     1       2.973   3.400  20.231  0.00  0.00    +0.000 C 
ATOM      6  N   UNL     1       3.221   4.177  19.020  0.00  0.00    +0.000 N 
ATOM      7  C   UNL     1       2.810   5.557  18.984  0.00  0.00    +0.000 A 
ATOM      8  N   UNL     1       2.242   6.167  20.059  0.00  0.00    +0.000 NA
ATOM      9  C   UNL     1       2.001   7.402  19.618  0.00  0.00    +0.000 A 
ATOM     10  N   UNL     1       1.427   8.411  20.316  0.00  0.00    +0.000 NA
ATOM     11  C   UNL     1       1.248   9.616  19.697  0.00  0.00    +0.000 A 
ATOM     12  C   UNL     1       1.657   9.799  18.354  0.00  0.00    +0.000 A 
ATOM     13  C   UNL     1       2.254   8.732  17.649  0.00  0.00    +0.000 A 
ATOM     14  C   UNL     1       2.409   7.526  18.331  0.00  0.00    +0.000 A 
ATOM     15  O   UNL     1       2.915   6.375  17.937  0.00  0.00    +0.000 OA
ATOM     16  H   UNL     1       3.626   1.005  19.173  0.00  0.00    +0.000 HD
ENDROOT
BRANCH   1  17
ATOM     17  C   UNL     1       4.175   4.205  16.656  0.00  0.00    +0.000 C 
BRANCH  17  18
ATOM     18  O   UNL     1       5.552   4.307  16.499  0.00  0.00    +0.000 OA
BRANCH  18  23
ATOM     19  C   UNL     1       7.397   7.307  17.595  0.00  0.00    +0.000 A 
ATOM     20  C   UNL     1       8.099   6.757  18.668  0.00  0.00    +0.000 A 
ATOM     21  N   UNL     1       7.932   5.447  18.988  0.00  0.00    +0.000 NA
ATOM     22  C   UNL     1       7.093   4.638  18.285  0.00  0.00    +0.000 A 
ATOM     23  C   UNL     1       6.372   5.143  17.193  0.00  0.00    +0.000 A 
ATOM     24  C   UNL     1       6.533   6.499  16.857  0.00  0.00    +0.000 A 
ENDBRANCH  18  23
ENDBRANCH  17  18
ENDBRANCH   1  17
TORSDOF 3
ENDMDL
MODEL 3
REMARK VINA RESULT:      -7.9      1.509      2.016
REMARK  Name = 
REMARK  3 active torsions:
REMARK  status: ('A' for Active; 'I' for Inactive)
REMARK    1  A    between atoms: C_5  and  O_6
REMARK    2  A    between atoms: O_6  and  C_7
REMARK    3  A    between atoms: C_7  and  C_8
REMARK                            x       y       z     vdW  Elec       q    Type
REMARK                         _______ _______ _______ _____ _____    ______ ____
ROOT
ATOM      1  C   UNL     1       3.292   3.961  19.089  0.00  0.00    +0.000 C 
ATOM      2  C   UNL     1       2.349   2.752  18.884  0.00  0.00    +0.000 C 
ATOM      3  N   UNL     1       1.976   2.152  20.176  0.00  0.00    +0.000 NA
ATOM      4  C   UNL     1       1.328   3.140  21.050  0.00  0.00    +0.000 C 
ATOM      5  C   UNL     1       2.251   4.337  21.287  0.00  0.00    +0.000 C 
ATOM      6  N   UNL     1       2.626   4.908  19.997  0.00  0.00    +0.000 N 
ATOM      7  C   UNL     1       2.299   6.285  19.725  0.00  0.00    +0.000 A 
ATOM      8  N   UNL     1       1.695   7.077  20.651  0.00  0.00    +0.000 NA
ATOM      9  C   UNL     1       1.557   8.240  20.015  0.00  0.00    +0.000 A 
ATOM     10  N   UNL     1       0.997   9.370  20.509  0.00  0.00    +0.000 NA
ATOM     11  C   UNL     1       0.930  10.474  19.706  0.00  0.00    +0.000 A 
ATOM     12  C   UNL     1       1.440  10.431  18.386  0.00  0.00    +0.000 A 
ATOM     13  C   UNL     1       2.021   9.242  17.895  0.00  0.00    +0.000 A 
ATOM     14  C   UNL     1       2.059   8.148  18.758  0.00  0.00    +0.000 A 
ATOM     15  O   UNL     1       2.523   6.928  18.580  0.00  0.00    +0.000 OA
ATOM     16  H   UNL     1       2.834   1.781  20.649  0.00  0.00    +0.000 HD
ENDROOT
BRANCH   1  17
ATOM     17  C   UNL     1       3.739   4.531  17.735  0.00  0.00    +0.000 C 
BRANCH  17  18
ATOM     18  O   UNL     1       5.058   4.168  17.489  0.00  0.00    +0.000 OA
BRANCH  18  23
ATOM     19  C   UNL     1       6.093   4.095  13.950  0.00  0.00    +0.000 A 
ATOM     20  C   UNL     1       7.236   4.891  14.036  0.00  0.00    +0.000 A 
ATOM     21  N   UNL     1       7.608   5.418  15.233  0.00  0.00    +0.000 NA
ATOM     22  C   UNL     1       6.894   5.191  16.369  0.00  0.00    +0.000 A 
ATOM     23  C   UNL     1       5.743   4.391  16.334  0.00  0.00    +0.000 A 
ATOM     24  C   UNL     1       5.346   3.845  15.101  0.00  0.00    +0.000 A 
ENDBRANCH  18  23
ENDBRANCH  17  18
ENDBRANCH   1  17
TORSDOF 3
ENDMDL
MODEL 4
REMARK VINA RESULT:      -7.9      1.950      2.423
REMARK  Name = 
REMARK  3 active torsions:
REMARK  status: ('A' for Active; 'I' for Inactive)
REMARK    1  A    between atoms: C_5  and  O_6
REMARK    2  A    between atoms: O_6  and  C_7
REMARK    3  A    between atoms: C_7  and  C_8
REMARK                            x       y       z     vdW  Elec       q    Type
REMARK                         _______ _______ _______ _____ _____    ______ ____
ROOT
ATOM      1  C   UNL     1       4.231   3.630  17.997  0.00  0.00    +0.000 C 
ATOM      2  C   UNL     1       3.439   2.376  17.560  0.00  0.00    +0.000 C 
ATOM      3  N   UNL     1       3.125   1.523  18.718  0.00  0.00    +0.000 NA
ATOM      4  C   UNL     1       2.356   2.264  19.727  0.00  0.00    +0.000 C 
ATOM      5  C   UNL     1       3.130   3.499  20.194  0.00  0.00    +0.000 C 
ATOM      6  N   UNL     1       3.449   4.323  19.033  0.00  0.00    +0.000 N 
ATOM      7  C   UNL     1       2.967   5.681  18.990  0.00  0.00    +0.000 A 
ATOM      8  N   UNL     1       2.264   6.226  20.019  0.00  0.00    +0.000 NA
ATOM      9  C   UNL     1       1.998   7.459  19.587  0.00  0.00    +0.000 A 
ATOM     10  N   UNL     1       1.304   8.415  20.250  0.00  0.00    +0.000 NA
ATOM     11  C   UNL     1       1.117   9.626  19.646  0.00  0.00    +0.000 A 
ATOM     12  C   UNL     1       1.642   9.872  18.354  0.00  0.00    +0.000 A 
ATOM     13  C   UNL     1       2.363   8.859  17.685  0.00  0.00    +0.000 A 
ATOM     14  C   UNL     1       2.520   7.644  18.349  0.00  0.00    +0.000 A 
ATOM     15  O   UNL     1       3.126   6.533  17.979  0.00  0.00    +0.000 OA
ATOM     16  H   UNL     1       4.015   1.175  19.146  0.00  0.00    +0.000 HD
ENDROOT
BRANCH   1  17
ATOM     17  C   UNL     1       4.623   4.474  16.774  0.00  0.00    +0.000 C 
BRANCH  17  18
ATOM     18  O   UNL     1       5.277   3.673  15.846  0.00  0.00    +0.000 OA
BRANCH  18  23
ATOM     19  C   UNL     1       6.745   4.143  12.496  0.00  0.00    +0.000 A 
ATOM     20  C   UNL     1       7.737   5.071  12.816  0.00  0.00    +0.000 A 
ATOM     21  N   UNL     1       7.874   5.504  14.097  0.00  0.00    +0.000 NA
ATOM     22  C   UNL     1       7.066   5.055  15.096  0.00  0.00    +0.000 A 
ATOM     23  C   UNL     1       6.060   4.115  14.824  0.00  0.00    +0.000 A 
ATOM     24  C   UNL     1       5.906   3.665  13.501  0.00  0.00    +0.000 A 
ENDBRANCH  18  23
ENDBRANCH  17  18
ENDBRANCH   1  17
TORSDOF 3
ENDMDL
MODEL 5
REMARK VINA RESULT:      -7.7      1.840      4.753
REMARK  Name = 
REMARK  3 active torsions:
REMARK  status: ('A' for Active; 'I' for Inactive)
REMARK    1  A    between atoms: C_5  and  O_6
REMARK    2  A    between atoms: O_6  and  C_7
REMARK    3  A    between atoms: C_7  and  C_8
REMARK                            x       y       z     vdW  Elec       q    Type
REMARK                         _______ _______ _______ _____ _____    ______ ____
ROOT
ATOM      1  C   UNL     1       5.699   4.374  17.952  0.00  0.00    +0.000 C 
ATOM      2  C   UNL     1       7.221   4.637  17.876  0.00  0.00    +0.000 C 
ATOM      3  N   UNL     1       7.661   4.780  16.478  0.00  0.00    +0.000 NA
ATOM      4  C   UNL     1       6.939   5.869  15.806  0.00  0.00    +0.000 C 
ATOM      5  C   UNL     1       5.430   5.620  15.847  0.00  0.00    +0.000 C 
ATOM      6  N   UNL     1       5.014   5.462  17.237  0.00  0.00    +0.000 N 
ATOM      7  C   UNL     1       4.029   6.366  17.775  0.00  0.00    +0.000 A 
ATOM      8  N   UNL     1       3.445   7.329  17.012  0.00  0.00    +0.000 NA
ATOM      9  C   UNL     1       2.628   7.943  17.868  0.00  0.00    +0.000 A 
ATOM     10  N   UNL     1       1.816   8.993  17.599  0.00  0.00    +0.000 NA
ATOM     11  C   UNL     1       1.050   9.505  18.607  0.00  0.00    +0.000 A 
ATOM     12  C   UNL     1       1.107   8.943  19.906  0.00  0.00    +0.000 A 
ATOM     13  C   UNL     1       1.960   7.848  20.161  0.00  0.00    +0.000 A 
ATOM     14  C   UNL     1       2.720   7.370  19.094  0.00  0.00    +0.000 A 
ATOM     15  O   UNL     1       3.593   6.385  19.033  0.00  0.00    +0.000 OA
ATOM     16  H   UNL     1       7.491   3.883  15.966  0.00  0.00    +0.000 HD
ENDROOT
BRANCH   1  17
ATOM     17  C   UNL     1       5.263   4.147  19.407  0.00  0.00    +0.000 C 
BRANCH  17  18
ATOM     18  O   UNL     1       4.506   2.985  19.490  0.00  0.00    +0.000 OA
BRANCH  18  23
ATOM     19  C   UNL     1       0.919   3.193  20.324  0.00  0.00    +0.000 A 
ATOM     20  C   UNL     1       0.385   2.692  19.136  0.00  0.00    +0.000 A 
ATOM     21  N   UNL     1       1.212   2.321  18.123  0.00  0.00    +0.000 NA
ATOM     22  C   UNL     1       2.565   2.421  18.229  0.00  0.00    +0.000 A 
ATOM     23  C   UNL     1       3.149   2.911  19.407  0.00  0.00    +0.000 A 
ATOM     24  C   UNL     1       2.303   3.302  20.459  0.00  0.00    +0.000 A 
ENDBRANCH  18  23
ENDBRANCH  17  18
ENDBRANCH   1  17
TORSDOF 3
ENDMDL
MODEL 6
REMARK VINA RESULT:      -7.5      1.980      4.900
REMARK  Name = 
REMARK  3 active torsions:
REMARK  status: ('A' for Active; 'I' for Inactive)
REMARK    1  A    between atoms: C_5  and  O_6
REMARK    2  A    between atoms: O_6  and  C_7
REMARK    3  A    between atoms: C_7  and  C_8
REMARK                            x       y       z     vdW  Elec       q    Type
REMARK                         _______ _______ _______ _____ _____    ______ ____
ROOT
ATOM      1  C   UNL     1       5.612   4.330  17.449  0.00  0.00    +0.000 C 
ATOM      2  C   UNL     1       7.142   4.547  17.384  0.00  0.00    +0.000 C 
ATOM      3  N   UNL     1       7.568   4.876  16.013  0.00  0.00    +0.000 NA
ATOM      4  C   UNL     1       6.879   6.076  15.520  0.00  0.00    +0.000 C 
ATOM      5  C   UNL     1       5.362   5.878  15.553  0.00  0.00    +0.000 C 
ATOM      6  N   UNL     1       4.959   5.534  16.913  0.00  0.00    +0.000 N 
ATOM      7  C   UNL     1       4.017   6.385  17.595  0.00  0.00    +0.000 A 
ATOM      8  N   UNL     1       3.460   7.469  16.992  0.00  0.00    +0.000 NA
ATOM      9  C   UNL     1       2.678   7.980  17.943  0.00  0.00    +0.000 A 
ATOM     10  N   UNL     1       1.903   9.087  17.845  0.00  0.00    +0.000 NA
ATOM     11  C   UNL     1       1.171   9.473  18.932  0.00  0.00    +0.000 A 
ATOM     12  C   UNL     1       1.224   8.727  20.133  0.00  0.00    +0.000 A 
ATOM     13  C   UNL     1       2.039   7.576  20.211  0.00  0.00    +0.000 A 
ATOM     14  C   UNL     1       2.765   7.232  19.071  0.00  0.00    +0.000 A 
ATOM     15  O   UNL     1       3.599   6.236  18.851  0.00  0.00    +0.000 OA
ATOM     16  H   UNL     1       7.357   4.070  15.379  0.00  0.00    +0.000 HD
ENDROOT
BRANCH   1  17
ATOM     17  C   UNL     1       5.187   3.909  18.864  0.00  0.00    +0.000 C 
BRANCH  17  18
ATOM     18  O   UNL     1       4.084   3.067  18.788  0.00  0.00    +0.000 OA
BRANCH  18  23
ATOM     19  C   UNL     1       0.774   3.098  20.415  0.00  0.00    +0.000 A 
ATOM     20  C   UNL     1       1.159   2.750  21.710  0.00  0.00    +0.000 A 
ATOM     21  N   UNL     1       2.469   2.514  21.988  0.00  0.00    +0.000 NA
ATOM     22  C   UNL     1       3.433   2.609  21.033  0.00  0.00    +0.000 A 
ATOM     23  C   UNL     1       3.096   2.964  19.719  0.00  0.00    +0.000 A 
ATOM     24  C   UNL     1       1.743   3.206  19.418  0.00  0.00    +0.000 A 
ENDBRANCH  18  23
ENDBRANCH  17  18
ENDBRANCH   1  17
TORSDOF 3
ENDMDL
MODEL 7
REMARK VINA RESULT:      -7.4      1.892      5.759
REMARK  Name = 
REMARK  3 active torsions:
REMARK  status: ('A' for Active; 'I' for Inactive)
REMARK    1  A    between atoms: C_5  and  O_6
REMARK    2  A    between atoms: O_6  and  C_7
REMARK    3  A    between atoms: C_7  and  C_8
REMARK                            x       y       z     vdW  Elec       q    Type
REMARK                         _______ _______ _______ _____ _____    ______ ____
ROOT
ATOM      1  C   UNL     1       1.617   5.050  19.680  0.00  0.00    +0.000 C 
ATOM      2  C   UNL     1       1.536   4.209  20.976  0.00  0.00    +0.000 C 
ATOM      3  N   UNL     1       0.817   2.946  20.739  0.00  0.00    +0.000 NA
ATOM      4  C   UNL     1       1.466   2.159  19.681  0.00  0.00    +0.000 C 
ATOM      5  C   UNL     1       1.537   2.962  18.380  0.00  0.00    +0.000 C 
ATOM      6  N   UNL     1       2.235   4.218  18.636  0.00  0.00    +0.000 N 
ATOM      7  C   UNL     1       3.437   4.509  17.895  0.00  0.00    +0.000 A 
ATOM      8  N   UNL     1       3.910   3.671  16.935  0.00  0.00    +0.000 NA
ATOM      9  C   UNL     1       5.018   4.282  16.515  0.00  0.00    +0.000 A 
ATOM     10  N   UNL     1       5.870   3.842  15.558  0.00  0.00    +0.000 NA
ATOM     11  C   UNL     1       6.969   4.598  15.262  0.00  0.00    +0.000 A 
ATOM     12  C   UNL     1       7.206   5.816  15.944  0.00  0.00    +0.000 A 
ATOM     13  C   UNL     1       6.302   6.253  16.937  0.00  0.00    +0.000 A 
ATOM     14  C   UNL     1       5.201   5.439  17.197  0.00  0.00    +0.000 A 
ATOM     15  O   UNL     1       4.212   5.581  18.057  0.00  0.00    +0.000 OA
ATOM     16  H   UNL     1      -0.171   3.154  20.460  0.00  0.00    +0.000 HD
ENDROOT
BRANCH   1  17
ATOM     17  C   UNL     1       2.297   6.399  19.954  0.00  0.00    +0.000 C 
BRANCH  17  18
ATOM     18  O   UNL     1       1.552   7.116  20.883  0.00  0.00    +0.000 OA
BRANCH  18  23
ATOM     19  C   UNL     1       0.848  10.511  19.629  0.00  0.00    +0.000 A 
ATOM     20  C   UNL     1       0.778  11.189  20.846  0.00  0.00    +0.000 A 
ATOM     21  N   UNL     1       0.953  10.511  22.012  0.00  0.00    +0.000 NA
ATOM     22  C   UNL     1       1.201   9.173  22.032  0.00  0.00    +0.000 A 
ATOM     23  C   UNL     1       1.288   8.450  20.833  0.00  0.00    +0.000 A 
ATOM     24  C   UNL     1       1.104   9.141  19.622  0.00  0.00    +0.000 A 
ENDBRANCH  18  23
ENDBRANCH  17  18
ENDBRANCH   1  17
TORSDOF 3
ENDMDL
MODEL 8
REMARK VINA RESULT:      -7.3      3.645      6.639
REMARK  Name = 
REMARK  3 active torsions:
REMARK  status: ('A' for Active; 'I' for Inactive)
REMARK    1  A    between atoms: C_5  and  O_6
REMARK    2  A    between atoms: O_6  and  C_7
REMARK    3  A    between atoms: C_7  and  C_8
REMARK                            x       y       z     vdW  Elec       q    Type
REMARK                         _______ _______ _______ _____ _____    ______ ____
ROOT
ATOM      1  C   UNL     1       0.798   9.933  20.990  0.00  0.00    +0.000 C 
ATOM      2  C   UNL     1       0.528   9.096  22.262  0.00  0.00    +0.000 C 
ATOM      3  N   UNL     1       0.155   9.962  23.392  0.00  0.00    +0.000 NA
ATOM      4  C   UNL     1      -1.031  10.768  23.071  0.00  0.00    +0.000 C 
ATOM      5  C   UNL     1      -0.780  11.624  21.828  0.00  0.00    +0.000 C 
ATOM      6  N   UNL     1      -0.394  10.752  20.723  0.00  0.00    +0.000 N 
ATOM      7  C   UNL     1      -1.198  10.749  19.527  0.00  0.00    +0.000 A 
ATOM      8  N   UNL     1      -2.275  11.567  19.382  0.00  0.00    +0.000 NA
ATOM      9  C   UNL     1      -2.739  11.250  18.173  0.00  0.00    +0.000 A 
ATOM     10  N   UNL     1      -3.820  11.784  17.557  0.00  0.00    +0.000 NA
ATOM     11  C   UNL     1      -4.158  11.328  16.314  0.00  0.00    +0.000 A 
ATOM     12  C   UNL     1      -3.388  10.318  15.688  0.00  0.00    +0.000 A 
ATOM     13  C   UNL     1      -2.265   9.778  16.350  0.00  0.00    +0.000 A 
ATOM     14  C   UNL     1      -1.970  10.281  17.617  0.00  0.00    +0.000 A 
ATOM     15  O   UNL     1      -1.008   9.971  18.462  0.00  0.00    +0.000 OA
ATOM     16  H   UNL     1       0.955  10.599  23.622  0.00  0.00    +0.000 HD
ENDROOT
BRANCH   1  17
ATOM     17  C   UNL     1       1.263   9.029  19.838  0.00  0.00    +0.000 C 
BRANCH  17  18
ATOM     18  O   UNL     1       2.022   7.981  20.345  0.00  0.00    +0.000 OA
BRANCH  18  23
ATOM     19  C   UNL     1       1.910   4.319  19.928  0.00  0.00    +0.000 A 
ATOM     20  C   UNL     1       2.373   4.230  18.615  0.00  0.00    +0.000 A 
ATOM     21  N   UNL     1       2.689   5.360  17.929  0.00  0.00    +0.000 NA
ATOM     22  C   UNL     1       2.570   6.595  18.488  0.00  0.00    +0.000 A 
ATOM     23  C   UNL     1       2.116   6.734  19.808  0.00  0.00    +0.000 A 
ATOM     24  C   UNL     1       1.781   5.572  20.525  0.00  0.00    +0.000 A 
ENDBRANCH  18  23
ENDBRANCH  17  18
ENDBRANCH   1  17
TORSDOF 3
ENDMDL
MODEL 9
REMARK VINA RESULT:      -7.3      1.896      5.752
REMARK  Name = 
REMARK  3 active torsions:
REMARK  status: ('A' for Active; 'I' for Inactive)
REMARK    1  A    between atoms: C_5  and  O_6
REMARK    2  A    between atoms: O_6  and  C_7
REMARK    3  A    between atoms: C_7  and  C_8
REMARK                            x       y       z     vdW  Elec       q    Type
REMARK                         _______ _______ _______ _____ _____    ______ ____
ROOT
ATOM      1  C   UNL     1       1.763   5.149  19.726  0.00  0.00    +0.000 C 
ATOM      2  C   UNL     1       1.598   4.205  20.941  0.00  0.00    +0.000 C 
ATOM      3  N   UNL     1       0.729   3.065  20.606  0.00  0.00    +0.000 NA
ATOM      4  C   UNL     1       1.264   2.310  19.465  0.00  0.00    +0.000 C 
ATOM      5  C   UNL     1       1.413   3.217  18.242  0.00  0.00    +0.000 C 
ATOM      6  N   UNL     1       2.262   4.351  18.595  0.00  0.00    +0.000 N 
ATOM      7  C   UNL     1       3.479   4.566  17.855  0.00  0.00    +0.000 A 
ATOM      8  N   UNL     1       3.835   3.772  16.810  0.00  0.00    +0.000 NA
ATOM      9  C   UNL     1       5.003   4.283  16.420  0.00  0.00    +0.000 A 
ATOM     10  N   UNL     1       5.782   3.837  15.406  0.00  0.00    +0.000 NA
ATOM     11  C   UNL     1       6.960   4.481  15.154  0.00  0.00    +0.000 A 
ATOM     12  C   UNL     1       7.352   5.592  15.939  0.00  0.00    +0.000 A 
ATOM     13  C   UNL     1       6.522   6.038  16.990  0.00  0.00    +0.000 A 
ATOM     14  C   UNL     1       5.333   5.341  17.202  0.00  0.00    +0.000 A 
ATOM     15  O   UNL     1       4.380   5.517  18.095  0.00  0.00    +0.000 OA
ATOM     16  H   UNL     1      -0.230   3.414  20.373  0.00  0.00    +0.000 HD
ENDROOT
BRANCH   1  17
ATOM     17  C   UNL     1       2.605   6.376  20.106  0.00  0.00    +0.000 C 
BRANCH  17  18
ATOM     18  O   UNL     1       2.046   7.517  19.544  0.00  0.00    +0.000 OA
BRANCH  18  23
ATOM     19  C   UNL     1       0.458   9.463  22.245  0.00  0.00    +0.000 A 
ATOM     20  C   UNL     1       0.048  10.574  21.508  0.00  0.00    +0.000 A 
ATOM     21  N   UNL     1       0.314  10.641  20.176  0.00  0.00    +0.000 NA
ATOM     22  C   UNL     1       0.975   9.644  19.527  0.00  0.00    +0.000 A 
ATOM     23  C   UNL     1       1.400   8.504  20.224  0.00  0.00    +0.000 A 
ATOM     24  C   UNL     1       1.135   8.427  21.603  0.00  0.00    +0.000 A 
ENDBRANCH  18  23
ENDBRANCH  17  18
ENDBRANCH   1  17
TORSDOF 3
ENDMDL
