MODEL 1
REMARK VINA RESULT:      -6.7      0.000      0.000
REMARK  Name = 
REMARK  5 active torsions:
REMARK  status: ('A' for Active; 'I' for Inactive)
REMARK    1  A    between atoms: C_1  and  C_2
REMARK    2  A    between atoms: C_2  and  C_3
REMARK    3  A    between atoms: C_2  and  C_4
REMARK    4  A    between atoms: C_6  and  C_7
REMARK    5  A    between atoms: N_14  and  C_15
REMARK                            x       y       z     vdW  Elec       q    Type
REMARK                         _______ _______ _______ _____ _____    ______ ____
ROOT
ATOM      1  C   UNL     1       4.516   4.259  15.976  0.00  0.00    +0.000 C 
ATOM      2  C   UNL     1       5.634   3.250  15.706  0.00  0.00    +0.000 C 
ATOM      3  C   UNL     1       6.772   4.102  15.178  0.00  0.00    +0.000 C 
ATOM      4  C   UNL     1       6.591   5.446  15.881  0.00  0.00    +0.000 C 
ATOM      5  N   UNL     1       5.252   5.446  16.448  0.00  0.00    +0.000 N 
ATOM      6  C   UNL     1       4.849   6.549  17.177  0.00  0.00    +0.000 C 
ATOM      7  O   UNL     1       5.614   7.489  17.386  0.00  0.00    +0.000 OA
ATOM      8  N   UNL     1       3.585   6.532  17.700  0.00  0.00    +0.000 N 
ATOM      9  H   UNL     1       2.973   5.756  17.518  0.00  0.00    +0.000 HD
ENDROOT
BRANCH   1  12
ATOM     10  C   UNL     1       2.476   3.100  18.773  0.00  0.00    +0.000 A 
ATOM     11  C   UNL     1       3.778   3.253  18.262  0.00  0.00    +0.000 A 
ATOM     12  C   UNL     1       3.596   3.725  16.993  0.00  0.00    +0.000 A 
ATOM     13  O   UNL     1       2.268   3.833  16.738  0.00  0.00    +0.000 OA
ATOM     14  N   UNL     1       1.557   3.446  17.859  0.00  0.00    +0.000 NA
BRANCH  10  16
ATOM     15  C   UNL     1       3.292   2.510  21.059  0.00  0.00    +0.000 C 
ATOM     16  C   UNL     1       2.077   2.661  20.145  0.00  0.00    +0.000 C 
ATOM     17  C   UNL     1       1.065   3.623  20.764  0.00  0.00    +0.000 C 
ENDBRANCH  10  16
ENDBRANCH   1  12
BRANCH   8  18
ATOM     18  C   UNL     1       3.059   7.550  18.589  0.00  0.00    +0.000 C 
ATOM     19  C   UNL     1       2.002   8.400  17.891  0.00  0.00    +0.000 C 
ATOM     20  C   UNL     1       1.298   9.118  19.032  0.00  0.00    +0.000 C 
ATOM     21  C   UNL     1       1.371   8.162  20.222  0.00  0.00    +0.000 C 
ATOM     22  C   UNL     1       2.280   7.006  19.790  0.00  0.00    +0.000 C 
ENDBRANCH   8  18
TORSDOF 3
ENDMDL
MODEL 2
REMARK VINA RESULT:      -6.6      1.143      1.214
REMARK  Name = 
REMARK  5 active torsions:
REMARK  status: ('A' for Active; 'I' for Inactive)
REMARK    1  A    between atoms: C_1  and  C_2
REMARK    2  A    between atoms: C_2  and  C_3
REMARK    3  A    between atoms: C_2  and  C_4
REMARK    4  A    between atoms: C_6  and  C_7
REMARK    5  A    between atoms: N_14  and  C_15
REMARK                            x       y       z     vdW  Elec       q    Type
REMARK                         _______ _______ _______ _____ _____    ______ ____
ROOT
ATOM      1  C   UNL     1       4.683   4.281  16.161  0.00  0.00    +0.000 C 
ATOM      2  C   UNL     1       5.896   3.402  15.845  0.00  0.00    +0.000 C 
ATOM      3  C   UNL     1       6.802   4.312  15.039  0.00  0.00    +0.000 C 
ATOM      4  C   UNL     1       6.516   5.709  15.586  0.00  0.00    +0.000 C 
ATOM      5  N   UNL     1       5.285   5.613  16.355  0.00  0.00    +0.000 N 
ATOM      6  C   UNL     1       4.822   6.748  16.993  0.00  0.00    +0.000 C 
ATOM      7  O   UNL     1       5.454   7.803  16.957  0.00  0.00    +0.000 OA
ATOM      8  N   UNL     1       3.662   6.641  17.710  0.00  0.00    +0.000 N 
ATOM      9  H   UNL     1       3.158   5.771  17.728  0.00  0.00    +0.000 HD
ENDROOT
BRANCH   1  12
ATOM     10  C   UNL     1       2.807   2.804  18.923  0.00  0.00    +0.000 A 
ATOM     11  C   UNL     1       2.750   3.310  17.611  0.00  0.00    +0.000 A 
ATOM     12  C   UNL     1       4.008   3.787  17.371  0.00  0.00    +0.000 A 
ATOM     13  O   UNL     1       4.778   3.602  18.472  0.00  0.00    +0.000 OA
ATOM     14  N   UNL     1       4.028   2.977  19.452  0.00  0.00    +0.000 NA
BRANCH  10  16
ATOM     15  C   UNL     1       1.557   2.707  21.082  0.00  0.00    +0.000 C 
ATOM     16  C   UNL     1       1.723   2.114  19.685  0.00  0.00    +0.000 C 
ATOM     17  C   UNL     1       0.397   2.159  18.929  0.00  0.00    +0.000 C 
ENDBRANCH  10  16
ENDBRANCH   1  12
BRANCH   8  18
ATOM     18  C   UNL     1       3.114   7.699  18.536  0.00  0.00    +0.000 C 
ATOM     19  C   UNL     1       2.080   8.518  17.770  0.00  0.00    +0.000 C 
ATOM     20  C   UNL     1       1.346   9.290  18.855  0.00  0.00    +0.000 C 
ATOM     21  C   UNL     1       1.382   8.389  20.090  0.00  0.00    +0.000 C 
ATOM     22  C   UNL     1       2.299   7.213  19.738  0.00  0.00    +0.000 C 
ENDBRANCH   8  18
TORSDOF 3
ENDMDL
MODEL 3
REMARK VINA RESULT:      -6.5      1.698      4.953
REMARK  Name = 
REMARK  5 active torsions:
REMARK  status: ('A' for Active; 'I' for Inactive)
REMARK    1  A    between atoms: C_1  and  C_2
REMARK    2  A    between atoms: C_2  and  C_3
REMARK    3  A    between atoms: C_2  and  C_4
REMARK    4  A    between atoms: C_6  and  C_7
REMARK    5  A    between atoms: N_14  and  C_15
REMARK                            x       y       z     vdW  Elec       q    Type
REMARK                         _______ _______ _______ _____ _____    ______ ____
ROOT
ATOM      1  C   UNL     1       2.281   7.237  20.332  0.00  0.00    +0.000 C 
ATOM      2  C   UNL     1       0.898   7.571  20.896  0.00  0.00    +0.000 C 
ATOM      3  C   UNL     1       0.635   8.980  20.403  0.00  0.00    +0.000 C 
ATOM      4  C   UNL     1       1.371   9.053  19.066  0.00  0.00    +0.000 C 
ATOM      5  N   UNL     1       2.272   7.912  19.021  0.00  0.00    +0.000 N 
ATOM      6  C   UNL     1       3.035   7.725  17.884  0.00  0.00    +0.000 C 
ATOM      7  O   UNL     1       2.927   8.473  16.913  0.00  0.00    +0.000 OA
ATOM      8  N   UNL     1       3.878   6.648  17.860  0.00  0.00    +0.000 N 
ATOM      9  H   UNL     1       3.955   6.048  18.663  0.00  0.00    +0.000 HD
ENDROOT
BRANCH   1  12
ATOM     10  C   UNL     1       2.388   3.635  19.747  0.00  0.00    +0.000 A 
ATOM     11  C   UNL     1       1.569   4.771  19.892  0.00  0.00    +0.000 A 
ATOM     12  C   UNL     1       2.435   5.779  20.214  0.00  0.00    +0.000 A 
ATOM     13  O   UNL     1       3.696   5.286  20.281  0.00  0.00    +0.000 OA
ATOM     14  N   UNL     1       3.674   3.936  19.981  0.00  0.00    +0.000 NA
BRANCH  10  16
ATOM     15  C   UNL     1       0.567   2.243  18.754  0.00  0.00    +0.000 C 
ATOM     16  C   UNL     1       1.975   2.256  19.346  0.00  0.00    +0.000 C 
ATOM     17  C   UNL     1       2.969   1.642  18.363  0.00  0.00    +0.000 C 
ENDBRANCH  10  16
ENDBRANCH   1  12
BRANCH   8  18
ATOM     18  C   UNL     1       4.648   6.243  16.700  0.00  0.00    +0.000 C 
ATOM     19  C   UNL     1       6.144   6.428  16.938  0.00  0.00    +0.000 C 
ATOM     20  C   UNL     1       6.795   5.614  15.831  0.00  0.00    +0.000 C 
ATOM     21  C   UNL     1       5.831   4.460  15.553  0.00  0.00    +0.000 C 
ATOM     22  C   UNL     1       4.567   4.750  16.369  0.00  0.00    +0.000 C 
ENDBRANCH   8  18
TORSDOF 3
ENDMDL
MODEL 4
REMARK VINA RESULT:      -6.5      2.259      5.495
REMARK  Name = 
REMARK  5 active torsions:
REMARK  status: ('A' for Active; 'I' for Inactive)
REMARK    1  A    between atoms: C_1  and  C_2
REMARK    2  A    between atoms: C_2  and  C_3
REMARK    3  A    between atoms: C_2  and  C_4
REMARK    4  A    between atoms: C_6  and  C_7
REMARK    5  A    between atoms: N_14  and  C_15
REMARK                            x       y       z     vdW  Elec       q    Type
REMARK                         _______ _______ _______ _____ _____    ______ ____
ROOT
ATOM      1  C   UNL     1       1.935   4.362  19.129  0.00  0.00    +0.000 C 
ATOM      2  C   UNL     1       0.985   4.037  20.283  0.00  0.00    +0.000 C 
ATOM      3  C   UNL     1       1.451   2.676  20.764  0.00  0.00    +0.000 C 
ATOM      4  C   UNL     1       2.953   2.674  20.487  0.00  0.00    +0.000 C 
ATOM      5  N   UNL     1       3.214   3.784  19.584  0.00  0.00    +0.000 N 
ATOM      6  C   UNL     1       4.520   4.026  19.203  0.00  0.00    +0.000 C 
ATOM      7  O   UNL     1       5.449   3.354  19.650  0.00  0.00    +0.000 OA
ATOM      8  N   UNL     1       4.746   5.072  18.352  0.00  0.00    +0.000 N 
ATOM      9  H   UNL     1       3.975   5.610  17.996  0.00  0.00    +0.000 HD
ENDROOT
BRANCH   1  12
ATOM     10  C   UNL     1       1.803   7.941  18.422  0.00  0.00    +0.000 A 
ATOM     11  C   UNL     1       1.714   6.641  17.889  0.00  0.00    +0.000 A 
ATOM     12  C   UNL     1       2.012   5.819  18.939  0.00  0.00    +0.000 A 
ATOM     13  O   UNL     1       2.285   6.568  20.036  0.00  0.00    +0.000 OA
ATOM     14  N   UNL     1       2.148   7.907  19.718  0.00  0.00    +0.000 NA
BRANCH  10  16
ATOM     15  C   UNL     1       0.113   9.737  18.026  0.00  0.00    +0.000 C 
ATOM     16  C   UNL     1       1.524   9.235  17.728  0.00  0.00    +0.000 C 
ATOM     17  C   UNL     1       2.554  10.299  18.100  0.00  0.00    +0.000 C 
ENDBRANCH  10  16
ENDBRANCH   1  12
BRANCH   8  18
ATOM     18  C   UNL     1       6.064   5.533  17.960  0.00  0.00    +0.000 C 
ATOM     19  C   UNL     1       5.999   6.918  17.324  0.00  0.00    +0.000 C 
ATOM     20  C   UNL     1       7.442   7.398  17.343  0.00  0.00    +0.000 C 
ATOM     21  C   UNL     1       8.071   6.752  18.578  0.00  0.00    +0.000 C 
ATOM     22  C   UNL     1       7.030   5.769  19.125  0.00  0.00    +0.000 C 
ENDBRANCH   8  18
TORSDOF 3
ENDMDL
MODEL 5
REMARK VINA RESULT:      -6.4      1.807      5.481
REMARK  Name = 
REMARK  5 active torsions:
REMARK  status: ('A' for Active; 'I' for Inactive)
REMARK    1  A    between atoms: C_1  and  C_2
REMARK    2  A    between atoms: C_2  and  C_3
REMARK    3  A    between atoms: C_2  and  C_4
REMARK    4  A    between atoms: C_6  and  C_7
REMARK    5  A    between atoms: N_14  and  C_15
REMARK                            x       y       z     vdW  Elec       q    Type
REMARK                         _______ _______ _______ _____ _____    ______ ____
ROOT
ATOM      1  C   UNL     1       1.864   3.564  19.735  0.00  0.00    +0.000 C 
ATOM      2  C   UNL     1       1.057   3.482  21.033  0.00  0.00    +0.000 C 
ATOM      3  C   UNL     1       1.606   2.249  21.724  0.00  0.00    +0.000 C 
ATOM      4  C   UNL     1       3.067   2.190  21.282  0.00  0.00    +0.000 C 
ATOM      5  N   UNL     1       3.198   3.091  20.148  0.00  0.00    +0.000 N 
ATOM      6  C   UNL     1       4.448   3.250  19.578  0.00  0.00    +0.000 C 
ATOM      7  O   UNL     1       5.437   2.684  20.042  0.00  0.00    +0.000 OA
ATOM      8  N   UNL     1       4.552   4.100  18.512  0.00  0.00    +0.000 N 
ATOM      9  H   UNL     1       3.733   4.554  18.145  0.00  0.00    +0.000 HD
ENDROOT
BRANCH   1  12
ATOM     10  C   UNL     1       2.100   7.101  18.862  0.00  0.00    +0.000 A 
ATOM     11  C   UNL     1       1.806   6.164  19.870  0.00  0.00    +0.000 A 
ATOM     12  C   UNL     1       1.884   4.951  19.245  0.00  0.00    +0.000 A 
ATOM     13  O   UNL     1       2.185   5.137  17.936  0.00  0.00    +0.000 OA
ATOM     14  N   UNL     1       2.330   6.490  17.690  0.00  0.00    +0.000 NA
BRANCH  10  16
ATOM     15  C   UNL     1       1.880   9.291  17.682  0.00  0.00    +0.000 C 
ATOM     16  C   UNL     1       2.208   8.585  18.997  0.00  0.00    +0.000 C 
ATOM     17  C   UNL     1       1.313   9.109  20.117  0.00  0.00    +0.000 C 
ENDBRANCH  10  16
ENDBRANCH   1  12
BRANCH   8  18
ATOM     18  C   UNL     1       5.806   4.470  17.886  0.00  0.00    +0.000 C 
ATOM     19  C   UNL     1       5.740   4.297  16.371  0.00  0.00    +0.000 C 
ATOM     20  C   UNL     1       6.941   5.077  15.860  0.00  0.00    +0.000 C 
ATOM     21  C   UNL     1       7.139   6.220  16.857  0.00  0.00    +0.000 C 
ATOM     22  C   UNL     1       6.170   5.952  18.014  0.00  0.00    +0.000 C 
ENDBRANCH   8  18
TORSDOF 3
ENDMDL
MODEL 6
REMARK VINA RESULT:      -6.4      1.995      5.298
REMARK  Name = 
REMARK  5 active torsions:
REMARK  status: ('A' for Active; 'I' for Inactive)
REMARK    1  A    between atoms: C_1  and  C_2
REMARK    2  A    between atoms: C_2  and  C_3
REMARK    3  A    between atoms: C_2  and  C_4
REMARK    4  A    between atoms: C_6  and  C_7
REMARK    5  A    between atoms: N_14  and  C_15
REMARK                            x       y       z     vdW  Elec       q    Type
REMARK                         _______ _______ _______ _____ _____    ______ ____
ROOT
ATOM      1  C   UNL     1       1.938   3.948  19.430  0.00  0.00    +0.000 C 
ATOM      2  C   UNL     1       1.047   3.676  20.644  0.00  0.00    +0.000 C 
ATOM      3  C   UNL     1       1.627   2.410  21.244  0.00  0.00    +0.000 C 
ATOM      4  C   UNL     1       3.117   2.488  20.916  0.00  0.00    +0.000 C 
ATOM      5  N   UNL     1       3.268   3.514  19.896  0.00  0.00    +0.000 N 
ATOM      6  C   UNL     1       4.542   3.808  19.447  0.00  0.00    +0.000 C 
ATOM      7  O   UNL     1       5.530   3.255  19.926  0.00  0.00    +0.000 OA
ATOM      8  N   UNL     1       4.664   4.774  18.486  0.00  0.00    +0.000 N 
ATOM      9  H   UNL     1       3.845   5.216  18.105  0.00  0.00    +0.000 HD
ENDROOT
BRANCH   1  12
ATOM     10  C   UNL     1       2.024   7.565  18.939  0.00  0.00    +0.000 A 
ATOM     11  C   UNL     1       1.771   6.514  19.841  0.00  0.00    +0.000 A 
ATOM     12  C   UNL     1       1.899   5.379  19.091  0.00  0.00    +0.000 A 
ATOM     13  O   UNL     1       2.189   5.715  17.810  0.00  0.00    +0.000 OA
ATOM     14  N   UNL     1       2.276   7.092  17.709  0.00  0.00    +0.000 NA
BRANCH  10  16
ATOM     15  C   UNL     1       1.928   9.858  17.956  0.00  0.00    +0.000 C 
ATOM     16  C   UNL     1       2.070   9.029  19.231  0.00  0.00    +0.000 C 
ATOM     17  C   UNL     1       1.000   9.429  20.244  0.00  0.00    +0.000 C 
ENDBRANCH  10  16
ENDBRANCH   1  12
BRANCH   8  18
ATOM     18  C   UNL     1       5.932   5.285  18.003  0.00  0.00    +0.000 C 
ATOM     19  C   UNL     1       5.754   6.622  17.289  0.00  0.00    +0.000 C 
ATOM     20  C   UNL     1       7.164   7.185  17.208  0.00  0.00    +0.000 C 
ATOM     21  C   UNL     1       7.886   6.657  18.448  0.00  0.00    +0.000 C 
ATOM     22  C   UNL     1       6.934   5.651  19.103  0.00  0.00    +0.000 C 
ENDBRANCH   8  18
TORSDOF 3
ENDMDL
MODEL 7
REMARK VINA RESULT:      -6.3      2.005      5.596
REMARK  Name = 
REMARK  5 active torsions:
REMARK  status: ('A' for Active; 'I' for Inactive)
REMARK    1  A    between atoms: C_1  and  C_2
REMARK    2  A    between atoms: C_2  and  C_3
REMARK    3  A    between atoms: C_2  and  C_4
REMARK    4  A    between atoms: C_6  and  C_7
REMARK    5  A    between atoms: N_14  and  C_15
REMARK                            x       y       z     vdW  Elec       q    Type
REMARK                         _______ _______ _______ _____ _____    ______ ____
ROOT
ATOM      1  C   UNL     1       2.097   8.138  17.918  0.00  0.00    +0.000 C 
ATOM      2  C   UNL     1       2.429   9.606  17.642  0.00  0.00    +0.000 C 
ATOM      3  C   UNL     1       1.427  10.368  18.488  0.00  0.00    +0.000 C 
ATOM      4  C   UNL     1       1.182   9.459  19.691  0.00  0.00    +0.000 C 
ATOM      5  N   UNL     1       1.710   8.149  19.340  0.00  0.00    +0.000 N 
ATOM      6  C   UNL     1       1.645   7.143  20.285  0.00  0.00    +0.000 C 
ATOM      7  O   UNL     1       1.197   7.354  21.412  0.00  0.00    +0.000 OA
ATOM      8  N   UNL     1       2.144   5.918  19.938  0.00  0.00    +0.000 N 
ATOM      9  H   UNL     1       2.506   5.763  19.012  0.00  0.00    +0.000 HD
ENDROOT
BRANCH   1  12
ATOM     10  C   UNL     1       5.209   6.255  17.593  0.00  0.00    +0.000 A 
ATOM     11  C   UNL     1       4.624   7.520  17.791  0.00  0.00    +0.000 A 
ATOM     12  C   UNL     1       3.281   7.302  17.663  0.00  0.00    +0.000 A 
ATOM     13  O   UNL     1       3.062   5.993  17.385  0.00  0.00    +0.000 OA
ATOM     14  N   UNL     1       4.273   5.326  17.346  0.00  0.00    +0.000 NA
BRANCH  10  16
ATOM     15  C   UNL     1       7.024   4.829  16.641  0.00  0.00    +0.000 C 
ATOM     16  C   UNL     1       6.657   5.894  17.673  0.00  0.00    +0.000 C 
ATOM     17  C   UNL     1       7.547   7.123  17.506  0.00  0.00    +0.000 C 
ENDBRANCH  10  16
ENDBRANCH   1  12
BRANCH   8  18
ATOM     18  C   UNL     1       2.265   4.799  20.852  0.00  0.00    +0.000 C 
ATOM     19  C   UNL     1       1.043   3.889  20.775  0.00  0.00    +0.000 C 
ATOM     20  C   UNL     1       1.494   2.611  21.466  0.00  0.00    +0.000 C 
ATOM     21  C   UNL     1       2.995   2.509  21.194  0.00  0.00    +0.000 C 
ATOM     22  C   UNL     1       3.400   3.825  20.522  0.00  0.00    +0.000 C 
ENDBRANCH   8  18
TORSDOF 3
ENDMDL
MODEL 8
REMARK VINA RESULT:      -6.3      1.367      4.526
REMARK  Name = 
REMARK  5 active torsions:
REMARK  status: ('A' for Active; 'I' for Inactive)
REMARK    1  A    between atoms: C_1  and  C_2
REMARK    2  A    between atoms: C_2  and  C_3
REMARK    3  A    between atoms: C_2  and  C_4
REMARK    4  A    between atoms: C_6  and  C_7
REMARK    5  A    between atoms: N_14  and  C_15
REMARK                            x       y       z     vdW  Elec       q    Type
REMARK                         _______ _______ _______ _____ _____    ______ ____
ROOT
ATOM      1  C   UNL     1       5.446   5.505  17.166  0.00  0.00    +0.000 C 
ATOM      2  C   UNL     1       5.777   6.105  15.798  0.00  0.00    +0.000 C 
ATOM      3  C   UNL     1       6.277   4.920  14.994  0.00  0.00    +0.000 C 
ATOM      4  C   UNL     1       5.508   3.730  15.563  0.00  0.00    +0.000 C 
ATOM      5  N   UNL     1       4.926   4.169  16.822  0.00  0.00    +0.000 N 
ATOM      6  C   UNL     1       4.140   3.277  17.527  0.00  0.00    +0.000 C 
ATOM      7  O   UNL     1       3.895   2.156  17.085  0.00  0.00    +0.000 OA
ATOM      8  N   UNL     1       3.603   3.708  18.709  0.00  0.00    +0.000 N 
ATOM      9  H   UNL     1       3.815   4.627  19.056  0.00  0.00    +0.000 HD
ENDROOT
BRANCH   1  12
ATOM     10  C   UNL     1       2.746   7.555  18.523  0.00  0.00    +0.000 A 
ATOM     11  C   UNL     1       3.573   7.299  17.413  0.00  0.00    +0.000 A 
ATOM     12  C   UNL     1       4.445   6.340  17.849  0.00  0.00    +0.000 A 
ATOM     13  O   UNL     1       4.181   6.046  19.146  0.00  0.00    +0.000 OA
ATOM     14  N   UNL     1       3.106   6.804  19.575  0.00  0.00    +0.000 NA
BRANCH  10  16
ATOM     15  C   UNL     1       1.197   8.787  20.045  0.00  0.00    +0.000 C 
ATOM     16  C   UNL     1       1.578   8.484  18.598  0.00  0.00    +0.000 C 
ATOM     17  C   UNL     1       1.849   9.781  17.839  0.00  0.00    +0.000 C 
ENDBRANCH  10  16
ENDBRANCH   1  12
BRANCH   8  18
ATOM     18  C   UNL     1       2.660   2.942  19.501  0.00  0.00    +0.000 C 
ATOM     19  C   UNL     1       2.999   3.015  20.987  0.00  0.00    +0.000 C 
ATOM     20  C   UNL     1       1.737   2.519  21.675  0.00  0.00    +0.000 C 
ATOM     21  C   UNL     1       0.584   2.930  20.760  0.00  0.00    +0.000 C 
ATOM     22  C   UNL     1       1.226   3.479  19.481  0.00  0.00    +0.000 C 
ENDBRANCH   8  18
TORSDOF 3
ENDMDL
MODEL 9
REMARK VINA RESULT:      -6.3      2.833      5.453
REMARK  Name = 
REMARK  5 active torsions:
REMARK  status: ('A' for Active; 'I' for Inactive)
REMARK    1  A    between atoms: C_1  and  C_2
REMARK    2  A    between atoms: C_2  and  C_3
REMARK    3  A    between atoms: C_2  and  C_4
REMARK    4  A    between atoms: C_6  and  C_7
REMARK    5  A    between atoms: N_14  and  C_15
REMARK                            x       y       z     vdW  Elec       q    Type
REMARK                         _______ _______ _______ _____ _____    ______ ____
ROOT
ATOM      1  C   UNL     1       6.145   5.974  16.850  0.00  0.00    +0.000 C 
ATOM      2  C   UNL     1       7.640   6.178  17.099  0.00  0.00    +0.000 C 
ATOM      3  C   UNL     1       7.719   6.516  18.575  0.00  0.00    +0.000 C 
ATOM      4  C   UNL     1       6.552   5.753  19.198  0.00  0.00    +0.000 C 
ATOM      5  N   UNL     1       5.686   5.345  18.102  0.00  0.00    +0.000 N 
ATOM      6  C   UNL     1       4.562   4.597  18.399  0.00  0.00    +0.000 C 
ATOM      7  O   UNL     1       4.319   4.242  19.552  0.00  0.00    +0.000 OA
ATOM      8  N   UNL     1       3.759   4.225  17.357  0.00  0.00    +0.000 N 
ATOM      9  H   UNL     1       3.972   4.526  16.421  0.00  0.00    +0.000 HD
ENDROOT
BRANCH   1  12
ATOM     10  C   UNL     1       5.822   4.112  13.726  0.00  0.00    +0.000 A 
ATOM     11  C   UNL     1       5.678   5.359  14.363  0.00  0.00    +0.000 A 
ATOM     12  C   UNL     1       5.947   5.106  15.678  0.00  0.00    +0.000 A 
ATOM     13  O   UNL     1       6.216   3.787  15.838  0.00  0.00    +0.000 OA
ATOM     14  N   UNL     1       6.146   3.155  14.610  0.00  0.00    +0.000 NA
BRANCH  10  16
ATOM     15  C   UNL     1       6.721   2.769  11.822  0.00  0.00    +0.000 C 
ATOM     16  C   UNL     1       5.695   3.809  12.268  0.00  0.00    +0.000 C 
ATOM     17  C   UNL     1       4.283   3.345  11.917  0.00  0.00    +0.000 C 
ENDBRANCH  10  16
ENDBRANCH   1  12
BRANCH   8  18
ATOM     18  C   UNL     1       2.618   3.339  17.484  0.00  0.00    +0.000 C 
ATOM     19  C   UNL     1       2.966   2.106  18.314  0.00  0.00    +0.000 C 
ATOM     20  C   UNL     1       1.614   1.512  18.673  0.00  0.00    +0.000 C 
ATOM     21  C   UNL     1       0.658   2.702  18.767  0.00  0.00    +0.000 C 
ATOM     22  C   UNL     1       1.441   3.922  18.272  0.00  0.00    +0.000 C 
ENDBRANCH   8  18
TORSDOF 3
ENDMDL
