MODEL 1
REMARK VINA RESULT:      -7.3      0.000      0.000
REMARK  Name = 
REMARK  5 active torsions:
REMARK  status: ('A' for Active; 'I' for Inactive)
REMARK    1  A    between atoms: C_2  and  O_3
REMARK    2  A    between atoms: C_2  and  C_4
REMARK    3  A    between atoms: C_12  and  C_13
REMARK    4  A    between atoms: C_13  and  C_14
REMARK    5  A    between atoms: C_14  and  N_15
REMARK                            x       y       z     vdW  Elec       q    Type
REMARK                         _______ _______ _______ _____ _____    ______ ____
ROOT
ATOM      1  C   UNL     1       2.421   2.997  19.927  0.00  0.00    +0.000 A 
ATOM      2  C   UNL     1       2.640   2.003  18.951  0.00  0.00    +0.000 A 
ATOM      3  C   UNL     1       2.896   2.351  17.619  0.00  0.00    +0.000 A 
ATOM      4  C   UNL     1       2.948   3.692  17.233  0.00  0.00    +0.000 A 
ATOM      5  C   UNL     1       2.757   4.683  18.196  0.00  0.00    +0.000 A 
ATOM      6  C   UNL     1       2.487   4.350  19.516  0.00  0.00    +0.000 A 
ATOM      7  C   UNL     1       2.433   5.591  20.356  0.00  0.00    +0.000 C 
ATOM      8  C   UNL     1       2.211   6.674  19.299  0.00  0.00    +0.000 C 
ATOM      9  C   UNL     1       2.876   6.169  18.010  0.00  0.00    +0.000 C 
ENDROOT
BRANCH   1  11
ATOM     10  O   UNL     1       2.982   2.238  22.063  0.00  0.00    +0.000 OA
ATOM     11  C   UNL     1       2.098   2.621  21.325  0.00  0.00    +0.000 C 
BRANCH  11  12
ATOM     12  O   UNL     1       0.852   2.737  21.834  0.00  0.00    +0.000 OA
ATOM     13  H   UNL     1       0.070   2.332  21.431  0.00  0.00    +0.000 HD
ENDBRANCH  11  12
ENDBRANCH   1  11
BRANCH   9  14
ATOM     14  C   UNL     1       4.351   6.628  17.877  0.00  0.00    +0.000 C 
BRANCH  14  15
ATOM     15  C   UNL     1       4.763   6.823  16.407  0.00  0.00    +0.000 C 
BRANCH  15  16
ATOM     16  N   UNL     1       5.769   5.853  15.984  0.00  0.00    +0.000 N 
ATOM     17  C   UNL     1       5.686   5.052  14.909  0.00  0.00    +0.000 A 
ATOM     18  C   UNL     1       6.843   4.312  14.845  0.00  0.00    +0.000 A 
ATOM     19  N   UNL     1       7.646   4.650  15.876  0.00  0.00    +0.000 NA
ATOM     20  C   UNL     1       6.962   5.596  16.553  0.00  0.00    +0.000 A 
ENDBRANCH  15  16
ENDBRANCH  14  15
ENDBRANCH   9  14
TORSDOF 5
ENDMDL
MODEL 2
REMARK VINA RESULT:      -7.2      0.615      1.051
REMARK  Name = 
REMARK  5 active torsions:
REMARK  status: ('A' for Active; 'I' for Inactive)
REMARK    1  A    between atoms: C_2  and  O_3
REMARK    2  A    between atoms: C_2  and  C_4
REMARK    3  A    between atoms: C_12  and  C_13
REMARK    4  A    between atoms: C_13  and  C_14
REMARK    5  A    between atoms: C_14  and  N_15
REMARK                            x       y       z     vdW  Elec       q    Type
REMARK                         _______ _______ _______ _____ _____    ______ ____
ROOT
ATOM      1  C   UNL     1       2.401   3.112  19.881  0.00  0.00    +0.000 A 
ATOM      2  C   UNL     1       2.712   2.150  18.897  0.00  0.00    +0.000 A 
ATOM      3  C   UNL     1       2.979   2.535  17.577  0.00  0.00    +0.000 A 
ATOM      4  C   UNL     1       2.951   3.883  17.212  0.00  0.00    +0.000 A 
ATOM      5  C   UNL     1       2.669   4.844  18.184  0.00  0.00    +0.000 A 
ATOM      6  C   UNL     1       2.388   4.473  19.491  0.00  0.00    +0.000 A 
ATOM      7  C   UNL     1       2.229   5.694  20.346  0.00  0.00    +0.000 C 
ATOM      8  C   UNL     1       1.963   6.777  19.299  0.00  0.00    +0.000 C 
ATOM      9  C   UNL     1       2.694   6.337  18.022  0.00  0.00    +0.000 C 
ENDROOT
BRANCH   1  11
ATOM     10  O   UNL     1       2.959   2.408  22.036  0.00  0.00    +0.000 OA
ATOM     11  C   UNL     1       2.067   2.693  21.264  0.00  0.00    +0.000 C 
BRANCH  11  12
ATOM     12  O   UNL     1       0.797   2.665  21.723  0.00  0.00    +0.000 OA
ATOM     13  H   UNL     1       0.045   3.034  21.237  0.00  0.00    +0.000 HD
ENDBRANCH  11  12
ENDBRANCH   1  11
BRANCH   9  14
ATOM     14  C   UNL     1       4.138   6.895  17.936  0.00  0.00    +0.000 C 
BRANCH  14  15
ATOM     15  C   UNL     1       4.806   6.559  16.590  0.00  0.00    +0.000 C 
BRANCH  15  16
ATOM     16  N   UNL     1       6.002   5.740  16.759  0.00  0.00    +0.000 N 
ATOM     17  C   UNL     1       6.546   5.375  17.932  0.00  0.00    +0.000 A 
ATOM     18  C   UNL     1       7.641   4.588  17.662  0.00  0.00    +0.000 A 
ATOM     19  N   UNL     1       7.779   4.462  16.325  0.00  0.00    +0.000 NA
ATOM     20  C   UNL     1       6.762   5.176  15.802  0.00  0.00    +0.000 A 
ENDBRANCH  15  16
ENDBRANCH  14  15
ENDBRANCH   9  14
TORSDOF 5
ENDMDL
MODEL 3
REMARK VINA RESULT:      -7.0      0.652      1.024
REMARK  Name = 
REMARK  5 active torsions:
REMARK  status: ('A' for Active; 'I' for Inactive)
REMARK    1  A    between atoms: C_2  and  O_3
REMARK    2  A    between atoms: C_2  and  C_4
REMARK    3  A    between atoms: C_12  and  C_13
REMARK    4  A    between atoms: C_13  and  C_14
REMARK    5  A    between atoms: C_14  and  N_15
REMARK                            x       y       z     vdW  Elec       q    Type
REMARK                         _______ _______ _______ _____ _____    ______ ____
ROOT
ATOM      1  C   UNL     1       2.231   3.039  20.042  0.00  0.00    +0.000 A 
ATOM      2  C   UNL     1       2.177   2.073  19.015  0.00  0.00    +0.000 A 
ATOM      3  C   UNL     1       2.185   2.458  17.668  0.00  0.00    +0.000 A 
ATOM      4  C   UNL     1       2.257   3.808  17.316  0.00  0.00    +0.000 A 
ATOM      5  C   UNL     1       2.336   4.769  18.325  0.00  0.00    +0.000 A 
ATOM      6  C   UNL     1       2.313   4.400  19.663  0.00  0.00    +0.000 A 
ATOM      7  C   UNL     1       2.520   5.606  20.529  0.00  0.00    +0.000 C 
ATOM      8  C   UNL     1       2.170   6.744  19.569  0.00  0.00    +0.000 C 
ATOM      9  C   UNL     1       2.524   6.250  18.159  0.00  0.00    +0.000 C 
ENDROOT
BRANCH   1  11
ATOM     10  O   UNL     1       1.115   2.699  22.065  0.00  0.00    +0.000 OA
ATOM     11  C   UNL     1       2.168   2.627  21.466  0.00  0.00    +0.000 C 
BRANCH  11  12
ATOM     12  O   UNL     1       3.236   2.119  22.118  0.00  0.00    +0.000 OA
ATOM     13  H   UNL     1       4.024   1.778  21.669  0.00  0.00    +0.000 HD
ENDBRANCH  11  12
ENDBRANCH   1  11
BRANCH   9  14
ATOM     14  C   UNL     1       3.972   6.615  17.742  0.00  0.00    +0.000 C 
BRANCH  14  15
ATOM     15  C   UNL     1       4.956   5.461  18.007  0.00  0.00    +0.000 C 
BRANCH  15  16
ATOM     16  N   UNL     1       5.825   5.206  16.862  0.00  0.00    +0.000 N 
ATOM     17  C   UNL     1       5.608   4.297  15.896  0.00  0.00    +0.000 A 
ATOM     18  C   UNL     1       6.640   4.388  14.992  0.00  0.00    +0.000 A 
ATOM     19  N   UNL     1       7.498   5.351  15.391  0.00  0.00    +0.000 NA
ATOM     20  C   UNL     1       6.972   5.832  16.537  0.00  0.00    +0.000 A 
ENDBRANCH  15  16
ENDBRANCH  14  15
ENDBRANCH   9  14
TORSDOF 5
ENDMDL
MODEL 4
REMARK VINA RESULT:      -6.9      1.505      1.898
REMARK  Name = 
REMARK  5 active torsions:
REMARK  status: ('A' for Active; 'I' for Inactive)
REMARK    1  A    between atoms: C_2  and  O_3
REMARK    2  A    between atoms: C_2  and  C_4
REMARK    3  A    between atoms: C_12  and  C_13
REMARK    4  A    between atoms: C_13  and  C_14
REMARK    5  A    between atoms: C_14  and  N_15
REMARK                            x       y       z     vdW  Elec       q    Type
REMARK                         _______ _______ _______ _____ _____    ______ ____
ROOT
ATOM      1  C   UNL     1       2.442   3.081  19.947  0.00  0.00    +0.000 A 
ATOM      2  C   UNL     1       2.426   2.166  18.873  0.00  0.00    +0.000 A 
ATOM      3  C   UNL     1       2.322   2.615  17.550  0.00  0.00    +0.000 A 
ATOM      4  C   UNL     1       2.241   3.981  17.269  0.00  0.00    +0.000 A 
ATOM      5  C   UNL     1       2.282   4.895  18.322  0.00  0.00    +0.000 A 
ATOM      6  C   UNL     1       2.369   4.461  19.638  0.00  0.00    +0.000 A 
ATOM      7  C   UNL     1       2.503   5.638  20.557  0.00  0.00    +0.000 C 
ATOM      8  C   UNL     1       1.991   6.780  19.679  0.00  0.00    +0.000 C 
ATOM      9  C   UNL     1       2.313   6.394  18.228  0.00  0.00    +0.000 C 
ENDROOT
BRANCH   1  11
ATOM     10  O   UNL     1       3.539   2.153  21.787  0.00  0.00    +0.000 OA
ATOM     11  C   UNL     1       2.499   2.596  21.347  0.00  0.00    +0.000 C 
BRANCH  11  12
ATOM     12  O   UNL     1       1.439   2.676  22.182  0.00  0.00    +0.000 OA
ATOM     13  H   UNL     1       0.693   3.277  22.041  0.00  0.00    +0.000 HD
ENDBRANCH  11  12
ENDBRANCH   1  11
BRANCH   9  14
ATOM     14  C   UNL     1       3.693   6.923  17.759  0.00  0.00    +0.000 C 
BRANCH  14  15
ATOM     15  C   UNL     1       4.639   5.781  17.348  0.00  0.00    +0.000 C 
BRANCH  15  16
ATOM     16  N   UNL     1       5.850   5.749  18.162  0.00  0.00    +0.000 N 
ATOM     17  C   UNL     1       7.020   6.335  17.857  0.00  0.00    +0.000 A 
ATOM     18  C   UNL     1       7.894   6.094  18.890  0.00  0.00    +0.000 A 
ATOM     19  N   UNL     1       7.272   5.361  19.838  0.00  0.00    +0.000 NA
ATOM     20  C   UNL     1       6.024   5.167  19.364  0.00  0.00    +0.000 A 
ENDBRANCH  15  16
ENDBRANCH  14  15
ENDBRANCH   9  14
TORSDOF 5
ENDMDL
MODEL 5
REMARK VINA RESULT:      -6.6      3.484      5.786
REMARK  Name = 
REMARK  5 active torsions:
REMARK  status: ('A' for Active; 'I' for Inactive)
REMARK    1  A    between atoms: C_2  and  O_3
REMARK    2  A    between atoms: C_2  and  C_4
REMARK    3  A    between atoms: C_12  and  C_13
REMARK    4  A    between atoms: C_13  and  C_14
REMARK    5  A    between atoms: C_14  and  N_15
REMARK                            x       y       z     vdW  Elec       q    Type
REMARK                         _______ _______ _______ _____ _____    ______ ____
ROOT
ATOM      1  C   UNL     1       6.745   5.625  18.263  0.00  0.00    +0.000 A 
ATOM      2  C   UNL     1       6.895   6.834  17.552  0.00  0.00    +0.000 A 
ATOM      3  C   UNL     1       5.911   7.262  16.652  0.00  0.00    +0.000 A 
ATOM      4  C   UNL     1       4.757   6.502  16.447  0.00  0.00    +0.000 A 
ATOM      5  C   UNL     1       4.589   5.317  17.164  0.00  0.00    +0.000 A 
ATOM      6  C   UNL     1       5.564   4.875  18.047  0.00  0.00    +0.000 A 
ATOM      7  C   UNL     1       5.089   3.645  18.760  0.00  0.00    +0.000 C 
ATOM      8  C   UNL     1       3.966   3.164  17.839  0.00  0.00    +0.000 C 
ATOM      9  C   UNL     1       3.386   4.418  17.167  0.00  0.00    +0.000 C 
ENDROOT
BRANCH   1  11
ATOM     10  O   UNL     1       8.679   4.411  18.753  0.00  0.00    +0.000 OA
ATOM     11  C   UNL     1       7.815   5.151  19.175  0.00  0.00    +0.000 C 
BRANCH  11  12
ATOM     12  O   UNL     1       7.899   5.558  20.461  0.00  0.00    +0.000 OA
ATOM     13  H   UNL     1       7.421   5.133  21.188  0.00  0.00    +0.000 HD
ENDBRANCH  11  12
ENDBRANCH   1  11
BRANCH   9  14
ATOM     14  C   UNL     1       2.200   5.027  17.959  0.00  0.00    +0.000 C 
BRANCH  14  15
ATOM     15  C   UNL     1       1.246   3.943  18.492  0.00  0.00    +0.000 C 
BRANCH  15  16
ATOM     16  N   UNL     1       1.538   3.585  19.877  0.00  0.00    +0.000 N 
ATOM     17  C   UNL     1       1.393   2.366  20.423  0.00  0.00    +0.000 A 
ATOM     18  C   UNL     1       1.800   2.440  21.734  0.00  0.00    +0.000 A 
ATOM     19  N   UNL     1       2.199   3.700  22.006  0.00  0.00    +0.000 NA
ATOM     20  C   UNL     1       2.028   4.376  20.851  0.00  0.00    +0.000 A 
ENDBRANCH  15  16
ENDBRANCH  14  15
ENDBRANCH   9  14
TORSDOF 5
ENDMDL
MODEL 6
REMARK VINA RESULT:      -6.5      3.314      5.530
REMARK  Name = 
REMARK  5 active torsions:
REMARK  status: ('A' for Active; 'I' for Inactive)
REMARK    1  A    between atoms: C_2  and  O_3
REMARK    2  A    between atoms: C_2  and  C_4
REMARK    3  A    between atoms: C_12  and  C_13
REMARK    4  A    between atoms: C_13  and  C_14
REMARK    5  A    between atoms: C_14  and  N_15
REMARK                            x       y       z     vdW  Elec       q    Type
REMARK                         _______ _______ _______ _____ _____    ______ ____
ROOT
ATOM      1  C   UNL     1       6.889   5.418  17.619  0.00  0.00    +0.000 A 
ATOM      2  C   UNL     1       7.138   5.608  16.243  0.00  0.00    +0.000 A 
ATOM      3  C   UNL     1       6.367   4.948  15.278  0.00  0.00    +0.000 A 
ATOM      4  C   UNL     1       5.330   4.094  15.660  0.00  0.00    +0.000 A 
ATOM      5  C   UNL     1       5.060   3.919  17.018  0.00  0.00    +0.000 A 
ATOM      6  C   UNL     1       5.827   4.556  17.984  0.00  0.00    +0.000 A 
ATOM      7  C   UNL     1       5.262   4.285  19.346  0.00  0.00    +0.000 C 
ATOM      8  C   UNL     1       4.405   3.045  19.088  0.00  0.00    +0.000 C 
ATOM      9  C   UNL     1       3.934   3.135  17.630  0.00  0.00    +0.000 C 
ENDROOT
BRANCH   1  11
ATOM     10  O   UNL     1       8.071   7.236  18.483  0.00  0.00    +0.000 OA
ATOM     11  C   UNL     1       7.744   6.078  18.636  0.00  0.00    +0.000 C 
BRANCH  11  12
ATOM     12  O   UNL     1       8.134   5.451  19.767  0.00  0.00    +0.000 OA
ATOM     13  H   UNL     1       7.720   5.599  20.630  0.00  0.00    +0.000 HD
ENDBRANCH  11  12
ENDBRANCH   1  11
BRANCH   9  14
ATOM     14  C   UNL     1       2.569   3.858  17.485  0.00  0.00    +0.000 C 
BRANCH  14  15
ATOM     15  C   UNL     1       1.950   4.199  18.852  0.00  0.00    +0.000 C 
BRANCH  15  16
ATOM     16  N   UNL     1       2.028   5.625  19.151  0.00  0.00    +0.000 N 
ATOM     17  C   UNL     1       1.751   6.198  20.336  0.00  0.00    +0.000 A 
ATOM     18  C   UNL     1       1.972   7.549  20.212  0.00  0.00    +0.000 A 
ATOM     19  N   UNL     1       2.387   7.820  18.957  0.00  0.00    +0.000 NA
ATOM     20  C   UNL     1       2.412   6.624  18.333  0.00  0.00    +0.000 A 
ENDBRANCH  15  16
ENDBRANCH  14  15
ENDBRANCH   9  14
TORSDOF 5
ENDMDL
MODEL 7
REMARK VINA RESULT:      -6.5      0.921      1.266
REMARK  Name = 
REMARK  5 active torsions:
REMARK  status: ('A' for Active; 'I' for Inactive)
REMARK    1  A    between atoms: C_2  and  O_3
REMARK    2  A    between atoms: C_2  and  C_4
REMARK    3  A    between atoms: C_12  and  C_13
REMARK    4  A    between atoms: C_13  and  C_14
REMARK    5  A    between atoms: C_14  and  N_15
REMARK                            x       y       z     vdW  Elec       q    Type
REMARK                         _______ _______ _______ _____ _____    ______ ____
ROOT
ATOM      1  C   UNL     1       3.342   2.723  19.665  0.00  0.00    +0.000 A 
ATOM      2  C   UNL     1       3.213   1.794  18.612  0.00  0.00    +0.000 A 
ATOM      3  C   UNL     1       2.803   2.207  17.338  0.00  0.00    +0.000 A 
ATOM      4  C   UNL     1       2.522   3.552  17.084  0.00  0.00    +0.000 A 
ATOM      5  C   UNL     1       2.672   4.482  18.114  0.00  0.00    +0.000 A 
ATOM      6  C   UNL     1       3.062   4.082  19.384  0.00  0.00    +0.000 A 
ATOM      7  C   UNL     1       3.249   5.281  20.264  0.00  0.00    +0.000 C 
ATOM      8  C   UNL     1       2.455   6.349  19.509  0.00  0.00    +0.000 C 
ATOM      9  C   UNL     1       2.524   5.974  18.022  0.00  0.00    +0.000 C 
ENDROOT
BRANCH   1  11
ATOM     10  O   UNL     1       2.930   2.368  21.936  0.00  0.00    +0.000 OA
ATOM     11  C   UNL     1       3.725   2.270  21.025  0.00  0.00    +0.000 C 
BRANCH  11  12
ATOM     12  O   UNL     1       4.921   1.696  21.284  0.00  0.00    +0.000 OA
ATOM     13  H   UNL     1       5.709   2.196  21.541  0.00  0.00    +0.000 HD
ENDBRANCH  11  12
ENDBRANCH   1  11
BRANCH   9  14
ATOM     14  C   UNL     1       3.720   6.639  17.292  0.00  0.00    +0.000 C 
BRANCH  14  15
ATOM     15  C   UNL     1       5.070   6.228  17.906  0.00  0.00    +0.000 C 
BRANCH  15  16
ATOM     16  N   UNL     1       5.942   5.579  16.932  0.00  0.00    +0.000 N 
ATOM     17  C   UNL     1       5.708   5.473  15.613  0.00  0.00    +0.000 A 
ATOM     18  C   UNL     1       6.778   4.821  15.047  0.00  0.00    +0.000 A 
ATOM     19  N   UNL     1       7.678   4.522  16.008  0.00  0.00    +0.000 NA
ATOM     20  C   UNL     1       7.138   5.000  17.149  0.00  0.00    +0.000 A 
ENDBRANCH  15  16
ENDBRANCH  14  15
ENDBRANCH   9  14
TORSDOF 5
ENDMDL
MODEL 8
REMARK VINA RESULT:      -6.4      3.595      5.510
REMARK  Name = 
REMARK  5 active torsions:
REMARK  status: ('A' for Active; 'I' for Inactive)
REMARK    1  A    between atoms: C_2  and  O_3
REMARK    2  A    between atoms: C_2  and  C_4
REMARK    3  A    between atoms: C_12  and  C_13
REMARK    4  A    between atoms: C_13  and  C_14
REMARK    5  A    between atoms: C_14  and  N_15
REMARK                            x       y       z     vdW  Elec       q    Type
REMARK                         _______ _______ _______ _____ _____    ______ ____
ROOT
ATOM      1  C   UNL     1       2.552   3.461  18.914  0.00  0.00    +0.000 A 
ATOM      2  C   UNL     1       1.726   3.366  20.053  0.00  0.00    +0.000 A 
ATOM      3  C   UNL     1       1.367   4.511  20.775  0.00  0.00    +0.000 A 
ATOM      4  C   UNL     1       1.814   5.772  20.374  0.00  0.00    +0.000 A 
ATOM      5  C   UNL     1       2.612   5.879  19.234  0.00  0.00    +0.000 A 
ATOM      6  C   UNL     1       2.986   4.750  18.520  0.00  0.00    +0.000 A 
ATOM      7  C   UNL     1       3.744   5.151  17.290  0.00  0.00    +0.000 C 
ATOM      8  C   UNL     1       4.179   6.574  17.641  0.00  0.00    +0.000 C 
ATOM      9  C   UNL     1       3.105   7.139  18.582  0.00  0.00    +0.000 C 
ENDROOT
BRANCH   1  11
ATOM     10  O   UNL     1       2.365   1.894  17.193  0.00  0.00    +0.000 OA
ATOM     11  C   UNL     1       2.972   2.239  18.185  0.00  0.00    +0.000 C 
BRANCH  11  12
ATOM     12  O   UNL     1       4.049   1.512  18.555  0.00  0.00    +0.000 OA
ATOM     13  H   UNL     1       4.943   1.879  18.625  0.00  0.00    +0.000 HD
ENDBRANCH  11  12
ENDBRANCH   1  11
BRANCH   9  14
ATOM     14  C   UNL     1       1.978   7.888  17.824  0.00  0.00    +0.000 C 
BRANCH  14  15
ATOM     15  C   UNL     1       2.071   9.412  18.014  0.00  0.00    +0.000 C 
BRANCH  15  16
ATOM     16  N   UNL     1       1.065   9.913  18.945  0.00  0.00    +0.000 N 
ATOM     17  C   UNL     1       0.288  10.994  18.758  0.00  0.00    +0.000 A 
ATOM     18  C   UNL     1      -0.541  11.111  19.848  0.00  0.00    +0.000 A 
ATOM     19  N   UNL     1      -0.285  10.106  20.712  0.00  0.00    +0.000 NA
ATOM     20  C   UNL     1       0.701   9.391  20.131  0.00  0.00    +0.000 A 
ENDBRANCH  15  16
ENDBRANCH  14  15
ENDBRANCH   9  14
TORSDOF 5
ENDMDL
MODEL 9
REMARK VINA RESULT:      -6.4      3.713      6.169
REMARK  Name = 
REMARK  5 active torsions:
REMARK  status: ('A' for Active; 'I' for Inactive)
REMARK    1  A    between atoms: C_2  and  O_3
REMARK    2  A    between atoms: C_2  and  C_4
REMARK    3  A    between atoms: C_12  and  C_13
REMARK    4  A    between atoms: C_13  and  C_14
REMARK    5  A    between atoms: C_14  and  N_15
REMARK                            x       y       z     vdW  Elec       q    Type
REMARK                         _______ _______ _______ _____ _____    ______ ____
ROOT
ATOM      1  C   UNL     1       6.962   5.950  16.898  0.00  0.00    +0.000 A 
ATOM      2  C   UNL     1       7.298   5.756  15.541  0.00  0.00    +0.000 A 
ATOM      3  C   UNL     1       6.765   4.682  14.817  0.00  0.00    +0.000 A 
ATOM      4  C   UNL     1       5.882   3.786  15.424  0.00  0.00    +0.000 A 
ATOM      5  C   UNL     1       5.524   3.984  16.758  0.00  0.00    +0.000 A 
ATOM      6  C   UNL     1       6.058   5.035  17.490  0.00  0.00    +0.000 A 
ATOM      7  C   UNL     1       5.430   5.083  18.850  0.00  0.00    +0.000 C 
ATOM      8  C   UNL     1       4.858   3.670  18.980  0.00  0.00    +0.000 C 
ATOM      9  C   UNL     1       4.519   3.204  17.557  0.00  0.00    +0.000 C 
ENDROOT
BRANCH   1  11
ATOM     10  O   UNL     1       8.183   6.812  18.691  0.00  0.00    +0.000 OA
ATOM     11  C   UNL     1       7.571   7.058  17.672  0.00  0.00    +0.000 C 
BRANCH  11  12
ATOM     12  O   UNL     1       7.517   8.343  17.258  0.00  0.00    +0.000 OA
ATOM     13  H   UNL     1       8.211   8.764  16.730  0.00  0.00    +0.000 HD
ENDBRANCH  11  12
ENDBRANCH   1  11
BRANCH   9  14
ATOM     14  C   UNL     1       3.060   3.537  17.150  0.00  0.00    +0.000 C 
BRANCH  14  15
ATOM     15  C   UNL     1       2.046   2.585  17.810  0.00  0.00    +0.000 C 
BRANCH  15  16
ATOM     16  N   UNL     1       1.706   2.999  19.168  0.00  0.00    +0.000 N 
ATOM     17  C   UNL     1       1.728   2.215  20.259  0.00  0.00    +0.000 A 
ATOM     18  C   UNL     1       1.370   2.986  21.339  0.00  0.00    +0.000 A 
ATOM     19  N   UNL     1       1.127   4.247  20.926  0.00  0.00    +0.000 NA
ATOM     20  C   UNL     1       1.342   4.223  19.594  0.00  0.00    +0.000 A 
ENDBRANCH  15  16
ENDBRANCH  14  15
ENDBRANCH   9  14
TORSDOF 5
ENDMDL
