MODEL 1
REMARK VINA RESULT:      -4.6      0.000      0.000
REMARK  Name = 
REMARK  8 active torsions:
REMARK  status: ('A' for Active; 'I' for Inactive)
REMARK    1  A    between atoms: C_1  and  N_2
REMARK    2  A    between atoms: N_2  and  C_3
REMARK    3  A    between atoms: N_2  and  C_9
REMARK    4  A    between atoms: C_3  and  C_4
REMARK    5  A    between atoms: C_4  and  P_5
REMARK    6  A    between atoms: P_5  and  O_7
REMARK    7  A    between atoms: P_5  and  O_8
REMARK    8  A    between atoms: C_9  and  S_11
REMARK                            x       y       z     vdW  Elec       q    Type
REMARK                         _______ _______ _______ _____ _____    ______ ____
ROOT
ATOM      1  C   UNL     1       5.084   4.236  18.973  0.00  0.00    +0.000 C 
ENDROOT
BRANCH   1   3
ATOM      2  C   UNL     1       3.350   6.054  18.833  0.00  0.00    +0.000 C 
ATOM      3  N   UNL     1       3.681   4.655  19.113  0.00  0.00    +0.000 N 
BRANCH   3   4
ATOM      4  C   UNL     1       2.620   3.712  19.114  0.00  0.00    +0.000 C 
ATOM      5  S   UNL     1       1.245   3.815  20.087  0.00  0.00    +0.000 S 
BRANCH   4   6
ATOM      6  S   UNL     1       2.710   2.329  18.009  0.00  0.00    +0.000 S 
ATOM      7  H   UNL     1       3.033   2.960  16.878  0.00  0.00    +0.000 HD
ENDBRANCH   4   6
ENDBRANCH   3   4
ENDBRANCH   1   3
BRANCH   1   8
ATOM      8  C   UNL     1       6.172   5.293  18.789  0.00  0.00    +0.000 C 
BRANCH   8   9
ATOM      9  P   UNL     1       7.046   4.900  17.276  0.00  0.00    +0.000 P 
ATOM     10  O   UNL     1       7.392   6.031  16.379  0.00  0.00    +0.000 OA
BRANCH   9  11
ATOM     11  O   UNL     1       8.315   4.024  17.711  0.00  0.00    +0.000 OA
ATOM     12  H   UNL     1       8.673   3.439  17.020  0.00  0.00    +0.000 HD
ENDBRANCH   9  11
BRANCH   9  13
ATOM     13  O   UNL     1       6.225   3.769  16.502  0.00  0.00    +0.000 OA
ATOM     14  H   UNL     1       5.300   4.066  16.371  0.00  0.00    +0.000 HD
ENDBRANCH   9  13
ENDBRANCH   8   9
ENDBRANCH   1   8
TORSDOF 7
ENDMDL
MODEL 2
REMARK VINA RESULT:      -4.5      1.734      2.442
REMARK  Name = 
REMARK  8 active torsions:
REMARK  status: ('A' for Active; 'I' for Inactive)
REMARK    1  A    between atoms: C_1  and  N_2
REMARK    2  A    between atoms: N_2  and  C_3
REMARK    3  A    between atoms: N_2  and  C_9
REMARK    4  A    between atoms: C_3  and  C_4
REMARK    5  A    between atoms: C_4  and  P_5
REMARK    6  A    between atoms: P_5  and  O_7
REMARK    7  A    between atoms: P_5  and  O_8
REMARK    8  A    between atoms: C_9  and  S_11
REMARK                            x       y       z     vdW  Elec       q    Type
REMARK                         _______ _______ _______ _____ _____    ______ ____
ROOT
ATOM      1  C   UNL     1       5.136   4.074  18.541  0.00  0.00    +0.000 C 
ENDROOT
BRANCH   1   3
ATOM      2  C   UNL     1       4.293   2.301  20.115  0.00  0.00    +0.000 C 
ATOM      3  N   UNL     1       4.004   3.419  19.215  0.00  0.00    +0.000 N 
BRANCH   3   4
ATOM      4  C   UNL     1       2.742   4.058  19.336  0.00  0.00    +0.000 C 
ATOM      5  S   UNL     1       2.124   4.696  20.772  0.00  0.00    +0.000 S 
BRANCH   4   6
ATOM      6  S   UNL     1       1.733   4.230  17.890  0.00  0.00    +0.000 S 
ATOM      7  H   UNL     1       0.668   3.517  18.267  0.00  0.00    +0.000 HD
ENDBRANCH   4   6
ENDBRANCH   3   4
ENDBRANCH   1   3
BRANCH   1   8
ATOM      8  C   UNL     1       5.617   5.439  19.030  0.00  0.00    +0.000 C 
BRANCH   8   9
ATOM      9  P   UNL     1       7.405   5.442  18.929  0.00  0.00    +0.000 P 
ATOM     10  O   UNL     1       8.041   4.365  18.131  0.00  0.00    +0.000 OA
BRANCH   9  11
ATOM     11  O   UNL     1       7.821   6.914  18.453  0.00  0.00    +0.000 OA
ATOM     12  H   UNL     1       7.457   7.642  18.986  0.00  0.00    +0.000 HD
ENDBRANCH   9  11
BRANCH   9  13
ATOM     13  O   UNL     1       7.991   5.494  20.415  0.00  0.00    +0.000 OA
ATOM     14  H   UNL     1       8.969   5.554  20.380  0.00  0.00    +0.000 HD
ENDBRANCH   9  13
ENDBRANCH   8   9
ENDBRANCH   1   8
TORSDOF 7
ENDMDL
MODEL 3
REMARK VINA RESULT:      -4.5      1.194      1.536
REMARK  Name = 
REMARK  8 active torsions:
REMARK  status: ('A' for Active; 'I' for Inactive)
REMARK    1  A    between atoms: C_1  and  N_2
REMARK    2  A    between atoms: N_2  and  C_3
REMARK    3  A    between atoms: N_2  and  C_9
REMARK    4  A    between atoms: C_3  and  C_4
REMARK    5  A    between atoms: C_4  and  P_5
REMARK    6  A    between atoms: P_5  and  O_7
REMARK    7  A    between atoms: P_5  and  O_8
REMARK    8  A    between atoms: C_9  and  S_11
REMARK                            x       y       z     vdW  Elec       q    Type
REMARK                         _______ _______ _______ _____ _____    ______ ____
ROOT
ATOM      1  C   UNL     1       5.499   4.645  19.152  0.00  0.00    +0.000 C 
ENDROOT
BRANCH   1   3
ATOM      2  C   UNL     1       4.350   2.519  19.855  0.00  0.00    +0.000 C 
ATOM      3  N   UNL     1       4.274   3.832  19.210  0.00  0.00    +0.000 N 
BRANCH   3   4
ATOM      4  C   UNL     1       2.990   4.411  19.036  0.00  0.00    +0.000 C 
ATOM      5  S   UNL     1       2.342   5.623  20.017  0.00  0.00    +0.000 S 
BRANCH   4   6
ATOM      6  S   UNL     1       1.981   3.855  17.689  0.00  0.00    +0.000 S 
ATOM      7  H   UNL     1       0.941   4.681  17.826  0.00  0.00    +0.000 HD
ENDBRANCH   4   6
ENDBRANCH   3   4
ENDBRANCH   1   3
BRANCH   1   8
ATOM      8  C   UNL     1       5.710   5.607  17.984  0.00  0.00    +0.000 C 
BRANCH   8   9
ATOM      9  P   UNL     1       6.855   4.825  16.850  0.00  0.00    +0.000 P 
ATOM     10  O   UNL     1       7.458   5.680  15.797  0.00  0.00    +0.000 OA
BRANCH   9  11
ATOM     11  O   UNL     1       7.942   4.079  17.761  0.00  0.00    +0.000 OA
ATOM     12  H   UNL     1       8.149   4.516  18.605  0.00  0.00    +0.000 HD
ENDBRANCH   9  11
BRANCH   9  13
ATOM     13  O   UNL     1       6.141   3.540  16.224  0.00  0.00    +0.000 OA
ATOM     14  H   UNL     1       5.894   2.919  16.941  0.00  0.00    +0.000 HD
ENDBRANCH   9  13
ENDBRANCH   8   9
ENDBRANCH   1   8
TORSDOF 7
ENDMDL
MODEL 4
REMARK VINA RESULT:      -4.5      2.020      2.337
REMARK  Name = 
REMARK  8 active torsions:
REMARK  status: ('A' for Active; 'I' for Inactive)
REMARK    1  A    between atoms: C_1  and  N_2
REMARK    2  A    between atoms: N_2  and  C_3
REMARK    3  A    between atoms: N_2  and  C_9
REMARK    4  A    between atoms: C_3  and  C_4
REMARK    5  A    between atoms: C_4  and  P_5
REMARK    6  A    between atoms: P_5  and  O_7
REMARK    7  A    between atoms: P_5  and  O_8
REMARK    8  A    between atoms: C_9  and  S_11
REMARK                            x       y       z     vdW  Elec       q    Type
REMARK                         _______ _______ _______ _____ _____    ______ ____
ROOT
ATOM      1  C   UNL     1       5.118   5.694  17.816  0.00  0.00    +0.000 C 
ENDROOT
BRANCH   1   3
ATOM      2  C   UNL     1       5.257   3.899  16.057  0.00  0.00    +0.000 C 
ATOM      3  N   UNL     1       4.483   4.576  17.101  0.00  0.00    +0.000 N 
BRANCH   3   4
ATOM      4  C   UNL     1       3.356   3.898  17.633  0.00  0.00    +0.000 C 
ATOM      5  S   UNL     1       1.857   4.616  17.933  0.00  0.00    +0.000 S 
BRANCH   4   6
ATOM      6  S   UNL     1       3.497   2.170  17.998  0.00  0.00    +0.000 S 
ATOM      7  H   UNL     1       2.314   1.961  18.582  0.00  0.00    +0.000 HD
ENDBRANCH   4   6
ENDBRANCH   3   4
ENDBRANCH   1   3
BRANCH   1   8
ATOM      8  C   UNL     1       5.720   5.457  19.200  0.00  0.00    +0.000 C 
BRANCH   8   9
ATOM      9  P   UNL     1       7.492   5.682  19.056  0.00  0.00    +0.000 P 
ATOM     10  O   UNL     1       7.967   6.949  18.446  0.00  0.00    +0.000 OA
BRANCH   9  11
ATOM     11  O   UNL     1       8.094   5.417  20.517  0.00  0.00    +0.000 OA
ATOM     12  H   UNL     1       7.547   4.860  21.098  0.00  0.00    +0.000 HD
ENDBRANCH   9  11
BRANCH   9  13
ATOM     13  O   UNL     1       8.100   4.408  18.309  0.00  0.00    +0.000 OA
ATOM     14  H   UNL     1       7.448   3.675  18.325  0.00  0.00    +0.000 HD
ENDBRANCH   9  13
ENDBRANCH   8   9
ENDBRANCH   1   8
TORSDOF 7
ENDMDL
MODEL 5
REMARK VINA RESULT:      -4.4      1.770      2.007
REMARK  Name = 
REMARK  8 active torsions:
REMARK  status: ('A' for Active; 'I' for Inactive)
REMARK    1  A    between atoms: C_1  and  N_2
REMARK    2  A    between atoms: N_2  and  C_3
REMARK    3  A    between atoms: N_2  and  C_9
REMARK    4  A    between atoms: C_3  and  C_4
REMARK    5  A    between atoms: C_4  and  P_5
REMARK    6  A    between atoms: P_5  and  O_7
REMARK    7  A    between atoms: P_5  and  O_8
REMARK    8  A    between atoms: C_9  and  S_11
REMARK                            x       y       z     vdW  Elec       q    Type
REMARK                         _______ _______ _______ _____ _____    ______ ____
ROOT
ATOM      1  C   UNL     1       4.594   5.077  16.864  0.00  0.00    +0.000 C 
ENDROOT
BRANCH   1   3
ATOM      2  C   UNL     1       5.400   5.200  19.245  0.00  0.00    +0.000 C 
ATOM      3  N   UNL     1       4.764   4.430  18.174  0.00  0.00    +0.000 N 
BRANCH   3   4
ATOM      4  C   UNL     1       4.007   3.287  18.542  0.00  0.00    +0.000 C 
ATOM      5  S   UNL     1       4.294   2.346  19.914  0.00  0.00    +0.000 S 
BRANCH   4   6
ATOM      6  S   UNL     1       2.643   2.804  17.518  0.00  0.00    +0.000 S 
ATOM      7  H   UNL     1       1.717   2.588  18.456  0.00  0.00    +0.000 HD
ENDBRANCH   4   6
ENDBRANCH   3   4
ENDBRANCH   1   3
BRANCH   1   8
ATOM      8  C   UNL     1       5.713   5.955  16.306  0.00  0.00    +0.000 C 
BRANCH   8   9
ATOM      9  P   UNL     1       6.917   4.865  15.550  0.00  0.00    +0.000 P 
ATOM     10  O   UNL     1       7.665   5.388  14.379  0.00  0.00    +0.000 OA
BRANCH   9  11
ATOM     11  O   UNL     1       7.868   4.362  16.737  0.00  0.00    +0.000 OA
ATOM     12  H   UNL     1       8.638   3.836  16.458  0.00  0.00    +0.000 HD
ENDBRANCH   9  11
BRANCH   9  13
ATOM     13  O   UNL     1       6.197   3.479  15.213  0.00  0.00    +0.000 OA
ATOM     14  H   UNL     1       6.136   3.368  14.240  0.00  0.00    +0.000 HD
ENDBRANCH   9  13
ENDBRANCH   8   9
ENDBRANCH   1   8
TORSDOF 7
ENDMDL
MODEL 6
REMARK VINA RESULT:      -4.4      0.319      1.814
REMARK  Name = 
REMARK  8 active torsions:
REMARK  status: ('A' for Active; 'I' for Inactive)
REMARK    1  A    between atoms: C_1  and  N_2
REMARK    2  A    between atoms: N_2  and  C_3
REMARK    3  A    between atoms: N_2  and  C_9
REMARK    4  A    between atoms: C_3  and  C_4
REMARK    5  A    between atoms: C_4  and  P_5
REMARK    6  A    between atoms: P_5  and  O_7
REMARK    7  A    between atoms: P_5  and  O_8
REMARK    8  A    between atoms: C_9  and  S_11
REMARK                            x       y       z     vdW  Elec       q    Type
REMARK                         _______ _______ _______ _____ _____    ______ ____
ROOT
ATOM      1  C   UNL     1       5.018   4.143  18.897  0.00  0.00    +0.000 C 
ENDROOT
BRANCH   1   3
ATOM      2  C   UNL     1       3.307   5.904  19.448  0.00  0.00    +0.000 C 
ATOM      3  N   UNL     1       3.646   4.487  19.303  0.00  0.00    +0.000 N 
BRANCH   3   4
ATOM      4  C   UNL     1       2.578   3.562  19.172  0.00  0.00    +0.000 C 
ATOM      5  S   UNL     1       2.557   2.268  18.087  0.00  0.00    +0.000 S 
BRANCH   4   6
ATOM      6  S   UNL     1       1.163   3.740  20.224  0.00  0.00    +0.000 S 
ATOM      7  H   UNL     1       0.337   4.378  19.391  0.00  0.00    +0.000 HD
ENDBRANCH   4   6
ENDBRANCH   3   4
ENDBRANCH   1   3
BRANCH   1   8
ATOM      8  C   UNL     1       6.004   5.258  18.552  0.00  0.00    +0.000 C 
BRANCH   8   9
ATOM      9  P   UNL     1       6.839   4.780  17.041  0.00  0.00    +0.000 P 
ATOM     10  O   UNL     1       6.074   3.954  16.074  0.00  0.00    +0.000 OA
BRANCH   9  11
ATOM     11  O   UNL     1       7.414   6.134  16.404  0.00  0.00    +0.000 OA
ATOM     12  H   UNL     1       6.993   6.953  16.718  0.00  0.00    +0.000 HD
ENDBRANCH   9  11
BRANCH   9  13
ATOM     13  O   UNL     1       8.226   4.090  17.432  0.00  0.00    +0.000 OA
ATOM     14  H   UNL     1       8.917   4.351  16.786  0.00  0.00    +0.000 HD
ENDBRANCH   9  13
ENDBRANCH   8   9
ENDBRANCH   1   8
TORSDOF 7
ENDMDL
MODEL 7
REMARK VINA RESULT:      -4.4      1.535      2.401
REMARK  Name = 
REMARK  8 active torsions:
REMARK  status: ('A' for Active; 'I' for Inactive)
REMARK    1  A    between atoms: C_1  and  N_2
REMARK    2  A    between atoms: N_2  and  C_3
REMARK    3  A    between atoms: N_2  and  C_9
REMARK    4  A    between atoms: C_3  and  C_4
REMARK    5  A    between atoms: C_4  and  P_5
REMARK    6  A    between atoms: P_5  and  O_7
REMARK    7  A    between atoms: P_5  and  O_8
REMARK    8  A    between atoms: C_9  and  S_11
REMARK                            x       y       z     vdW  Elec       q    Type
REMARK                         _______ _______ _______ _____ _____    ______ ____
ROOT
ATOM      1  C   UNL     1       4.449   4.776  16.911  0.00  0.00    +0.000 C 
ENDROOT
BRANCH   1   3
ATOM      2  C   UNL     1       5.024   5.237  19.317  0.00  0.00    +0.000 C 
ATOM      3  N   UNL     1       4.394   4.366  18.323  0.00  0.00    +0.000 N 
BRANCH   3   4
ATOM      4  C   UNL     1       3.449   3.412  18.783  0.00  0.00    +0.000 C 
ATOM      5  S   UNL     1       3.356   1.815  18.243  0.00  0.00    +0.000 S 
BRANCH   4   6
ATOM      6  S   UNL     1       2.287   3.898  20.030  0.00  0.00    +0.000 S 
ATOM      7  H   UNL     1       1.683   4.908  19.398  0.00  0.00    +0.000 HD
ENDBRANCH   4   6
ENDBRANCH   3   4
ENDBRANCH   1   3
BRANCH   1   8
ATOM      8  C   UNL     1       5.437   4.095  15.966  0.00  0.00    +0.000 C 
BRANCH   8   9
ATOM      9  P   UNL     1       6.993   4.972  16.102  0.00  0.00    +0.000 P 
ATOM     10  O   UNL     1       8.019   4.398  17.009  0.00  0.00    +0.000 OA
BRANCH   9  11
ATOM     11  O   UNL     1       7.519   5.180  14.603  0.00  0.00    +0.000 OA
ATOM     12  H   UNL     1       8.285   5.772  14.509  0.00  0.00    +0.000 HD
ENDBRANCH   9  11
BRANCH   9  13
ATOM     13  O   UNL     1       6.680   6.496  16.463  0.00  0.00    +0.000 OA
ATOM     14  H   UNL     1       5.902   6.540  17.058  0.00  0.00    +0.000 HD
ENDBRANCH   9  13
ENDBRANCH   8   9
ENDBRANCH   1   8
TORSDOF 7
ENDMDL
MODEL 8
REMARK VINA RESULT:      -4.4      1.309      1.811
REMARK  Name = 
REMARK  8 active torsions:
REMARK  status: ('A' for Active; 'I' for Inactive)
REMARK    1  A    between atoms: C_1  and  N_2
REMARK    2  A    between atoms: N_2  and  C_3
REMARK    3  A    between atoms: N_2  and  C_9
REMARK    4  A    between atoms: C_3  and  C_4
REMARK    5  A    between atoms: C_4  and  P_5
REMARK    6  A    between atoms: P_5  and  O_7
REMARK    7  A    between atoms: P_5  and  O_8
REMARK    8  A    between atoms: C_9  and  S_11
REMARK                            x       y       z     vdW  Elec       q    Type
REMARK                         _______ _______ _______ _____ _____    ______ ____
ROOT
ATOM      1  C   UNL     1       4.516   5.001  18.042  0.00  0.00    +0.000 C 
ENDROOT
BRANCH   1   3
ATOM      2  C   UNL     1       3.545   2.688  17.837  0.00  0.00    +0.000 C 
ATOM      3  N   UNL     1       3.538   3.998  18.492  0.00  0.00    +0.000 N 
BRANCH   3   4
ATOM      4  C   UNL     1       2.891   4.104  19.751  0.00  0.00    +0.000 C 
ATOM      5  S   UNL     1       2.788   2.858  20.885  0.00  0.00    +0.000 S 
BRANCH   4   6
ATOM      6  S   UNL     1       2.149   5.650  20.199  0.00  0.00    +0.000 S 
ATOM      7  H   UNL     1       1.403   5.869  19.113  0.00  0.00    +0.000 HD
ENDBRANCH   4   6
ENDBRANCH   3   4
ENDBRANCH   1   3
BRANCH   1   8
ATOM      8  C   UNL     1       5.943   4.958  18.584  0.00  0.00    +0.000 C 
BRANCH   8   9
ATOM      9  P   UNL     1       7.043   4.825  17.177  0.00  0.00    +0.000 P 
ATOM     10  O   UNL     1       7.395   6.081  16.469  0.00  0.00    +0.000 OA
BRANCH   9  11
ATOM     11  O   UNL     1       8.323   4.007  17.688  0.00  0.00    +0.000 OA
ATOM     12  H   UNL     1       8.246   3.038  17.634  0.00  0.00    +0.000 HD
ENDBRANCH   9  11
BRANCH   9  13
ATOM     13  O   UNL     1       6.445   3.735  16.173  0.00  0.00    +0.000 OA
ATOM     14  H   UNL     1       6.955   3.744  15.336  0.00  0.00    +0.000 HD
ENDBRANCH   9  13
ENDBRANCH   8   9
ENDBRANCH   1   8
TORSDOF 7
ENDMDL
MODEL 9
REMARK VINA RESULT:      -4.4      1.383      1.852
REMARK  Name = 
REMARK  8 active torsions:
REMARK  status: ('A' for Active; 'I' for Inactive)
REMARK    1  A    between atoms: C_1  and  N_2
REMARK    2  A    between atoms: N_2  and  C_3
REMARK    3  A    between atoms: N_2  and  C_9
REMARK    4  A    between atoms: C_3  and  C_4
REMARK    5  A    between atoms: C_4  and  P_5
REMARK    6  A    between atoms: P_5  and  O_7
REMARK    7  A    between atoms: P_5  and  O_8
REMARK    8  A    between atoms: C_9  and  S_11
REMARK                            x       y       z     vdW  Elec       q    Type
REMARK                         _______ _______ _______ _____ _____    ______ ____
ROOT
ATOM      1  C   UNL     1       4.180   4.858  17.446  0.00  0.00    +0.000 C 
ENDROOT
BRANCH   1   3
ATOM      2  C   UNL     1       4.394   3.299  19.410  0.00  0.00    +0.000 C 
ATOM      3  N   UNL     1       3.612   4.302  18.684  0.00  0.00    +0.000 N 
BRANCH   3   4
ATOM      4  C   UNL     1       2.571   4.963  19.386  0.00  0.00    +0.000 C 
ATOM      5  S   UNL     1       2.440   6.638  19.555  0.00  0.00    +0.000 S 
BRANCH   4   6
ATOM      6  S   UNL     1       1.292   3.987  20.129  0.00  0.00    +0.000 S 
ATOM      7  H   UNL     1       0.533   3.748  19.057  0.00  0.00    +0.000 HD
ENDBRANCH   4   6
ENDBRANCH   3   4
ENDBRANCH   1   3
BRANCH   1   8
ATOM      8  C   UNL     1       5.439   5.722  17.517  0.00  0.00    +0.000 C 
BRANCH   8   9
ATOM      9  P   UNL     1       6.743   4.830  16.672  0.00  0.00    +0.000 P 
ATOM     10  O   UNL     1       7.515   5.570  15.643  0.00  0.00    +0.000 OA
BRANCH   9  11
ATOM     11  O   UNL     1       7.664   4.197  17.820  0.00  0.00    +0.000 OA
ATOM     12  H   UNL     1       8.194   3.426  17.551  0.00  0.00    +0.000 HD
ENDBRANCH   9  11
BRANCH   9  13
ATOM     13  O   UNL     1       6.127   3.479  16.083  0.00  0.00    +0.000 OA
ATOM     14  H   UNL     1       5.880   3.613  15.144  0.00  0.00    +0.000 HD
ENDBRANCH   9  13
ENDBRANCH   8   9
ENDBRANCH   1   8
TORSDOF 7
ENDMDL
