MODEL 1
REMARK VINA RESULT:      -8.5      0.000      0.000
REMARK  Name = 
REMARK  8 active torsions:
REMARK  status: ('A' for Active; 'I' for Inactive)
REMARK    1  A    between atoms: C_1  and  O_2
REMARK    2  A    between atoms: O_2  and  C_3
REMARK    3  A    between atoms: C_8  and  C_9
REMARK    4  A    between atoms: C_9  and  N_10
REMARK    5  A    between atoms: C_11  and  C_13
REMARK    6  A    between atoms: C_15  and  C_16
REMARK    7  A    between atoms: C_16  and  C_17
REMARK    8  A    between atoms: C_16  and  C_18
REMARK                            x       y       z     vdW  Elec       q    Type
REMARK                         _______ _______ _______ _____ _____    ______ ____
ROOT
ATOM      1  C   UNL     1       7.377   4.511  17.950  0.00  0.00    +0.000 C 
ENDROOT
BRANCH   1   7
ATOM      2  C   UNL     1       2.002   4.054  20.610  0.00  0.00    +0.000 A 
ATOM      3  C   UNL     1       2.000   5.439  20.415  0.00  0.00    +0.000 A 
ATOM      4  C   UNL     1       3.074   6.082  19.781  0.00  0.00    +0.000 A 
ATOM      5  C   UNL     1       4.161   5.314  19.345  0.00  0.00    +0.000 A 
ATOM      6  N   UNL     1       5.315   5.710  18.720  0.00  0.00    +0.000 NA
ATOM      7  C   UNL     1       6.016   4.609  18.541  0.00  0.00    +0.000 A 
ATOM      8  N   UNL     1       5.335   3.509  19.011  0.00  0.00    +0.000 N 
ATOM      9  C   UNL     1       4.146   3.940  19.545  0.00  0.00    +0.000 A 
ATOM     10  C   UNL     1       3.087   3.275  20.171  0.00  0.00    +0.000 A 
ATOM     11  H   UNL     1       5.664   2.553  18.972  0.00  0.00    +0.000 HD
BRANCH   2  13
ATOM     12  C   UNL     1       1.398   2.244  22.030  0.00  0.00    +0.000 C 
ATOM     13  O   UNL     1       1.000   3.340  21.214  0.00  0.00    +0.000 OA
ENDBRANCH   2  13
ENDBRANCH   1   7
BRANCH   1  14
ATOM     14  N   UNL     1       7.277   4.241  16.539  0.00  0.00    +0.000 N 
ATOM     15  C   UNL     1       7.268   5.238  15.594  0.00  0.00    +0.000 C 
ATOM     16  O   UNL     1       7.406   6.425  15.884  0.00  0.00    +0.000 OA
ATOM     17  H   UNL     1       7.288   3.279  16.216  0.00  0.00    +0.000 HD
BRANCH  15  18
ATOM     18  C   UNL     1       7.068   4.779  14.216  0.00  0.00    +0.000 A 
ATOM     19  C   UNL     1       6.129   3.818  13.762  0.00  0.00    +0.000 A 
ATOM     20  C   UNL     1       6.359   3.711  12.413  0.00  0.00    +0.000 A 
ATOM     21  O   UNL     1       7.370   4.556  12.070  0.00  0.00    +0.000 OA
ATOM     22  N   UNL     1       7.816   5.230  13.193  0.00  0.00    +0.000 NA
BRANCH  20  23
ATOM     23  C   UNL     1       5.752   2.888  11.327  0.00  0.00    +0.000 C 
ATOM     24  C   UNL     1       6.146   1.417  11.456  0.00  0.00    +0.000 C 
ATOM     25  C   UNL     1       4.232   3.042  11.297  0.00  0.00    +0.000 C 
ENDBRANCH  20  23
ENDBRANCH  15  18
ENDBRANCH   1  14
TORSDOF 5
ENDMDL
MODEL 2
REMARK VINA RESULT:      -8.4      2.899      3.939
REMARK  Name = 
REMARK  8 active torsions:
REMARK  status: ('A' for Active; 'I' for Inactive)
REMARK    1  A    between atoms: C_1  and  O_2
REMARK    2  A    between atoms: O_2  and  C_3
REMARK    3  A    between atoms: C_8  and  C_9
REMARK    4  A    between atoms: C_9  and  N_10
REMARK    5  A    between atoms: C_11  and  C_13
REMARK    6  A    between atoms: C_15  and  C_16
REMARK    7  A    between atoms: C_16  and  C_17
REMARK    8  A    between atoms: C_16  and  C_18
REMARK                            x       y       z     vdW  Elec       q    Type
REMARK                         _______ _______ _______ _____ _____    ______ ____
ROOT
ATOM      1  C   UNL     1       4.012   4.733  19.264  0.00  0.00    +0.000 C 
ENDROOT
BRANCH   1   7
ATOM      2  C   UNL     1       0.587   9.488  20.617  0.00  0.00    +0.000 A 
ATOM      3  C   UNL     1       0.874   9.832  19.292  0.00  0.00    +0.000 A 
ATOM      4  C   UNL     1       1.662   8.999  18.483  0.00  0.00    +0.000 A 
ATOM      5  C   UNL     1       2.166   7.810  19.024  0.00  0.00    +0.000 A 
ATOM      6  N   UNL     1       2.958   6.854  18.443  0.00  0.00    +0.000 NA
ATOM      7  C   UNL     1       3.165   5.949  19.379  0.00  0.00    +0.000 A 
ATOM      8  N   UNL     1       2.508   6.284  20.541  0.00  0.00    +0.000 N 
ATOM      9  C   UNL     1       1.871   7.483  20.340  0.00  0.00    +0.000 A 
ATOM     10  C   UNL     1       1.086   8.294  21.166  0.00  0.00    +0.000 A 
ATOM     11  H   UNL     1       2.506   5.738  21.393  0.00  0.00    +0.000 HD
BRANCH   2  13
ATOM     12  C   UNL     1      -0.319   9.731  22.802  0.00  0.00    +0.000 C 
ATOM     13  O   UNL     1      -0.173  10.235  21.480  0.00  0.00    +0.000 OA
ENDBRANCH   2  13
ENDBRANCH   1   7
BRANCH   1  14
ATOM     14  N   UNL     1       4.600   4.671  17.951  0.00  0.00    +0.000 N 
ATOM     15  C   UNL     1       5.959   4.624  17.751  0.00  0.00    +0.000 C 
ATOM     16  O   UNL     1       6.762   4.569  18.680  0.00  0.00    +0.000 OA
ATOM     17  H   UNL     1       3.996   4.585  17.140  0.00  0.00    +0.000 HD
BRANCH  15  18
ATOM     18  C   UNL     1       6.376   4.656  16.346  0.00  0.00    +0.000 A 
ATOM     19  C   UNL     1       5.922   3.814  15.299  0.00  0.00    +0.000 A 
ATOM     20  C   UNL     1       6.631   4.213  14.194  0.00  0.00    +0.000 A 
ATOM     21  O   UNL     1       7.459   5.235  14.546  0.00  0.00    +0.000 OA
ATOM     22  N   UNL     1       7.302   5.519  15.892  0.00  0.00    +0.000 NA
BRANCH  20  23
ATOM     23  C   UNL     1       6.667   3.759  12.772  0.00  0.00    +0.000 C 
ATOM     24  C   UNL     1       5.265   3.439  12.256  0.00  0.00    +0.000 C 
ATOM     25  C   UNL     1       7.352   4.791  11.878  0.00  0.00    +0.000 C 
ENDBRANCH  20  23
ENDBRANCH  15  18
ENDBRANCH   1  14
TORSDOF 5
ENDMDL
MODEL 3
REMARK VINA RESULT:      -8.2      2.593      3.339
REMARK  Name = 
REMARK  8 active torsions:
REMARK  status: ('A' for Active; 'I' for Inactive)
REMARK    1  A    between atoms: C_1  and  O_2
REMARK    2  A    between atoms: O_2  and  C_3
REMARK    3  A    between atoms: C_8  and  C_9
REMARK    4  A    between atoms: C_9  and  N_10
REMARK    5  A    between atoms: C_11  and  C_13
REMARK    6  A    between atoms: C_15  and  C_16
REMARK    7  A    between atoms: C_16  and  C_17
REMARK    8  A    between atoms: C_16  and  C_18
REMARK                            x       y       z     vdW  Elec       q    Type
REMARK                         _______ _______ _______ _____ _____    ______ ____
ROOT
ATOM      1  C   UNL     1       4.723   4.764  18.649  0.00  0.00    +0.000 C 
ENDROOT
BRANCH   1   7
ATOM      2  C   UNL     1       0.870   9.135  20.142  0.00  0.00    +0.000 A 
ATOM      3  C   UNL     1       1.061   9.500  18.806  0.00  0.00    +0.000 A 
ATOM      4  C   UNL     1       1.898   8.751  17.965  0.00  0.00    +0.000 A 
ATOM      5  C   UNL     1       2.550   7.626  18.485  0.00  0.00    +0.000 A 
ATOM      6  N   UNL     1       3.414   6.756  17.872  0.00  0.00    +0.000 NA
ATOM      7  C   UNL     1       3.756   5.885  18.800  0.00  0.00    +0.000 A 
ATOM      8  N   UNL     1       3.117   6.154  19.989  0.00  0.00    +0.000 N 
ATOM      9  C   UNL     1       2.348   7.277  19.814  0.00  0.00    +0.000 A 
ATOM     10  C   UNL     1       1.516   8.005  20.671  0.00  0.00    +0.000 A 
ATOM     11  H   UNL     1       3.210   5.616  20.840  0.00  0.00    +0.000 HD
BRANCH   2  13
ATOM     12  C   UNL     1      -0.345   9.075  22.186  0.00  0.00    +0.000 C 
ATOM     13  O   UNL     1       0.071   9.801  21.036  0.00  0.00    +0.000 OA
ENDBRANCH   2  13
ENDBRANCH   1   7
BRANCH   1  14
ATOM     14  N   UNL     1       5.075   4.607  17.263  0.00  0.00    +0.000 N 
ATOM     15  C   UNL     1       6.379   4.559  16.832  0.00  0.00    +0.000 C 
ATOM     16  O   UNL     1       7.333   4.584  17.607  0.00  0.00    +0.000 OA
ATOM     17  H   UNL     1       4.341   4.452  16.579  0.00  0.00    +0.000 HD
BRANCH  15  18
ATOM     18  C   UNL     1       6.544   4.487  15.377  0.00  0.00    +0.000 A 
ATOM     19  C   UNL     1       5.808   3.682  14.470  0.00  0.00    +0.000 A 
ATOM     20  C   UNL     1       6.359   3.942  13.241  0.00  0.00    +0.000 A 
ATOM     21  O   UNL     1       7.363   4.850  13.390  0.00  0.00    +0.000 OA
ATOM     22  N   UNL     1       7.482   5.197  14.725  0.00  0.00    +0.000 NA
BRANCH  20  23
ATOM     23  C   UNL     1       6.085   3.441  11.862  0.00  0.00    +0.000 C 
ATOM     24  C   UNL     1       6.861   2.157  11.572  0.00  0.00    +0.000 C 
ATOM     25  C   UNL     1       4.588   3.234  11.634  0.00  0.00    +0.000 C 
ENDBRANCH  20  23
ENDBRANCH  15  18
ENDBRANCH   1  14
TORSDOF 5
ENDMDL
MODEL 4
REMARK VINA RESULT:      -8.1      0.867      1.800
REMARK  Name = 
REMARK  8 active torsions:
REMARK  status: ('A' for Active; 'I' for Inactive)
REMARK    1  A    between atoms: C_1  and  O_2
REMARK    2  A    between atoms: O_2  and  C_3
REMARK    3  A    between atoms: C_8  and  C_9
REMARK    4  A    between atoms: C_9  and  N_10
REMARK    5  A    between atoms: C_11  and  C_13
REMARK    6  A    between atoms: C_15  and  C_16
REMARK    7  A    between atoms: C_16  and  C_17
REMARK    8  A    between atoms: C_16  and  C_18
REMARK                            x       y       z     vdW  Elec       q    Type
REMARK                         _______ _______ _______ _____ _____    ______ ____
ROOT
ATOM      1  C   UNL     1       7.537   4.608  18.033  0.00  0.00    +0.000 C 
ENDROOT
BRANCH   1   7
ATOM      2  C   UNL     1       2.027   5.517  20.267  0.00  0.00    +0.000 A 
ATOM      3  C   UNL     1       2.051   4.124  20.383  0.00  0.00    +0.000 A 
ATOM      4  C   UNL     1       3.180   3.386  19.999  0.00  0.00    +0.000 A 
ATOM      5  C   UNL     1       4.293   4.066  19.489  0.00  0.00    +0.000 A 
ATOM      6  N   UNL     1       5.490   3.570  19.042  0.00  0.00    +0.000 NA
ATOM      7  C   UNL     1       6.184   4.620  18.651  0.00  0.00    +0.000 A 
ATOM      8  N   UNL     1       5.477   5.783  18.857  0.00  0.00    +0.000 N 
ATOM      9  C   UNL     1       4.253   5.450  19.381  0.00  0.00    +0.000 A 
ATOM     10  C   UNL     1       3.141   6.209  19.760  0.00  0.00    +0.000 A 
ATOM     11  H   UNL     1       5.807   6.716  18.648  0.00  0.00    +0.000 HD
BRANCH   2  13
ATOM     12  C   UNL     1       1.287   7.654  21.007  0.00  0.00    +0.000 C 
ATOM     13  O   UNL     1       0.973   6.321  20.618  0.00  0.00    +0.000 OA
ENDBRANCH   2  13
ENDBRANCH   1   7
BRANCH   1  14
ATOM     14  N   UNL     1       7.425   4.347  16.622  0.00  0.00    +0.000 N 
ATOM     15  C   UNL     1       6.994   5.296  15.726  0.00  0.00    +0.000 C 
ATOM     16  O   UNL     1       6.734   6.450  16.060  0.00  0.00    +0.000 OA
ATOM     17  H   UNL     1       7.743   3.455  16.256  0.00  0.00    +0.000 HD
BRANCH  15  18
ATOM     18  C   UNL     1       6.858   4.822  14.345  0.00  0.00    +0.000 A 
ATOM     19  C   UNL     1       5.882   3.924  13.841  0.00  0.00    +0.000 A 
ATOM     20  C   UNL     1       6.197   3.769  12.515  0.00  0.00    +0.000 A 
ATOM     21  O   UNL     1       7.292   4.528  12.231  0.00  0.00    +0.000 OA
ATOM     22  N   UNL     1       7.708   5.191  13.372  0.00  0.00    +0.000 NA
BRANCH  20  23
ATOM     23  C   UNL     1       5.607   2.970  11.401  0.00  0.00    +0.000 C 
ATOM     24  C   UNL     1       6.005   1.499  11.500  0.00  0.00    +0.000 C 
ATOM     25  C   UNL     1       4.086   3.120  11.357  0.00  0.00    +0.000 C 
ENDBRANCH  20  23
ENDBRANCH  15  18
ENDBRANCH   1  14
TORSDOF 5
ENDMDL
MODEL 5
REMARK VINA RESULT:      -7.8      3.190      4.543
REMARK  Name = 
REMARK  8 active torsions:
REMARK  status: ('A' for Active; 'I' for Inactive)
REMARK    1  A    between atoms: C_1  and  O_2
REMARK    2  A    between atoms: O_2  and  C_3
REMARK    3  A    between atoms: C_8  and  C_9
REMARK    4  A    between atoms: C_9  and  N_10
REMARK    5  A    between atoms: C_11  and  C_13
REMARK    6  A    between atoms: C_15  and  C_16
REMARK    7  A    between atoms: C_16  and  C_17
REMARK    8  A    between atoms: C_16  and  C_18
REMARK                            x       y       z     vdW  Elec       q    Type
REMARK                         _______ _______ _______ _____ _____    ______ ____
ROOT
ATOM      1  C   UNL     1       3.538   4.868  19.779  0.00  0.00    +0.000 C 
ENDROOT
BRANCH   1   7
ATOM      2  C   UNL     1       0.418   9.945  20.601  0.00  0.00    +0.000 A 
ATOM      3  C   UNL     1       0.780  10.159  19.267  0.00  0.00    +0.000 A 
ATOM      4  C   UNL     1       1.537   9.210  18.562  0.00  0.00    +0.000 A 
ATOM      5  C   UNL     1       1.931   8.037  19.216  0.00  0.00    +0.000 A 
ATOM      6  N   UNL     1       2.674   6.984  18.748  0.00  0.00    +0.000 NA
ATOM      7  C   UNL     1       2.778   6.146  19.761  0.00  0.00    +0.000 A 
ATOM      8  N   UNL     1       2.102   6.619  20.863  0.00  0.00    +0.000 N 
ATOM      9  C   UNL     1       1.562   7.840  20.540  0.00  0.00    +0.000 A 
ATOM     10  C   UNL     1       0.807   8.768  21.264  0.00  0.00    +0.000 A 
ATOM     11  H   UNL     1       2.027   6.146  21.753  0.00  0.00    +0.000 HD
BRANCH   2  13
ATOM     12  C   UNL     1      -0.590  10.407  22.705  0.00  0.00    +0.000 C 
ATOM     13  O   UNL     1      -0.319  10.810  21.368  0.00  0.00    +0.000 OA
ENDBRANCH   2  13
ENDBRANCH   1   7
BRANCH   1  14
ATOM     14  N   UNL     1       4.329   4.755  18.582  0.00  0.00    +0.000 N 
ATOM     15  C   UNL     1       5.690   4.944  18.574  0.00  0.00    +0.000 C 
ATOM     16  O   UNL     1       6.333   5.163  19.600  0.00  0.00    +0.000 OA
ATOM     17  H   UNL     1       3.885   4.452  17.720  0.00  0.00    +0.000 HD
BRANCH  15  18
ATOM     18  C   UNL     1       6.314   4.879  17.249  0.00  0.00    +0.000 A 
ATOM     19  C   UNL     1       5.682   5.076  15.995  0.00  0.00    +0.000 A 
ATOM     20  C   UNL     1       6.671   4.873  15.066  0.00  0.00    +0.000 A 
ATOM     21  O   UNL     1       7.831   4.577  15.715  0.00  0.00    +0.000 OA
ATOM     22  N   UNL     1       7.615   4.582  17.082  0.00  0.00    +0.000 NA
BRANCH  20  23
ATOM     23  C   UNL     1       6.708   4.908  13.575  0.00  0.00    +0.000 C 
ATOM     24  C   UNL     1       8.099   5.271  13.060  0.00  0.00    +0.000 C 
ATOM     25  C   UNL     1       6.237   3.582  12.977  0.00  0.00    +0.000 C 
ENDBRANCH  20  23
ENDBRANCH  15  18
ENDBRANCH   1  14
TORSDOF 5
ENDMDL
MODEL 6
REMARK VINA RESULT:      -7.7      2.615      3.509
REMARK  Name = 
REMARK  8 active torsions:
REMARK  status: ('A' for Active; 'I' for Inactive)
REMARK    1  A    between atoms: C_1  and  O_2
REMARK    2  A    between atoms: O_2  and  C_3
REMARK    3  A    between atoms: C_8  and  C_9
REMARK    4  A    between atoms: C_9  and  N_10
REMARK    5  A    between atoms: C_11  and  C_13
REMARK    6  A    between atoms: C_15  and  C_16
REMARK    7  A    between atoms: C_16  and  C_17
REMARK    8  A    between atoms: C_16  and  C_18
REMARK                            x       y       z     vdW  Elec       q    Type
REMARK                         _______ _______ _______ _____ _____    ______ ____
ROOT
ATOM      1  C   UNL     1       4.668   3.955  18.648  0.00  0.00    +0.000 C 
ENDROOT
BRANCH   1   7
ATOM      2  C   UNL     1       1.436   9.023  18.859  0.00  0.00    +0.000 A 
ATOM      3  C   UNL     1       1.186   8.585  20.164  0.00  0.00    +0.000 A 
ATOM      4  C   UNL     1       1.756   7.398  20.649  0.00  0.00    +0.000 A 
ATOM      5  C   UNL     1       2.583   6.648  19.803  0.00  0.00    +0.000 A 
ATOM      6  N   UNL     1       3.234   5.466  20.043  0.00  0.00    +0.000 NA
ATOM      7  C   UNL     1       3.860   5.174  18.920  0.00  0.00    +0.000 A 
ATOM      8  N   UNL     1       3.651   6.148  17.971  0.00  0.00    +0.000 N 
ATOM      9  C   UNL     1       2.821   7.098  18.512  0.00  0.00    +0.000 A 
ATOM     10  C   UNL     1       2.267   8.279  18.005  0.00  0.00    +0.000 A 
ATOM     11  H   UNL     1       4.039   6.151  17.037  0.00  0.00    +0.000 HD
BRANCH   2  13
ATOM     12  C   UNL     1      -0.487  10.240  18.167  0.00  0.00    +0.000 C 
ATOM     13  O   UNL     1       0.928  10.167  18.300  0.00  0.00    +0.000 OA
ENDBRANCH   2  13
ENDBRANCH   1   7
BRANCH   1  14
ATOM     14  N   UNL     1       5.077   3.940  17.268  0.00  0.00    +0.000 N 
ATOM     15  C   UNL     1       6.294   4.424  16.851  0.00  0.00    +0.000 C 
ATOM     16  O   UNL     1       7.140   4.846  17.637  0.00  0.00    +0.000 OA
ATOM     17  H   UNL     1       4.481   3.491  16.579  0.00  0.00    +0.000 HD
BRANCH  15  18
ATOM     18  C   UNL     1       6.498   4.410  15.400  0.00  0.00    +0.000 A 
ATOM     19  C   UNL     1       5.795   3.633  14.444  0.00  0.00    +0.000 A 
ATOM     20  C   UNL     1       6.375   3.945  13.241  0.00  0.00    +0.000 A 
ATOM     21  O   UNL     1       7.364   4.857  13.451  0.00  0.00    +0.000 OA
ATOM     22  N   UNL     1       7.444   5.154  14.801  0.00  0.00    +0.000 NA
BRANCH  20  23
ATOM     23  C   UNL     1       6.143   3.495  11.837  0.00  0.00    +0.000 C 
ATOM     24  C   UNL     1       7.021   2.295  11.485  0.00  0.00    +0.000 C 
ATOM     25  C   UNL     1       4.668   3.179  11.592  0.00  0.00    +0.000 C 
ENDBRANCH  20  23
ENDBRANCH  15  18
ENDBRANCH   1  14
TORSDOF 5
ENDMDL
MODEL 7
REMARK VINA RESULT:      -7.7      1.108      1.222
REMARK  Name = 
REMARK  8 active torsions:
REMARK  status: ('A' for Active; 'I' for Inactive)
REMARK    1  A    between atoms: C_1  and  O_2
REMARK    2  A    between atoms: O_2  and  C_3
REMARK    3  A    between atoms: C_8  and  C_9
REMARK    4  A    between atoms: C_9  and  N_10
REMARK    5  A    between atoms: C_11  and  C_13
REMARK    6  A    between atoms: C_15  and  C_16
REMARK    7  A    between atoms: C_16  and  C_17
REMARK    8  A    between atoms: C_16  and  C_18
REMARK                            x       y       z     vdW  Elec       q    Type
REMARK                         _______ _______ _______ _____ _____    ______ ____
ROOT
ATOM      1  C   UNL     1       6.429   6.767  17.219  0.00  0.00    +0.000 C 
ENDROOT
BRANCH   1   7
ATOM      2  C   UNL     1       2.247   4.551  20.930  0.00  0.00    +0.000 A 
ATOM      3  C   UNL     1       1.580   5.727  20.575  0.00  0.00    +0.000 A 
ATOM      4  C   UNL     1       2.148   6.634  19.668  0.00  0.00    +0.000 A 
ATOM      5  C   UNL     1       3.405   6.347  19.119  0.00  0.00    +0.000 A 
ATOM      6  N   UNL     1       4.157   7.074  18.235  0.00  0.00    +0.000 NA
ATOM      7  C   UNL     1       5.261   6.377  18.053  0.00  0.00    +0.000 A 
ATOM      8  N   UNL     1       5.230   5.207  18.778  0.00  0.00    +0.000 N 
ATOM      9  C   UNL     1       4.052   5.174  19.482  0.00  0.00    +0.000 A 
ATOM     10  C   UNL     1       3.506   4.252  20.382  0.00  0.00    +0.000 A 
ATOM     11  H   UNL     1       5.956   4.503  18.790  0.00  0.00    +0.000 HD
BRANCH   2  13
ATOM     12  C   UNL     1       2.057   2.247  21.493  0.00  0.00    +0.000 C 
ATOM     13  O   UNL     1       1.771   3.606  21.804  0.00  0.00    +0.000 OA
ENDBRANCH   2  13
ENDBRANCH   1   7
BRANCH   1  14
ATOM     14  N   UNL     1       6.324   6.157  15.919  0.00  0.00    +0.000 N 
ATOM     15  C   UNL     1       7.069   5.061  15.554  0.00  0.00    +0.000 C 
ATOM     16  O   UNL     1       7.829   4.489  16.334  0.00  0.00    +0.000 OA
ATOM     17  H   UNL     1       5.626   6.497  15.266  0.00  0.00    +0.000 HD
BRANCH  15  18
ATOM     18  C   UNL     1       6.896   4.635  14.162  0.00  0.00    +0.000 A 
ATOM     19  C   UNL     1       5.962   3.690  13.666  0.00  0.00    +0.000 A 
ATOM     20  C   UNL     1       6.220   3.612  12.321  0.00  0.00    +0.000 A 
ATOM     21  O   UNL     1       7.243   4.459  12.018  0.00  0.00    +0.000 OA
ATOM     22  N   UNL     1       7.668   5.104  13.167  0.00  0.00    +0.000 NA
BRANCH  20  23
ATOM     23  C   UNL     1       5.632   2.818  11.202  0.00  0.00    +0.000 C 
ATOM     24  C   UNL     1       6.005   1.341  11.313  0.00  0.00    +0.000 C 
ATOM     25  C   UNL     1       4.116   2.993  11.136  0.00  0.00    +0.000 C 
ENDBRANCH  20  23
ENDBRANCH  15  18
ENDBRANCH   1  14
TORSDOF 5
ENDMDL
MODEL 8
REMARK VINA RESULT:      -7.6      1.709      7.730
REMARK  Name = 
REMARK  8 active torsions:
REMARK  status: ('A' for Active; 'I' for Inactive)
REMARK    1  A    between atoms: C_1  and  O_2
REMARK    2  A    between atoms: O_2  and  C_3
REMARK    3  A    between atoms: C_8  and  C_9
REMARK    4  A    between atoms: C_9  and  N_10
REMARK    5  A    between atoms: C_11  and  C_13
REMARK    6  A    between atoms: C_15  and  C_16
REMARK    7  A    between atoms: C_16  and  C_17
REMARK    8  A    between atoms: C_16  and  C_18
REMARK                            x       y       z     vdW  Elec       q    Type
REMARK                         _______ _______ _______ _____ _____    ______ ____
ROOT
ATOM      1  C   UNL     1       6.813   6.408  17.153  0.00  0.00    +0.000 C 
ENDROOT
BRANCH   1   7
ATOM      2  C   UNL     1       6.020   3.146  12.162  0.00  0.00    +0.000 A 
ATOM      3  C   UNL     1       7.162   3.843  11.754  0.00  0.00    +0.000 A 
ATOM      4  C   UNL     1       7.791   4.764  12.605  0.00  0.00    +0.000 A 
ATOM      5  C   UNL     1       7.254   4.982  13.881  0.00  0.00    +0.000 A 
ATOM      6  N   UNL     1       7.678   5.829  14.872  0.00  0.00    +0.000 NA
ATOM      7  C   UNL     1       6.821   5.670  15.861  0.00  0.00    +0.000 A 
ATOM      8  N   UNL     1       5.871   4.726  15.545  0.00  0.00    +0.000 N 
ATOM      9  C   UNL     1       6.121   4.281  14.270  0.00  0.00    +0.000 A 
ATOM     10  C   UNL     1       5.478   3.356  13.442  0.00  0.00    +0.000 A 
ATOM     11  H   UNL     1       5.118   4.425  16.149  0.00  0.00    +0.000 HD
BRANCH   2  13
ATOM     12  C   UNL     1       6.049   1.046  11.045  0.00  0.00    +0.000 C 
ATOM     13  O   UNL     1       5.342   2.228  11.403  0.00  0.00    +0.000 OA
ENDBRANCH   2  13
ENDBRANCH   1   7
BRANCH   1  14
ATOM     14  N   UNL     1       5.576   6.163  17.846  0.00  0.00    +0.000 N 
ATOM     15  C   UNL     1       5.497   5.349  18.951  0.00  0.00    +0.000 C 
ATOM     16  O   UNL     1       6.487   4.825  19.459  0.00  0.00    +0.000 OA
ATOM     17  H   UNL     1       4.739   6.661  17.561  0.00  0.00    +0.000 HD
BRANCH  15  18
ATOM     18  C   UNL     1       4.141   5.144  19.469  0.00  0.00    +0.000 A 
ATOM     19  C   UNL     1       3.493   3.904  19.704  0.00  0.00    +0.000 A 
ATOM     20  C   UNL     1       2.239   4.241  20.148  0.00  0.00    +0.000 A 
ATOM     21  O   UNL     1       2.134   5.599  20.185  0.00  0.00    +0.000 OA
ATOM     22  N   UNL     1       3.322   6.169  19.764  0.00  0.00    +0.000 NA
BRANCH  20  23
ATOM     23  C   UNL     1       1.045   3.448  20.564  0.00  0.00    +0.000 C 
ATOM     24  C   UNL     1       0.525   2.583  19.417  0.00  0.00    +0.000 C 
ATOM     25  C   UNL     1       1.347   2.594  21.795  0.00  0.00    +0.000 C 
ENDBRANCH  20  23
ENDBRANCH  15  18
ENDBRANCH   1  14
TORSDOF 5
ENDMDL
MODEL 9
REMARK VINA RESULT:      -7.6      3.020      4.351
REMARK  Name = 
REMARK  8 active torsions:
REMARK  status: ('A' for Active; 'I' for Inactive)
REMARK    1  A    between atoms: C_1  and  O_2
REMARK    2  A    between atoms: O_2  and  C_3
REMARK    3  A    between atoms: C_8  and  C_9
REMARK    4  A    between atoms: C_9  and  N_10
REMARK    5  A    between atoms: C_11  and  C_13
REMARK    6  A    between atoms: C_15  and  C_16
REMARK    7  A    between atoms: C_16  and  C_17
REMARK    8  A    between atoms: C_16  and  C_18
REMARK                            x       y       z     vdW  Elec       q    Type
REMARK                         _______ _______ _______ _____ _____    ______ ____
ROOT
ATOM      1  C   UNL     1       3.520   4.194  18.988  0.00  0.00    +0.000 C 
ENDROOT
BRANCH   1   7
ATOM      2  C   UNL     1       1.258   9.762  19.229  0.00  0.00    +0.000 A 
ATOM      3  C   UNL     1       0.864   9.342  20.503  0.00  0.00    +0.000 A 
ATOM      4  C   UNL     1       1.181   8.058  20.971  0.00  0.00    +0.000 A 
ATOM      5  C   UNL     1       1.901   7.192  20.139  0.00  0.00    +0.000 A 
ATOM      6  N   UNL     1       2.312   5.905  20.366  0.00  0.00    +0.000 NA
ATOM      7  C   UNL     1       2.934   5.533  19.265  0.00  0.00    +0.000 A 
ATOM      8  N   UNL     1       2.957   6.554  18.343  0.00  0.00    +0.000 N 
ATOM      9  C   UNL     1       2.286   7.626  18.878  0.00  0.00    +0.000 A 
ATOM     10  C   UNL     1       1.984   8.901  18.389  0.00  0.00    +0.000 A 
ATOM     11  H   UNL     1       3.388   6.511  17.429  0.00  0.00    +0.000 HD
BRANCH   2  13
ATOM     12  C   UNL     1       2.115  11.732  18.208  0.00  0.00    +0.000 C 
ATOM     13  O   UNL     1       0.997  10.994  18.687  0.00  0.00    +0.000 OA
ENDBRANCH   2  13
ENDBRANCH   1   7
BRANCH   1  14
ATOM     14  N   UNL     1       4.301   4.245  17.779  0.00  0.00    +0.000 N 
ATOM     15  C   UNL     1       5.668   4.383  17.787  0.00  0.00    +0.000 C 
ATOM     16  O   UNL     1       6.323   4.409  18.828  0.00  0.00    +0.000 OA
ATOM     17  H   UNL     1       3.842   4.102  16.885  0.00  0.00    +0.000 HD
BRANCH  15  18
ATOM     18  C   UNL     1       6.283   4.507  16.463  0.00  0.00    +0.000 A 
ATOM     19  C   UNL     1       5.888   3.847  15.271  0.00  0.00    +0.000 A 
ATOM     20  C   UNL     1       6.790   4.263  14.323  0.00  0.00    +0.000 A 
ATOM     21  O   UNL     1       7.672   5.124  14.901  0.00  0.00    +0.000 OA
ATOM     22  N   UNL     1       7.358   5.283  16.240  0.00  0.00    +0.000 NA
BRANCH  20  23
ATOM     23  C   UNL     1       6.974   3.960  12.873  0.00  0.00    +0.000 C 
ATOM     24  C   UNL     1       5.698   3.391  12.257  0.00  0.00    +0.000 C 
ATOM     25  C   UNL     1       7.445   5.194  12.105  0.00  0.00    +0.000 C 
ENDBRANCH  20  23
ENDBRANCH  15  18
ENDBRANCH   1  14
TORSDOF 5
ENDMDL
