MODEL 1
REMARK VINA RESULT:      -7.4      0.000      0.000
REMARK  Name = 
REMARK  6 active torsions:
REMARK  status: ('A' for Active; 'I' for Inactive)
REMARK    1  A    between atoms: C_2  and  O_3
REMARK    2  A    between atoms: C_2  and  C_4
REMARK    3  A    between atoms: C_4  and  S_5
REMARK    4  A    between atoms: S_5  and  C_6
REMARK    5  A    between atoms: C_11  and  O_12
REMARK    6  A    between atoms: O_12  and  C_13
REMARK                            x       y       z     vdW  Elec       q    Type
REMARK                         _______ _______ _______ _____ _____    ______ ____
ROOT
ATOM      1  C   UNL     1       4.582   3.909  19.265  0.00  0.00    +0.000 A 
ATOM      2  N   UNL     1       5.860   4.289  19.314  0.00  0.00    +0.000 NA
ATOM      3  C   UNL     1       6.137   5.467  18.735  0.00  0.00    +0.000 A 
ATOM      4 CL   UNL     1       7.787   5.930  18.835  0.00  0.00    +0.000 Cl
ATOM      5  C   UNL     1       5.226   6.263  18.098  0.00  0.00    +0.000 A 
ATOM      6  C   UNL     1       3.958   5.749  18.074  0.00  0.00    +0.000 A 
ATOM      7  N   UNL     1       3.602   4.593  18.669  0.00  0.00    +0.000 NA
ENDROOT
BRANCH   1   8
ATOM      8  S   UNL     1       4.196   2.366  20.055  0.00  0.00    +0.000 S 
BRANCH   8   9
ATOM      9  C   UNL     1       2.381   2.345  19.883  0.00  0.00    +0.000 C 
BRANCH   9  11
ATOM     10  O   UNL     1       1.533   2.517  22.134  0.00  0.00    +0.000 OA
ATOM     11  C   UNL     1       1.668   3.026  21.030  0.00  0.00    +0.000 C 
BRANCH  11  12
ATOM     12  O   UNL     1       1.094   4.218  20.740  0.00  0.00    +0.000 OA
ATOM     13  H   UNL     1       0.118   4.196  20.836  0.00  0.00    +0.000 HD
ENDBRANCH  11  12
ENDBRANCH   9  11
ENDBRANCH   8   9
ENDBRANCH   1   8
BRANCH   6  14
ATOM     14  O   UNL     1       2.991   6.504  17.420  0.00  0.00    +0.000 OA
BRANCH  14  15
ATOM     15  C   UNL     1       2.405   7.537  18.118  0.00  0.00    +0.000 A 
ATOM     16  C   UNL     1       2.171   8.798  17.575  0.00  0.00    +0.000 A 
ATOM     17  C   UNL     1       1.581   9.797  18.355  0.00  0.00    +0.000 A 
ATOM     18  C   UNL     1       1.256   9.591  19.683  0.00  0.00    +0.000 A 
ATOM     19  N   UNL     1       0.704  10.594  20.384  0.00  0.00    +0.000 NA
ATOM     20  C   UNL     1       0.411  10.375  21.683  0.00  0.00    +0.000 A 
ATOM     21  C   UNL     1       0.646   9.178  22.330  0.00  0.00    +0.000 A 
ATOM     22  C   UNL     1       1.216   8.139  21.602  0.00  0.00    +0.000 A 
ATOM     23  C   UNL     1       1.535   8.328  20.248  0.00  0.00    +0.000 A 
ATOM     24  C   UNL     1       2.111   7.309  19.463  0.00  0.00    +0.000 A 
ENDBRANCH  14  15
ENDBRANCH   6  14
TORSDOF 6
ENDMDL
MODEL 2
REMARK VINA RESULT:      -7.3      3.516      4.932
REMARK  Name = 
REMARK  6 active torsions:
REMARK  status: ('A' for Active; 'I' for Inactive)
REMARK    1  A    between atoms: C_2  and  O_3
REMARK    2  A    between atoms: C_2  and  C_4
REMARK    3  A    between atoms: C_4  and  S_5
REMARK    4  A    between atoms: S_5  and  C_6
REMARK    5  A    between atoms: C_11  and  O_12
REMARK    6  A    between atoms: O_12  and  C_13
REMARK                            x       y       z     vdW  Elec       q    Type
REMARK                         _______ _______ _______ _____ _____    ______ ____
ROOT
ATOM      1  C   UNL     1       6.388   5.175  15.603  0.00  0.00    +0.000 A 
ATOM      2  N   UNL     1       7.258   5.973  16.225  0.00  0.00    +0.000 NA
ATOM      3  C   UNL     1       6.869   6.433  17.424  0.00  0.00    +0.000 A 
ATOM      4 CL   UNL     1       8.022   7.439  18.199  0.00  0.00    +0.000 Cl
ATOM      5  C   UNL     1       5.667   6.162  18.017  0.00  0.00    +0.000 A 
ATOM      6  C   UNL     1       4.841   5.370  17.266  0.00  0.00    +0.000 A 
ATOM      7  N   UNL     1       5.183   4.842  16.073  0.00  0.00    +0.000 NA
ENDROOT
BRANCH   1   8
ATOM      8  S   UNL     1       6.904   4.534  14.029  0.00  0.00    +0.000 S 
BRANCH   8   9
ATOM      9  C   UNL     1       5.299   4.024  13.332  0.00  0.00    +0.000 C 
BRANCH   9  11
ATOM     10  O   UNL     1       4.495   2.866  11.376  0.00  0.00    +0.000 OA
ATOM     11  C   UNL     1       5.434   3.147  12.107  0.00  0.00    +0.000 C 
BRANCH  11  12
ATOM     12  O   UNL     1       6.658   2.605  11.906  0.00  0.00    +0.000 OA
ATOM     13  H   UNL     1       6.623   1.798  11.348  0.00  0.00    +0.000 HD
ENDBRANCH  11  12
ENDBRANCH   9  11
ENDBRANCH   8   9
ENDBRANCH   1   8
BRANCH   6  14
ATOM     14  O   UNL     1       3.595   5.079  17.807  0.00  0.00    +0.000 OA
BRANCH  14  15
ATOM     15  C   UNL     1       2.964   6.067  18.531  0.00  0.00    +0.000 A 
ATOM     16  C   UNL     1       2.547   5.909  19.849  0.00  0.00    +0.000 A 
ATOM     17  C   UNL     1       1.902   6.958  20.511  0.00  0.00    +0.000 A 
ATOM     18  C   UNL     1       1.617   8.155  19.878  0.00  0.00    +0.000 A 
ATOM     19  N   UNL     1       0.983   9.120  20.561  0.00  0.00    +0.000 NA
ATOM     20  C   UNL     1       0.701  10.273  19.919  0.00  0.00    +0.000 A 
ATOM     21  C   UNL     1       1.027  10.514  18.599  0.00  0.00    +0.000 A 
ATOM     22  C   UNL     1       1.686   9.513  17.893  0.00  0.00    +0.000 A 
ATOM     23  C   UNL     1       1.998   8.300  18.526  0.00  0.00    +0.000 A 
ATOM     24  C   UNL     1       2.666   7.254  17.859  0.00  0.00    +0.000 A 
ENDBRANCH  14  15
ENDBRANCH   6  14
TORSDOF 6
ENDMDL
MODEL 3
REMARK VINA RESULT:      -7.3      2.819      3.983
REMARK  Name = 
REMARK  6 active torsions:
REMARK  status: ('A' for Active; 'I' for Inactive)
REMARK    1  A    between atoms: C_2  and  O_3
REMARK    2  A    between atoms: C_2  and  C_4
REMARK    3  A    between atoms: C_4  and  S_5
REMARK    4  A    between atoms: S_5  and  C_6
REMARK    5  A    between atoms: C_11  and  O_12
REMARK    6  A    between atoms: O_12  and  C_13
REMARK                            x       y       z     vdW  Elec       q    Type
REMARK                         _______ _______ _______ _____ _____    ______ ____
ROOT
ATOM      1  C   UNL     1       4.596   5.281  17.146  0.00  0.00    +0.000 A 
ATOM      2  N   UNL     1       4.074   4.065  16.974  0.00  0.00    +0.000 NA
ATOM      3  C   UNL     1       3.072   3.741  17.806  0.00  0.00    +0.000 A 
ATOM      4 CL   UNL     1       2.415   2.178  17.541  0.00  0.00    +0.000 Cl
ATOM      5  C   UNL     1       2.585   4.544  18.800  0.00  0.00    +0.000 A 
ATOM      6  C   UNL     1       3.228   5.748  18.908  0.00  0.00    +0.000 A 
ATOM      7  N   UNL     1       4.213   6.153  18.083  0.00  0.00    +0.000 NA
ENDROOT
BRANCH   1   8
ATOM      8  S   UNL     1       5.902   5.734  16.031  0.00  0.00    +0.000 S 
BRANCH   8   9
ATOM      9  C   UNL     1       7.189   6.249  17.214  0.00  0.00    +0.000 C 
BRANCH   9  11
ATOM     10  O   UNL     1       7.485   5.248  19.388  0.00  0.00    +0.000 OA
ATOM     11  C   UNL     1       7.588   5.149  18.174  0.00  0.00    +0.000 C 
BRANCH  11  12
ATOM     12  O   UNL     1       8.162   4.060  17.611  0.00  0.00    +0.000 OA
ATOM     13  H   UNL     1       9.070   3.900  17.948  0.00  0.00    +0.000 HD
ENDBRANCH  11  12
ENDBRANCH   9  11
ENDBRANCH   8   9
ENDBRANCH   1   8
BRANCH   6  14
ATOM     14  O   UNL     1       2.792   6.599  19.917  0.00  0.00    +0.000 OA
BRANCH  14  15
ATOM     15  C   UNL     1       2.070   7.712  19.549  0.00  0.00    +0.000 A 
ATOM     16  C   UNL     1       2.094   8.257  18.268  0.00  0.00    +0.000 A 
ATOM     17  C   UNL     1       1.340   9.398  17.977  0.00  0.00    +0.000 A 
ATOM     18  C   UNL     1       0.592  10.045  18.944  0.00  0.00    +0.000 A 
ATOM     19  N   UNL     1      -0.100  11.144  18.607  0.00  0.00    +0.000 NA
ATOM     20  C   UNL     1      -0.810  11.768  19.570  0.00  0.00    +0.000 A 
ATOM     21  C   UNL     1      -0.864  11.339  20.881  0.00  0.00    +0.000 A 
ATOM     22  C   UNL     1      -0.147  10.198  21.228  0.00  0.00    +0.000 A 
ATOM     23  C   UNL     1       0.602   9.521  20.255  0.00  0.00    +0.000 A 
ATOM     24  C   UNL     1       1.344   8.359  20.550  0.00  0.00    +0.000 A 
ENDBRANCH  14  15
ENDBRANCH   6  14
TORSDOF 6
ENDMDL
MODEL 4
REMARK VINA RESULT:      -7.3      1.080      1.226
REMARK  Name = 
REMARK  6 active torsions:
REMARK  status: ('A' for Active; 'I' for Inactive)
REMARK    1  A    between atoms: C_2  and  O_3
REMARK    2  A    between atoms: C_2  and  C_4
REMARK    3  A    between atoms: C_4  and  S_5
REMARK    4  A    between atoms: S_5  and  C_6
REMARK    5  A    between atoms: C_11  and  O_12
REMARK    6  A    between atoms: O_12  and  C_13
REMARK                            x       y       z     vdW  Elec       q    Type
REMARK                         _______ _______ _______ _____ _____    ______ ____
ROOT
ATOM      1  C   UNL     1       4.602   3.909  19.182  0.00  0.00    +0.000 A 
ATOM      2  N   UNL     1       5.878   4.271  19.332  0.00  0.00    +0.000 NA
ATOM      3  C   UNL     1       6.204   5.470  18.824  0.00  0.00    +0.000 A 
ATOM      4 CL   UNL     1       7.847   5.907  19.054  0.00  0.00    +0.000 Cl
ATOM      5  C   UNL     1       5.345   6.303  18.163  0.00  0.00    +0.000 A 
ATOM      6  C   UNL     1       4.076   5.806  18.033  0.00  0.00    +0.000 A 
ATOM      7  N   UNL     1       3.671   4.630  18.552  0.00  0.00    +0.000 NA
ENDROOT
BRANCH   1   8
ATOM      8  S   UNL     1       4.150   2.339  19.878  0.00  0.00    +0.000 S 
BRANCH   8   9
ATOM      9  C   UNL     1       2.353   2.568  20.081  0.00  0.00    +0.000 C 
BRANCH   9  11
ATOM     10  O   UNL     1       0.339   2.156  18.820  0.00  0.00    +0.000 OA
ATOM     11  C   UNL     1       1.561   2.182  18.851  0.00  0.00    +0.000 C 
BRANCH  11  12
ATOM     12  O   UNL     1       2.293   1.771  17.788  0.00  0.00    +0.000 OA
ATOM     13  H   UNL     1       3.143   1.362  18.056  0.00  0.00    +0.000 HD
ENDBRANCH  11  12
ENDBRANCH   9  11
ENDBRANCH   8   9
ENDBRANCH   1   8
BRANCH   6  14
ATOM     14  O   UNL     1       3.163   6.600  17.349  0.00  0.00    +0.000 OA
BRANCH  14  15
ATOM     15  C   UNL     1       2.517   7.589  18.058  0.00  0.00    +0.000 A 
ATOM     16  C   UNL     1       2.219   8.843  17.534  0.00  0.00    +0.000 A 
ATOM     17  C   UNL     1       1.571   9.797  18.324  0.00  0.00    +0.000 A 
ATOM     18  C   UNL     1       1.248   9.553  19.646  0.00  0.00    +0.000 A 
ATOM     19  N   UNL     1       0.638  10.513  20.358  0.00  0.00    +0.000 NA
ATOM     20  C   UNL     1       0.347  10.258  21.651  0.00  0.00    +0.000 A 
ATOM     21  C   UNL     1       0.642   9.065  22.282  0.00  0.00    +0.000 A 
ATOM     22  C   UNL     1       1.273   8.070  21.542  0.00  0.00    +0.000 A 
ATOM     23  C   UNL     1       1.590   8.297  20.194  0.00  0.00    +0.000 A 
ATOM     24  C   UNL     1       2.226   7.323  19.397  0.00  0.00    +0.000 A 
ENDBRANCH  14  15
ENDBRANCH   6  14
TORSDOF 6
ENDMDL
MODEL 5
REMARK VINA RESULT:      -7.2      4.610      5.589
REMARK  Name = 
REMARK  6 active torsions:
REMARK  status: ('A' for Active; 'I' for Inactive)
REMARK    1  A    between atoms: C_2  and  O_3
REMARK    2  A    between atoms: C_2  and  C_4
REMARK    3  A    between atoms: C_4  and  S_5
REMARK    4  A    between atoms: S_5  and  C_6
REMARK    5  A    between atoms: C_11  and  O_12
REMARK    6  A    between atoms: O_12  and  C_13
REMARK                            x       y       z     vdW  Elec       q    Type
REMARK                         _______ _______ _______ _____ _____    ______ ____
ROOT
ATOM      1  C   UNL     1       6.631   5.850  16.479  0.00  0.00    +0.000 A 
ATOM      2  N   UNL     1       7.260   5.922  15.305  0.00  0.00    +0.000 NA
ATOM      3  C   UNL     1       6.985   4.935  14.438  0.00  0.00    +0.000 A 
ATOM      4 CL   UNL     1       7.798   5.073  12.933  0.00  0.00    +0.000 Cl
ATOM      5  C   UNL     1       6.147   3.884  14.685  0.00  0.00    +0.000 A 
ATOM      6  C   UNL     1       5.594   3.894  15.937  0.00  0.00    +0.000 A 
ATOM      7  N   UNL     1       5.795   4.873  16.841  0.00  0.00    +0.000 NA
ENDROOT
BRANCH   1   8
ATOM      8  S   UNL     1       6.962   7.167  17.624  0.00  0.00    +0.000 S 
BRANCH   8   9
ATOM      9  C   UNL     1       8.179   6.363  18.717  0.00  0.00    +0.000 C 
BRANCH   9  11
ATOM     10  O   UNL     1       8.158   5.186  20.821  0.00  0.00    +0.000 OA
ATOM     11  C   UNL     1       7.541   5.578  19.842  0.00  0.00    +0.000 C 
BRANCH  11  12
ATOM     12  O   UNL     1       6.240   5.248  19.662  0.00  0.00    +0.000 OA
ATOM     13  H   UNL     1       5.648   6.029  19.698  0.00  0.00    +0.000 HD
ENDBRANCH  11  12
ENDBRANCH   9  11
ENDBRANCH   8   9
ENDBRANCH   1   8
BRANCH   6  14
ATOM     14  O   UNL     1       4.749   2.837  16.254  0.00  0.00    +0.000 OA
BRANCH  14  15
ATOM     15  C   UNL     1       3.769   3.060  17.197  0.00  0.00    +0.000 A 
ATOM     16  C   UNL     1       2.587   3.745  16.931  0.00  0.00    +0.000 A 
ATOM     17  C   UNL     1       1.647   3.940  17.947  0.00  0.00    +0.000 A 
ATOM     18  C   UNL     1       1.872   3.511  19.242  0.00  0.00    +0.000 A 
ATOM     19  N   UNL     1       0.937   3.740  20.178  0.00  0.00    +0.000 NA
ATOM     20  C   UNL     1       1.185   3.326  21.438  0.00  0.00    +0.000 A 
ATOM     21  C   UNL     1       2.345   2.681  21.818  0.00  0.00    +0.000 A 
ATOM     22  C   UNL     1       3.312   2.443  20.847  0.00  0.00    +0.000 A 
ATOM     23  C   UNL     1       3.091   2.857  19.525  0.00  0.00    +0.000 A 
ATOM     24  C   UNL     1       4.034   2.638  18.501  0.00  0.00    +0.000 A 
ENDBRANCH  14  15
ENDBRANCH   6  14
TORSDOF 6
ENDMDL
MODEL 6
REMARK VINA RESULT:      -7.2      2.974      4.327
REMARK  Name = 
REMARK  6 active torsions:
REMARK  status: ('A' for Active; 'I' for Inactive)
REMARK    1  A    between atoms: C_2  and  O_3
REMARK    2  A    between atoms: C_2  and  C_4
REMARK    3  A    between atoms: C_4  and  S_5
REMARK    4  A    between atoms: S_5  and  C_6
REMARK    5  A    between atoms: C_11  and  O_12
REMARK    6  A    between atoms: O_12  and  C_13
REMARK                            x       y       z     vdW  Elec       q    Type
REMARK                         _______ _______ _______ _____ _____    ______ ____
ROOT
ATOM      1  C   UNL     1       3.483   4.313  17.809  0.00  0.00    +0.000 A 
ATOM      2  N   UNL     1       2.558   3.354  17.882  0.00  0.00    +0.000 NA
ATOM      3  C   UNL     1       1.580   3.559  18.778  0.00  0.00    +0.000 A 
ATOM      4 CL   UNL     1       0.400   2.314  18.827  0.00  0.00    +0.000 Cl
ATOM      5  C   UNL     1       1.489   4.641  19.609  0.00  0.00    +0.000 A 
ATOM      6  C   UNL     1       2.517   5.534  19.474  0.00  0.00    +0.000 A 
ATOM      7  N   UNL     1       3.509   5.411  18.569  0.00  0.00    +0.000 NA
ENDROOT
BRANCH   1   8
ATOM      8  S   UNL     1       4.767   4.070  16.606  0.00  0.00    +0.000 S 
BRANCH   8   9
ATOM      9  C   UNL     1       6.151   4.941  17.411  0.00  0.00    +0.000 C 
BRANCH   9  11
ATOM     10  O   UNL     1       7.785   4.708  15.653  0.00  0.00    +0.000 OA
ATOM     11  C   UNL     1       7.500   4.573  16.835  0.00  0.00    +0.000 C 
BRANCH  11  12
ATOM     12  O   UNL     1       8.367   3.991  17.696  0.00  0.00    +0.000 OA
ATOM     13  H   UNL     1       9.233   3.795  17.279  0.00  0.00    +0.000 HD
ENDBRANCH  11  12
ENDBRANCH   9  11
ENDBRANCH   8   9
ENDBRANCH   1   8
BRANCH   6  14
ATOM     14  O   UNL     1       2.492   6.645  20.310  0.00  0.00    +0.000 OA
BRANCH  14  15
ATOM     15  C   UNL     1       1.868   7.782  19.846  0.00  0.00    +0.000 A 
ATOM     16  C   UNL     1       2.034   8.279  18.556  0.00  0.00    +0.000 A 
ATOM     17  C   UNL     1       1.373   9.448  18.166  0.00  0.00    +0.000 A 
ATOM     18  C   UNL     1       0.581  10.167  19.043  0.00  0.00    +0.000 A 
ATOM     19  N   UNL     1      -0.017  11.289  18.613  0.00  0.00    +0.000 NA
ATOM     20  C   UNL     1      -0.771  11.983  19.490  0.00  0.00    +0.000 A 
ATOM     21  C   UNL     1      -0.962  11.603  20.804  0.00  0.00    +0.000 A 
ATOM     22  C   UNL     1      -0.344  10.439  21.247  0.00  0.00    +0.000 A 
ATOM     23  C   UNL     1       0.448   9.689  20.364  0.00  0.00    +0.000 A 
ATOM     24  C   UNL     1       1.095   8.500  20.759  0.00  0.00    +0.000 A 
ENDBRANCH  14  15
ENDBRANCH   6  14
TORSDOF 6
ENDMDL
MODEL 7
REMARK VINA RESULT:      -7.2      3.671      7.111
REMARK  Name = 
REMARK  6 active torsions:
REMARK  status: ('A' for Active; 'I' for Inactive)
REMARK    1  A    between atoms: C_2  and  O_3
REMARK    2  A    between atoms: C_2  and  C_4
REMARK    3  A    between atoms: C_4  and  S_5
REMARK    4  A    between atoms: S_5  and  C_6
REMARK    5  A    between atoms: C_11  and  O_12
REMARK    6  A    between atoms: O_12  and  C_13
REMARK                            x       y       z     vdW  Elec       q    Type
REMARK                         _______ _______ _______ _____ _____    ______ ____
ROOT
ATOM      1  C   UNL     1       2.443   5.936  19.724  0.00  0.00    +0.000 A 
ATOM      2  N   UNL     1       1.471   5.022  19.719  0.00  0.00    +0.000 NA
ATOM      3  C   UNL     1       1.872   3.749  19.583  0.00  0.00    +0.000 A 
ATOM      4 CL   UNL     1       0.596   2.602  19.600  0.00  0.00    +0.000 Cl
ATOM      5  C   UNL     1       3.170   3.346  19.429  0.00  0.00    +0.000 A 
ATOM      6  C   UNL     1       4.073   4.375  19.405  0.00  0.00    +0.000 A 
ATOM      7  N   UNL     1       3.743   5.671  19.576  0.00  0.00    +0.000 NA
ENDROOT
BRANCH   1   8
ATOM      8  S   UNL     1       1.927   7.622  19.936  0.00  0.00    +0.000 S 
BRANCH   8   9
ATOM      9  C   UNL     1       2.220   8.275  18.259  0.00  0.00    +0.000 C 
BRANCH   9  11
ATOM     10  O   UNL     1       0.284   9.702  18.094  0.00  0.00    +0.000 OA
ATOM     11  C   UNL     1       1.496   9.576  17.992  0.00  0.00    +0.000 C 
BRANCH  11  12
ATOM     12  O   UNL     1       2.264  10.593  17.538  0.00  0.00    +0.000 OA
ATOM     13  H   UNL     1       3.126  10.648  18.004  0.00  0.00    +0.000 HD
ENDBRANCH  11  12
ENDBRANCH   9  11
ENDBRANCH   8   9
ENDBRANCH   1   8
BRANCH   6  14
ATOM     14  O   UNL     1       5.408   4.029  19.228  0.00  0.00    +0.000 OA
BRANCH  14  15
ATOM     15  C   UNL     1       6.017   4.408  18.053  0.00  0.00    +0.000 A 
ATOM     16  C   UNL     1       6.969   5.421  17.970  0.00  0.00    +0.000 A 
ATOM     17  C   UNL     1       7.532   5.754  16.735  0.00  0.00    +0.000 A 
ATOM     18  C   UNL     1       7.139   5.134  15.562  0.00  0.00    +0.000 A 
ATOM     19  N   UNL     1       7.707   5.507  14.404  0.00  0.00    +0.000 NA
ATOM     20  C   UNL     1       7.297   4.900  13.271  0.00  0.00    +0.000 A 
ATOM     21  C   UNL     1       6.326   3.918  13.236  0.00  0.00    +0.000 A 
ATOM     22  C   UNL     1       5.740   3.532  14.437  0.00  0.00    +0.000 A 
ATOM     23  C   UNL     1       6.141   4.139  15.637  0.00  0.00    +0.000 A 
ATOM     24  C   UNL     1       5.583   3.784  16.882  0.00  0.00    +0.000 A 
ENDBRANCH  14  15
ENDBRANCH   6  14
TORSDOF 6
ENDMDL
MODEL 8
REMARK VINA RESULT:      -7.2      2.759      4.274
REMARK  Name = 
REMARK  6 active torsions:
REMARK  status: ('A' for Active; 'I' for Inactive)
REMARK    1  A    between atoms: C_2  and  O_3
REMARK    2  A    between atoms: C_2  and  C_4
REMARK    3  A    between atoms: C_4  and  S_5
REMARK    4  A    between atoms: S_5  and  C_6
REMARK    5  A    between atoms: C_11  and  O_12
REMARK    6  A    between atoms: O_12  and  C_13
REMARK                            x       y       z     vdW  Elec       q    Type
REMARK                         _______ _______ _______ _____ _____    ______ ____
ROOT
ATOM      1  C   UNL     1       3.697   3.945  17.512  0.00  0.00    +0.000 A 
ATOM      2  N   UNL     1       2.699   3.067  17.630  0.00  0.00    +0.000 NA
ATOM      3  C   UNL     1       1.761   3.374  18.540  0.00  0.00    +0.000 A 
ATOM      4 CL   UNL     1       0.485   2.231  18.648  0.00  0.00    +0.000 Cl
ATOM      5  C   UNL     1       1.777   4.480  19.343  0.00  0.00    +0.000 A 
ATOM      6  C   UNL     1       2.871   5.283  19.163  0.00  0.00    +0.000 A 
ATOM      7  N   UNL     1       3.828   5.057  18.241  0.00  0.00    +0.000 NA
ENDROOT
BRANCH   1   8
ATOM      8  S   UNL     1       4.928   3.567  16.289  0.00  0.00    +0.000 S 
BRANCH   8   9
ATOM      9  C   UNL     1       6.345   4.513  16.938  0.00  0.00    +0.000 C 
BRANCH   9  11
ATOM     10  O   UNL     1       6.067   6.761  16.110  0.00  0.00    +0.000 OA
ATOM     11  C   UNL     1       6.698   5.713  16.087  0.00  0.00    +0.000 C 
BRANCH  11  12
ATOM     12  O   UNL     1       7.716   5.534  15.214  0.00  0.00    +0.000 OA
ATOM     13  H   UNL     1       8.487   5.088  15.625  0.00  0.00    +0.000 HD
ENDBRANCH  11  12
ENDBRANCH   9  11
ENDBRANCH   8   9
ENDBRANCH   1   8
BRANCH   6  14
ATOM     14  O   UNL     1       2.955   6.413  19.968  0.00  0.00    +0.000 OA
BRANCH  14  15
ATOM     15  C   UNL     1       2.225   7.521  19.596  0.00  0.00    +0.000 A 
ATOM     16  C   UNL     1       2.262   8.074  18.319  0.00  0.00    +0.000 A 
ATOM     17  C   UNL     1       1.500   9.208  18.024  0.00  0.00    +0.000 A 
ATOM     18  C   UNL     1       0.730   9.840  18.984  0.00  0.00    +0.000 A 
ATOM     19  N   UNL     1       0.030  10.933  18.644  0.00  0.00    +0.000 NA
ATOM     20  C   UNL     1      -0.702  11.542  19.600  0.00  0.00    +0.000 A 
ATOM     21  C   UNL     1      -0.770  11.104  20.908  0.00  0.00    +0.000 A 
ATOM     22  C   UNL     1      -0.045   9.970  21.259  0.00  0.00    +0.000 A 
ATOM     23  C   UNL     1       0.726   9.307  20.292  0.00  0.00    +0.000 A 
ATOM     24  C   UNL     1       1.477   8.152  20.591  0.00  0.00    +0.000 A 
ENDBRANCH  14  15
ENDBRANCH   6  14
TORSDOF 6
ENDMDL
MODEL 9
REMARK VINA RESULT:      -7.2      3.255      4.467
REMARK  Name = 
REMARK  6 active torsions:
REMARK  status: ('A' for Active; 'I' for Inactive)
REMARK    1  A    between atoms: C_2  and  O_3
REMARK    2  A    between atoms: C_2  and  C_4
REMARK    3  A    between atoms: C_4  and  S_5
REMARK    4  A    between atoms: S_5  and  C_6
REMARK    5  A    between atoms: C_11  and  O_12
REMARK    6  A    between atoms: O_12  and  C_13
REMARK                            x       y       z     vdW  Elec       q    Type
REMARK                         _______ _______ _______ _____ _____    ______ ____
ROOT
ATOM      1  C   UNL     1       6.441   5.049  16.206  0.00  0.00    +0.000 A 
ATOM      2  N   UNL     1       7.384   5.269  17.125  0.00  0.00    +0.000 NA
ATOM      3  C   UNL     1       6.941   5.453  18.378  0.00  0.00    +0.000 A 
ATOM      4 CL   UNL     1       8.183   5.713  19.533  0.00  0.00    +0.000 Cl
ATOM      5  C   UNL     1       5.626   5.453  18.755  0.00  0.00    +0.000 A 
ATOM      6  C   UNL     1       4.750   5.261  17.720  0.00  0.00    +0.000 A 
ATOM      7  N   UNL     1       5.128   5.031  16.447  0.00  0.00    +0.000 NA
ENDROOT
BRANCH   1   8
ATOM      8  S   UNL     1       7.016   4.773  14.549  0.00  0.00    +0.000 S 
BRANCH   8   9
ATOM      9  C   UNL     1       5.536   4.015  13.802  0.00  0.00    +0.000 C 
BRANCH   9  11
ATOM     10  O   UNL     1       6.905   3.371  11.924  0.00  0.00    +0.000 OA
ATOM     11  C   UNL     1       5.792   3.440  12.427  0.00  0.00    +0.000 C 
BRANCH  11  12
ATOM     12  O   UNL     1       4.690   3.080  11.727  0.00  0.00    +0.000 OA
ATOM     13  H   UNL     1       4.909   2.742  10.833  0.00  0.00    +0.000 HD
ENDBRANCH  11  12
ENDBRANCH   9  11
ENDBRANCH   8   9
ENDBRANCH   1   8
BRANCH   6  14
ATOM     14  O   UNL     1       3.397   5.274  18.039  0.00  0.00    +0.000 OA
BRANCH  14  15
ATOM     15  C   UNL     1       2.826   6.486  18.358  0.00  0.00    +0.000 A 
ATOM     16  C   UNL     1       2.823   7.585  17.503  0.00  0.00    +0.000 A 
ATOM     17  C   UNL     1       2.231   8.785  17.907  0.00  0.00    +0.000 A 
ATOM     18  C   UNL     1       1.678   8.939  19.165  0.00  0.00    +0.000 A 
ATOM     19  N   UNL     1       1.136  10.120  19.500  0.00  0.00    +0.000 NA
ATOM     20  C   UNL     1       0.616  10.252  20.739  0.00  0.00    +0.000 A 
ATOM     21  C   UNL     1       0.611   9.241  21.679  0.00  0.00    +0.000 A 
ATOM     22  C   UNL     1       1.171   8.017  21.329  0.00  0.00    +0.000 A 
ATOM     23  C   UNL     1       1.720   7.840  20.050  0.00  0.00    +0.000 A 
ATOM     24  C   UNL     1       2.297   6.620  19.643  0.00  0.00    +0.000 A 
ENDBRANCH  14  15
ENDBRANCH   6  14
TORSDOF 6
ENDMDL
