MODEL 1
REMARK VINA RESULT:      -6.7      0.000      0.000
REMARK  Name = 
REMARK  4 active torsions:
REMARK  status: ('A' for Active; 'I' for Inactive)
REMARK    1  A    between atoms: C_1  and  S_2
REMARK    2  A    between atoms: S_2  and  C_3
REMARK    3  A    between atoms: C_8  and  N_9
REMARK    4  A    between atoms: C_10  and  C_12
REMARK                            x       y       z     vdW  Elec       q    Type
REMARK                         _______ _______ _______ _____ _____    ______ ____
ROOT
ATOM      1  N   UNL     1       4.734   3.813  17.634  0.00  0.00    +0.000 N 
ATOM      2  C   UNL     1       3.696   4.566  18.155  0.00  0.00    +0.000 C 
ATOM      3  O   UNL     1       3.354   5.677  17.765  0.00  0.00    +0.000 OA
ATOM      4  H   UNL     1       5.020   2.998  18.172  0.00  0.00    +0.000 HD
ENDROOT
BRANCH   1  10
ATOM      5  C   UNL     1       6.757   4.764  16.621  0.00  0.00    +0.000 A 
ATOM      6  C   UNL     1       7.512   5.057  15.471  0.00  0.00    +0.000 A 
ATOM      7  C   UNL     1       7.028   4.744  14.199  0.00  0.00    +0.000 A 
ATOM      8  C   UNL     1       5.792   4.125  14.063  0.00  0.00    +0.000 A 
ATOM      9  C   UNL     1       5.037   3.826  15.197  0.00  0.00    +0.000 A 
ATOM     10  C   UNL     1       5.496   4.144  16.484  0.00  0.00    +0.000 A 
BRANCH   5  12
ATOM     11  C   UNL     1       7.647   7.003  17.965  0.00  0.00    +0.000 C 
ATOM     12  S   UNL     1       7.454   5.215  18.211  0.00  0.00    +0.000 S 
ENDBRANCH   5  12
ENDBRANCH   1  10
BRANCH   2  13
ATOM     13  C   UNL     1       2.972   3.969  19.316  0.00  0.00    +0.000 A 
ATOM     14  C   UNL     1       1.618   4.261  19.472  0.00  0.00    +0.000 A 
ATOM     15  C   UNL     1       0.920   3.651  20.505  0.00  0.00    +0.000 A 
ATOM     16  C   UNL     1       1.593   2.774  21.346  0.00  0.00    +0.000 A 
ATOM     17  C   UNL     1       2.950   2.556  21.128  0.00  0.00    +0.000 A 
ATOM     18  N   UNL     1       3.667   3.134  20.136  0.00  0.00    +0.000 NA
ENDBRANCH   2  13
TORSDOF 3
ENDMDL
MODEL 2
REMARK VINA RESULT:      -6.6      2.259      6.343
REMARK  Name = 
REMARK  4 active torsions:
REMARK  status: ('A' for Active; 'I' for Inactive)
REMARK    1  A    between atoms: C_1  and  S_2
REMARK    2  A    between atoms: S_2  and  C_3
REMARK    3  A    between atoms: C_8  and  N_9
REMARK    4  A    between atoms: C_10  and  C_12
REMARK                            x       y       z     vdW  Elec       q    Type
REMARK                         _______ _______ _______ _____ _____    ______ ____
ROOT
ATOM      1  N   UNL     1       4.758   4.159  16.103  0.00  0.00    +0.000 N 
ATOM      2  C   UNL     1       6.126   4.318  15.961  0.00  0.00    +0.000 C 
ATOM      3  O   UNL     1       6.931   4.423  16.879  0.00  0.00    +0.000 OA
ATOM      4  H   UNL     1       4.197   4.271  15.261  0.00  0.00    +0.000 HD
ENDROOT
BRANCH   1  10
ATOM      5  C   UNL     1       3.657   5.079  18.094  0.00  0.00    +0.000 A 
ATOM      6  C   UNL     1       2.952   4.871  19.293  0.00  0.00    +0.000 A 
ATOM      7  C   UNL     1       2.663   3.579  19.736  0.00  0.00    +0.000 A 
ATOM      8  C   UNL     1       3.064   2.483  18.982  0.00  0.00    +0.000 A 
ATOM      9  C   UNL     1       3.759   2.679  17.789  0.00  0.00    +0.000 A 
ATOM     10  C   UNL     1       4.073   3.967  17.330  0.00  0.00    +0.000 A 
BRANCH   5  12
ATOM     11  C   UNL     1       2.510   7.582  18.271  0.00  0.00    +0.000 C 
ATOM     12  S   UNL     1       3.995   6.774  17.611  0.00  0.00    +0.000 S 
ENDBRANCH   5  12
ENDBRANCH   1  10
BRANCH   2  13
ATOM     13  C   UNL     1       6.633   4.405  14.560  0.00  0.00    +0.000 A 
ATOM     14  C   UNL     1       6.029   3.609  13.588  0.00  0.00    +0.000 A 
ATOM     15  C   UNL     1       6.444   3.737  12.270  0.00  0.00    +0.000 A 
ATOM     16  C   UNL     1       7.445   4.650  11.966  0.00  0.00    +0.000 A 
ATOM     17  C   UNL     1       8.005   5.390  13.003  0.00  0.00    +0.000 A 
ATOM     18  N   UNL     1       7.632   5.291  14.300  0.00  0.00    +0.000 NA
ENDBRANCH   2  13
TORSDOF 3
ENDMDL
MODEL 3
REMARK VINA RESULT:      -6.5      0.704      1.176
REMARK  Name = 
REMARK  4 active torsions:
REMARK  status: ('A' for Active; 'I' for Inactive)
REMARK    1  A    between atoms: C_1  and  S_2
REMARK    2  A    between atoms: S_2  and  C_3
REMARK    3  A    between atoms: C_8  and  N_9
REMARK    4  A    between atoms: C_10  and  C_12
REMARK                            x       y       z     vdW  Elec       q    Type
REMARK                         _______ _______ _______ _____ _____    ______ ____
ROOT
ATOM      1  N   UNL     1       4.668   3.768  17.625  0.00  0.00    +0.000 N 
ATOM      2  C   UNL     1       3.581   4.486  18.091  0.00  0.00    +0.000 C 
ATOM      3  O   UNL     1       3.222   5.585  17.683  0.00  0.00    +0.000 OA
ATOM      4  H   UNL     1       4.954   2.962  18.178  0.00  0.00    +0.000 HD
ENDROOT
BRANCH   1  10
ATOM      5  C   UNL     1       6.701   4.801  16.716  0.00  0.00    +0.000 A 
ATOM      6  C   UNL     1       7.505   5.120  15.607  0.00  0.00    +0.000 A 
ATOM      7  C   UNL     1       7.106   4.778  14.313  0.00  0.00    +0.000 A 
ATOM      8  C   UNL     1       5.907   4.105  14.115  0.00  0.00    +0.000 A 
ATOM      9  C   UNL     1       5.105   3.780  15.208  0.00  0.00    +0.000 A 
ATOM     10  C   UNL     1       5.478   4.125  16.516  0.00  0.00    +0.000 A 
BRANCH   5  12
ATOM     11  C   UNL     1       7.698   7.028  18.003  0.00  0.00    +0.000 C 
ATOM     12  S   UNL     1       7.289   5.292  18.338  0.00  0.00    +0.000 S 
ENDBRANCH   5  12
ENDBRANCH   1  10
BRANCH   2  13
ATOM     13  C   UNL     1       2.818   3.863  19.213  0.00  0.00    +0.000 A 
ATOM     14  C   UNL     1       3.518   3.096  20.143  0.00  0.00    +0.000 A 
ATOM     15  C   UNL     1       2.830   2.575  21.230  0.00  0.00    +0.000 A 
ATOM     16  C   UNL     1       1.471   2.834  21.352  0.00  0.00    +0.000 A 
ATOM     17  C   UNL     1       0.849   3.594  20.366  0.00  0.00    +0.000 A 
ATOM     18  N   UNL     1       1.484   4.115  19.290  0.00  0.00    +0.000 NA
ENDBRANCH   2  13
TORSDOF 3
ENDMDL
MODEL 4
REMARK VINA RESULT:      -6.5      1.985      6.137
REMARK  Name = 
REMARK  4 active torsions:
REMARK  status: ('A' for Active; 'I' for Inactive)
REMARK    1  A    between atoms: C_1  and  S_2
REMARK    2  A    between atoms: S_2  and  C_3
REMARK    3  A    between atoms: C_8  and  N_9
REMARK    4  A    between atoms: C_10  and  C_12
REMARK                            x       y       z     vdW  Elec       q    Type
REMARK                         _______ _______ _______ _____ _____    ______ ____
ROOT
ATOM      1  N   UNL     1       3.831   4.187  17.861  0.00  0.00    +0.000 N 
ATOM      2  C   UNL     1       5.214   4.225  17.872  0.00  0.00    +0.000 C 
ATOM      3  O   UNL     1       5.922   4.177  18.872  0.00  0.00    +0.000 OA
ATOM      4  H   UNL     1       3.376   4.419  16.980  0.00  0.00    +0.000 HD
ENDROOT
BRANCH   1  10
ATOM      5  C   UNL     1       2.371   5.051  19.634  0.00  0.00    +0.000 A 
ATOM      6  C   UNL     1       1.529   4.810  20.734  0.00  0.00    +0.000 A 
ATOM      7  C   UNL     1       1.314   3.510  21.198  0.00  0.00    +0.000 A 
ATOM      8  C   UNL     1       1.928   2.439  20.561  0.00  0.00    +0.000 A 
ATOM      9  C   UNL     1       2.761   2.667  19.466  0.00  0.00    +0.000 A 
ATOM     10  C   UNL     1       3.003   3.965  18.991  0.00  0.00    +0.000 A 
BRANCH   5  12
ATOM     11  C   UNL     1       1.743   7.602  20.477  0.00  0.00    +0.000 C 
ATOM     12  S   UNL     1       2.598   6.755  19.119  0.00  0.00    +0.000 S 
ENDBRANCH   5  12
ENDBRANCH   1  10
BRANCH   2  13
ATOM     13  C   UNL     1       5.876   4.373  16.542  0.00  0.00    +0.000 A 
ATOM     14  C   UNL     1       5.145   4.050  15.400  0.00  0.00    +0.000 A 
ATOM     15  C   UNL     1       5.726   4.256  14.157  0.00  0.00    +0.000 A 
ATOM     16  C   UNL     1       7.014   4.773  14.094  0.00  0.00    +0.000 A 
ATOM     17  C   UNL     1       7.677   5.049  15.285  0.00  0.00    +0.000 A 
ATOM     18  N   UNL     1       7.147   4.858  16.517  0.00  0.00    +0.000 NA
ENDBRANCH   2  13
TORSDOF 3
ENDMDL
MODEL 5
REMARK VINA RESULT:      -6.3      1.273      1.598
REMARK  Name = 
REMARK  4 active torsions:
REMARK  status: ('A' for Active; 'I' for Inactive)
REMARK    1  A    between atoms: C_1  and  S_2
REMARK    2  A    between atoms: S_2  and  C_3
REMARK    3  A    between atoms: C_8  and  N_9
REMARK    4  A    between atoms: C_10  and  C_12
REMARK                            x       y       z     vdW  Elec       q    Type
REMARK                         _______ _______ _______ _____ _____    ______ ____
ROOT
ATOM      1  N   UNL     1       4.252   4.230  17.650  0.00  0.00    +0.000 N 
ATOM      2  C   UNL     1       3.756   3.004  18.057  0.00  0.00    +0.000 C 
ATOM      3  O   UNL     1       3.975   1.928  17.510  0.00  0.00    +0.000 OA
ATOM      4  H   UNL     1       3.842   5.054  18.085  0.00  0.00    +0.000 HD
ENDROOT
BRANCH   1  10
ATOM      5  C   UNL     1       6.482   4.927  16.900  0.00  0.00    +0.000 A 
ATOM      6  C   UNL     1       7.412   5.095  15.859  0.00  0.00    +0.000 A 
ATOM      7  C   UNL     1       7.072   4.784  14.541  0.00  0.00    +0.000 A 
ATOM      8  C   UNL     1       5.806   4.292  14.252  0.00  0.00    +0.000 A 
ATOM      9  C   UNL     1       4.878   4.116  15.278  0.00  0.00    +0.000 A 
ATOM     10  C   UNL     1       5.192   4.435  16.608  0.00  0.00    +0.000 A 
BRANCH   5  12
ATOM     11  C   UNL     1       7.813   6.955  18.217  0.00  0.00    +0.000 C 
ATOM     12  S   UNL     1       7.004   5.366  18.560  0.00  0.00    +0.000 S 
ENDBRANCH   5  12
ENDBRANCH   1  10
BRANCH   2  13
ATOM     13  C   UNL     1       2.850   3.024  19.243  0.00  0.00    +0.000 A 
ATOM     14  C   UNL     1       3.356   2.592  20.468  0.00  0.00    +0.000 A 
ATOM     15  C   UNL     1       2.544   2.678  21.591  0.00  0.00    +0.000 A 
ATOM     16  C   UNL     1       1.260   3.188  21.454  0.00  0.00    +0.000 A 
ATOM     17  C   UNL     1       0.831   3.578  20.190  0.00  0.00    +0.000 A 
ATOM     18  N   UNL     1       1.590   3.506  19.070  0.00  0.00    +0.000 NA
ENDBRANCH   2  13
TORSDOF 3
ENDMDL
MODEL 6
REMARK VINA RESULT:      -6.3      2.342      6.455
REMARK  Name = 
REMARK  4 active torsions:
REMARK  status: ('A' for Active; 'I' for Inactive)
REMARK    1  A    between atoms: C_1  and  S_2
REMARK    2  A    between atoms: S_2  and  C_3
REMARK    3  A    between atoms: C_8  and  N_9
REMARK    4  A    between atoms: C_10  and  C_12
REMARK                            x       y       z     vdW  Elec       q    Type
REMARK                         _______ _______ _______ _____ _____    ______ ____
ROOT
ATOM      1  N   UNL     1       4.501   5.256  16.254  0.00  0.00    +0.000 N 
ATOM      2  C   UNL     1       5.877   5.275  16.113  0.00  0.00    +0.000 C 
ATOM      3  O   UNL     1       6.679   5.613  16.977  0.00  0.00    +0.000 OA
ATOM      4  H   UNL     1       3.957   5.131  15.402  0.00  0.00    +0.000 HD
ENDROOT
BRANCH   1  10
ATOM      5  C   UNL     1       3.388   4.435  18.281  0.00  0.00    +0.000 A 
ATOM      6  C   UNL     1       2.713   4.704  19.485  0.00  0.00    +0.000 A 
ATOM      7  C   UNL     1       2.434   6.017  19.870  0.00  0.00    +0.000 A 
ATOM      8  C   UNL     1       2.838   7.074  19.064  0.00  0.00    +0.000 A 
ATOM      9  C   UNL     1       3.513   6.818  17.871  0.00  0.00    +0.000 A 
ATOM     10  C   UNL     1       3.791   5.507  17.457  0.00  0.00    +0.000 A 
BRANCH   5  12
ATOM     11  C   UNL     1       2.493   1.917  18.969  0.00  0.00    +0.000 C 
ATOM     12  S   UNL     1       3.689   2.716  17.862  0.00  0.00    +0.000 S 
ENDBRANCH   5  12
ENDBRANCH   1  10
BRANCH   2  13
ATOM     13  C   UNL     1       6.403   4.881  14.772  0.00  0.00    +0.000 A 
ATOM     14  C   UNL     1       5.683   3.948  14.028  0.00  0.00    +0.000 A 
ATOM     15  C   UNL     1       6.125   3.632  12.751  0.00  0.00    +0.000 A 
ATOM     16  C   UNL     1       7.267   4.252  12.261  0.00  0.00    +0.000 A 
ATOM     17  C   UNL     1       7.934   5.157  13.081  0.00  0.00    +0.000 A 
ATOM     18  N   UNL     1       7.539   5.488  14.333  0.00  0.00    +0.000 NA
ENDBRANCH   2  13
TORSDOF 3
ENDMDL
MODEL 7
REMARK VINA RESULT:      -6.1      1.935      6.216
REMARK  Name = 
REMARK  4 active torsions:
REMARK  status: ('A' for Active; 'I' for Inactive)
REMARK    1  A    between atoms: C_1  and  S_2
REMARK    2  A    between atoms: S_2  and  C_3
REMARK    3  A    between atoms: C_8  and  N_9
REMARK    4  A    between atoms: C_10  and  C_12
REMARK                            x       y       z     vdW  Elec       q    Type
REMARK                         _______ _______ _______ _____ _____    ______ ____
ROOT
ATOM      1  N   UNL     1       3.657   4.215  17.724  0.00  0.00    +0.000 N 
ATOM      2  C   UNL     1       5.040   4.193  17.724  0.00  0.00    +0.000 C 
ATOM      3  O   UNL     1       5.752   4.037  18.710  0.00  0.00    +0.000 OA
ATOM      4  H   UNL     1       3.206   4.534  16.868  0.00  0.00    +0.000 HD
ENDROOT
BRANCH   1  10
ATOM      5  C   UNL     1       2.262   4.999  19.585  0.00  0.00    +0.000 A 
ATOM      6  C   UNL     1       1.418   4.709  20.671  0.00  0.00    +0.000 A 
ATOM      7  C   UNL     1       1.136   3.388  21.023  0.00  0.00    +0.000 A 
ATOM      8  C   UNL     1       1.684   2.344  20.288  0.00  0.00    +0.000 A 
ATOM      9  C   UNL     1       2.518   2.621  19.206  0.00  0.00    +0.000 A 
ATOM     10  C   UNL     1       2.827   3.941  18.842  0.00  0.00    +0.000 A 
BRANCH   5  12
ATOM     11  C   UNL     1       1.672   7.503  20.583  0.00  0.00    +0.000 C 
ATOM     12  S   UNL     1       2.579   6.727  19.216  0.00  0.00    +0.000 S 
ENDBRANCH   5  12
ENDBRANCH   1  10
BRANCH   2  13
ATOM     13  C   UNL     1       5.699   4.417  16.403  0.00  0.00    +0.000 A 
ATOM     14  C   UNL     1       6.977   4.973  16.387  0.00  0.00    +0.000 A 
ATOM     15  C   UNL     1       7.626   5.116  15.169  0.00  0.00    +0.000 A 
ATOM     16  C   UNL     1       6.981   4.702  14.011  0.00  0.00    +0.000 A 
ATOM     17  C   UNL     1       5.698   4.174  14.118  0.00  0.00    +0.000 A 
ATOM     18  N   UNL     1       5.030   4.023  15.286  0.00  0.00    +0.000 NA
ENDBRANCH   2  13
TORSDOF 3
ENDMDL
MODEL 8
REMARK VINA RESULT:      -6.1      1.792      3.147
REMARK  Name = 
REMARK  4 active torsions:
REMARK  status: ('A' for Active; 'I' for Inactive)
REMARK    1  A    between atoms: C_1  and  S_2
REMARK    2  A    between atoms: S_2  and  C_3
REMARK    3  A    between atoms: C_8  and  N_9
REMARK    4  A    between atoms: C_10  and  C_12
REMARK                            x       y       z     vdW  Elec       q    Type
REMARK                         _______ _______ _______ _____ _____    ______ ____
ROOT
ATOM      1  N   UNL     1       5.008   4.694  18.588  0.00  0.00    +0.000 N 
ATOM      2  C   UNL     1       3.817   4.979  19.232  0.00  0.00    +0.000 C 
ATOM      3  O   UNL     1       3.582   5.991  19.883  0.00  0.00    +0.000 OA
ATOM      4  H   UNL     1       5.123   3.743  18.243  0.00  0.00    +0.000 HD
ENDROOT
BRANCH   1  10
ATOM      5  C   UNL     1       6.193   6.479  17.391  0.00  0.00    +0.000 A 
ATOM      6  C   UNL     1       7.281   7.366  17.308  0.00  0.00    +0.000 A 
ATOM      7  C   UNL     1       8.284   7.359  18.280  0.00  0.00    +0.000 A 
ATOM      8  C   UNL     1       8.204   6.475  19.349  0.00  0.00    +0.000 A 
ATOM      9  C   UNL     1       7.127   5.595  19.443  0.00  0.00    +0.000 A 
ATOM     10  C   UNL     1       6.115   5.575  18.472  0.00  0.00    +0.000 A 
BRANCH   5  12
ATOM     11  C   UNL     1       5.575   5.227  15.012  0.00  0.00    +0.000 C 
ATOM     12  S   UNL     1       4.960   6.551  16.089  0.00  0.00    +0.000 S 
ENDBRANCH   5  12
ENDBRANCH   1  10
BRANCH   2  13
ATOM     13  C   UNL     1       2.756   3.933  19.139  0.00  0.00    +0.000 A 
ATOM     14  C   UNL     1       1.639   4.050  19.964  0.00  0.00    +0.000 A 
ATOM     15  C   UNL     1       0.614   3.124  19.833  0.00  0.00    +0.000 A 
ATOM     16  C   UNL     1       0.738   2.114  18.887  0.00  0.00    +0.000 A 
ATOM     17  C   UNL     1       1.896   2.062  18.119  0.00  0.00    +0.000 A 
ATOM     18  N   UNL     1       2.920   2.943  18.221  0.00  0.00    +0.000 NA
ENDBRANCH   2  13
TORSDOF 3
ENDMDL
MODEL 9
REMARK VINA RESULT:      -6.0      1.828      6.119
REMARK  Name = 
REMARK  4 active torsions:
REMARK  status: ('A' for Active; 'I' for Inactive)
REMARK    1  A    between atoms: C_1  and  S_2
REMARK    2  A    between atoms: S_2  and  C_3
REMARK    3  A    between atoms: C_8  and  N_9
REMARK    4  A    between atoms: C_10  and  C_12
REMARK                            x       y       z     vdW  Elec       q    Type
REMARK                         _______ _______ _______ _____ _____    ______ ____
ROOT
ATOM      1  N   UNL     1       4.572   4.026  18.485  0.00  0.00    +0.000 N 
ATOM      2  C   UNL     1       4.285   3.777  17.155  0.00  0.00    +0.000 C 
ATOM      3  O   UNL     1       3.246   3.287  16.728  0.00  0.00    +0.000 OA
ATOM      4  H   UNL     1       5.537   4.262  18.707  0.00  0.00    +0.000 HD
ENDROOT
BRANCH   1  10
ATOM      5  C   UNL     1       2.773   4.910  19.902  0.00  0.00    +0.000 A 
ATOM      6  C   UNL     1       1.863   4.727  20.958  0.00  0.00    +0.000 A 
ATOM      7  C   UNL     1       1.836   3.531  21.679  0.00  0.00    +0.000 A 
ATOM      8  C   UNL     1       2.709   2.503  21.345  0.00  0.00    +0.000 A 
ATOM      9  C   UNL     1       3.612   2.673  20.296  0.00  0.00    +0.000 A 
ATOM     10  C   UNL     1       3.667   3.870  19.567  0.00  0.00    +0.000 A 
BRANCH   5  12
ATOM     11  C   UNL     1       1.916   7.503  20.297  0.00  0.00    +0.000 C 
ATOM     12  S   UNL     1       2.744   6.485  19.043  0.00  0.00    +0.000 S 
ENDBRANCH   5  12
ENDBRANCH   1  10
BRANCH   2  13
ATOM     13  C   UNL     1       5.366   4.108  16.179  0.00  0.00    +0.000 A 
ATOM     14  C   UNL     1       5.129   3.873  14.826  0.00  0.00    +0.000 A 
ATOM     15  C   UNL     1       6.099   4.246  13.906  0.00  0.00    +0.000 A 
ATOM     16  C   UNL     1       7.268   4.839  14.364  0.00  0.00    +0.000 A 
ATOM     17  C   UNL     1       7.428   5.019  15.734  0.00  0.00    +0.000 A 
ATOM     18  N   UNL     1       6.509   4.664  16.663  0.00  0.00    +0.000 NA
ENDBRANCH   2  13
TORSDOF 3
ENDMDL
