MODEL 1
REMARK VINA RESULT:      -8.6      0.000      0.000
REMARK  Name = 
REMARK  3 active torsions:
REMARK  status: ('A' for Active; 'I' for Inactive)
REMARK    1  A    between atoms: C_2  and  N_3
REMARK    2  A    between atoms: C_2  and  C_20
REMARK    3  A    between atoms: N_12  and  C_13
REMARK                            x       y       z     vdW  Elec       q    Type
REMARK                         _______ _______ _______ _____ _____    ______ ____
ROOT
ATOM      1  N   UNL     1       4.721   6.065  19.292  0.00  0.00    +0.000 NA
ATOM      2  C   UNL     1       3.621   5.376  19.269  0.00  0.00    +0.000 C 
ATOM      3  C   UNL     1       3.419   3.901  19.150  0.00  0.00    +0.000 A 
ATOM      4  C   UNL     1       4.288   2.821  19.149  0.00  0.00    +0.000 A 
ATOM      5  C   UNL     1       3.760   1.530  19.030  0.00  0.00    +0.000 A 
ATOM      6  C   UNL     1       2.377   1.324  18.947  0.00  0.00    +0.000 A 
ATOM      7  C   UNL     1       1.501   2.406  19.002  0.00  0.00    +0.000 A 
ATOM      8  C   UNL     1       2.035   3.685  19.115  0.00  0.00    +0.000 A 
ATOM      9  C   UNL     1       1.273   4.965  19.259  0.00  0.00    +0.000 C 
ATOM     10  N   UNL     1       2.349   5.952  19.391  0.00  0.00    +0.000 N 
ENDROOT
BRANCH  10  11
ATOM     11  C   UNL     1       2.015   7.319  19.392  0.00  0.00    +0.000 A 
ATOM     12  C   UNL     1       2.137   8.101  18.225  0.00  0.00    +0.000 A 
ATOM     13  C   UNL     1       1.763   9.451  18.202  0.00  0.00    +0.000 A 
ATOM     14  C   UNL     1       1.269  10.044  19.352  0.00  0.00    +0.000 A 
ATOM     15  F   UNL     1       0.902  11.331  19.329  0.00  0.00    +0.000 F 
ATOM     16  C   UNL     1       1.153   9.318  20.525  0.00  0.00    +0.000 A 
ATOM     17  C   UNL     1       1.527   7.970  20.540  0.00  0.00    +0.000 A 
ENDBRANCH  10  11
BRANCH   1  19
ATOM     18  O   UNL     1       6.782   5.178  19.810  0.00  0.00    +0.000 OA
ATOM     19  C   UNL     1       5.955   5.569  18.994  0.00  0.00    +0.000 C 
BRANCH  19  20
ATOM     20  C   UNL     1       6.224   5.324  17.553  0.00  0.00    +0.000 A 
ATOM     21  C   UNL     1       5.324   5.782  16.584  0.00  0.00    +0.000 A 
ATOM     22  C   UNL     1       5.625   5.626  15.233  0.00  0.00    +0.000 A 
ATOM     23  C   UNL     1       6.819   5.006  14.902  0.00  0.00    +0.000 A 
ATOM     24 CL   UNL     1       7.280   4.812  13.263  0.00  0.00    +0.000 Cl
ATOM     25  N   UNL     1       7.703   4.529  15.803  0.00  0.00    +0.000 NA
ATOM     26  C   UNL     1       7.386   4.701  17.113  0.00  0.00    +0.000 A 
ENDBRANCH  19  20
ENDBRANCH   1  19
TORSDOF 3
ENDMDL
MODEL 2
REMARK VINA RESULT:      -8.1      0.583      1.329
REMARK  Name = 
REMARK  3 active torsions:
REMARK  status: ('A' for Active; 'I' for Inactive)
REMARK    1  A    between atoms: C_2  and  N_3
REMARK    2  A    between atoms: C_2  and  C_20
REMARK    3  A    between atoms: N_12  and  C_13
REMARK                            x       y       z     vdW  Elec       q    Type
REMARK                         _______ _______ _______ _____ _____    ______ ____
ROOT
ATOM      1  N   UNL     1       4.726   6.204  19.271  0.00  0.00    +0.000 NA
ATOM      2  C   UNL     1       3.649   5.479  19.254  0.00  0.00    +0.000 C 
ATOM      3  C   UNL     1       3.495   3.996  19.151  0.00  0.00    +0.000 A 
ATOM      4  C   UNL     1       4.399   2.946  19.166  0.00  0.00    +0.000 A 
ATOM      5  C   UNL     1       3.915   1.637  19.061  0.00  0.00    +0.000 A 
ATOM      6  C   UNL     1       2.539   1.385  18.976  0.00  0.00    +0.000 A 
ATOM      7  C   UNL     1       1.628   2.438  19.015  0.00  0.00    +0.000 A 
ATOM      8  C   UNL     1       2.119   3.735  19.115  0.00  0.00    +0.000 A 
ATOM      9  C   UNL     1       1.315   4.992  19.241  0.00  0.00    +0.000 C 
ATOM     10  N   UNL     1       2.358   6.015  19.364  0.00  0.00    +0.000 N 
ENDROOT
BRANCH  10  11
ATOM     11  C   UNL     1       1.979   7.370  19.347  0.00  0.00    +0.000 A 
ATOM     12  C   UNL     1       1.497   8.008  20.508  0.00  0.00    +0.000 A 
ATOM     13  C   UNL     1       1.160   9.367  20.514  0.00  0.00    +0.000 A 
ATOM     14  C   UNL     1       1.292  10.110  19.353  0.00  0.00    +0.000 A 
ATOM     15  F   UNL     1       0.980  11.412  19.360  0.00  0.00    +0.000 F 
ATOM     16  C   UNL     1       1.741   9.518  18.185  0.00  0.00    +0.000 A 
ATOM     17  C   UNL     1       2.077   8.160  18.187  0.00  0.00    +0.000 A 
ENDBRANCH  10  11
BRANCH   1  19
ATOM     18  O   UNL     1       6.808   5.380  19.806  0.00  0.00    +0.000 OA
ATOM     19  C   UNL     1       5.976   5.745  18.983  0.00  0.00    +0.000 C 
BRANCH  19  20
ATOM     20  C   UNL     1       6.264   5.507  17.545  0.00  0.00    +0.000 A 
ATOM     21  C   UNL     1       7.118   4.467  17.164  0.00  0.00    +0.000 A 
ATOM     22  C   UNL     1       7.315   4.195  15.811  0.00  0.00    +0.000 A 
ATOM     23  C   UNL     1       6.650   4.985  14.888  0.00  0.00    +0.000 A 
ATOM     24 CL   UNL     1       6.807   4.688  13.207  0.00  0.00    +0.000 Cl
ATOM     25  N   UNL     1       5.836   6.011  15.211  0.00  0.00    +0.000 NA
ATOM     26  C   UNL     1       5.658   6.249  16.537  0.00  0.00    +0.000 A 
ENDBRANCH  19  20
ENDBRANCH   1  19
TORSDOF 3
ENDMDL
MODEL 3
REMARK VINA RESULT:      -7.8      1.138      1.470
REMARK  Name = 
REMARK  3 active torsions:
REMARK  status: ('A' for Active; 'I' for Inactive)
REMARK    1  A    between atoms: C_2  and  N_3
REMARK    2  A    between atoms: C_2  and  C_20
REMARK    3  A    between atoms: N_12  and  C_13
REMARK                            x       y       z     vdW  Elec       q    Type
REMARK                         _______ _______ _______ _____ _____    ______ ____
ROOT
ATOM      1  N   UNL     1       4.636   6.199  19.320  0.00  0.00    +0.000 NA
ATOM      2  C   UNL     1       3.533   5.652  19.732  0.00  0.00    +0.000 C 
ATOM      3  C   UNL     1       3.273   4.257  20.201  0.00  0.00    +0.000 A 
ATOM      4  C   UNL     1       4.098   3.174  20.457  0.00  0.00    +0.000 A 
ATOM      5  C   UNL     1       3.524   1.980  20.911  0.00  0.00    +0.000 A 
ATOM      6  C   UNL     1       2.144   1.887  21.136  0.00  0.00    +0.000 A 
ATOM      7  C   UNL     1       1.322   2.993  20.928  0.00  0.00    +0.000 A 
ATOM      8  C   UNL     1       1.901   4.172  20.473  0.00  0.00    +0.000 A 
ATOM      9  C   UNL     1       1.213   5.484  20.255  0.00  0.00    +0.000 C 
ATOM     10  N   UNL     1       2.321   6.348  19.837  0.00  0.00    +0.000 N 
ENDROOT
BRANCH  10  11
ATOM     11  C   UNL     1       2.028   7.649  19.387  0.00  0.00    +0.000 A 
ATOM     12  C   UNL     1       1.401   8.589  20.230  0.00  0.00    +0.000 A 
ATOM     13  C   UNL     1       1.146   9.900  19.807  0.00  0.00    +0.000 A 
ATOM     14  C   UNL     1       1.508  10.290  18.529  0.00  0.00    +0.000 A 
ATOM     15  F   UNL     1       1.274  11.546  18.127  0.00  0.00    +0.000 F 
ATOM     16  C   UNL     1       2.106   9.392  17.661  0.00  0.00    +0.000 A 
ATOM     17  C   UNL     1       2.358   8.085  18.091  0.00  0.00    +0.000 A 
ENDBRANCH  10  11
BRANCH   1  19
ATOM     18  O   UNL     1       6.580   5.088  19.853  0.00  0.00    +0.000 OA
ATOM     19  C   UNL     1       5.780   5.517  19.030  0.00  0.00    +0.000 C 
BRANCH  19  20
ATOM     20  C   UNL     1       5.954   5.119  17.609  0.00  0.00    +0.000 A 
ATOM     21  C   UNL     1       5.023   4.272  16.999  0.00  0.00    +0.000 A 
ATOM     22  C   UNL     1       5.144   3.973  15.644  0.00  0.00    +0.000 A 
ATOM     23  C   UNL     1       6.206   4.530  14.950  0.00  0.00    +0.000 A 
ATOM     24 CL   UNL     1       6.403   4.243  13.272  0.00  0.00    +0.000 Cl
ATOM     25  N   UNL     1       7.139   5.332  15.504  0.00  0.00    +0.000 NA
ATOM     26  C   UNL     1       6.992   5.611  16.825  0.00  0.00    +0.000 A 
ENDBRANCH  19  20
ENDBRANCH   1  19
TORSDOF 3
ENDMDL
MODEL 4
REMARK VINA RESULT:      -7.6      3.681      6.442
REMARK  Name = 
REMARK  3 active torsions:
REMARK  status: ('A' for Active; 'I' for Inactive)
REMARK    1  A    between atoms: C_2  and  N_3
REMARK    2  A    between atoms: C_2  and  C_20
REMARK    3  A    between atoms: N_12  and  C_13
REMARK                            x       y       z     vdW  Elec       q    Type
REMARK                         _______ _______ _______ _____ _____    ______ ____
ROOT
ATOM      1  N   UNL     1       3.150   6.349  18.438  0.00  0.00    +0.000 NA
ATOM      2  C   UNL     1       3.766   5.349  17.884  0.00  0.00    +0.000 C 
ATOM      3  C   UNL     1       4.639   5.317  16.672  0.00  0.00    +0.000 A 
ATOM      4  C   UNL     1       5.158   6.304  15.850  0.00  0.00    +0.000 A 
ATOM      5  C   UNL     1       5.975   5.929  14.777  0.00  0.00    +0.000 A 
ATOM      6  C   UNL     1       6.293   4.583  14.552  0.00  0.00    +0.000 A 
ATOM      7  C   UNL     1       5.814   3.595  15.410  0.00  0.00    +0.000 A 
ATOM      8  C   UNL     1       5.000   3.978  16.471  0.00  0.00    +0.000 A 
ATOM      9  C   UNL     1       4.443   3.089  17.540  0.00  0.00    +0.000 C 
ATOM     10  N   UNL     1       3.728   4.044  18.393  0.00  0.00    +0.000 N 
ENDROOT
BRANCH  10  11
ATOM     11  C   UNL     1       2.930   3.546  19.440  0.00  0.00    +0.000 A 
ATOM     12  C   UNL     1       3.506   2.889  20.547  0.00  0.00    +0.000 A 
ATOM     13  C   UNL     1       2.727   2.431  21.616  0.00  0.00    +0.000 A 
ATOM     14  C   UNL     1       1.354   2.614  21.591  0.00  0.00    +0.000 A 
ATOM     15  F   UNL     1       0.609   2.185  22.618  0.00  0.00    +0.000 F 
ATOM     16  C   UNL     1       0.746   3.235  20.514  0.00  0.00    +0.000 A 
ATOM     17  C   UNL     1       1.531   3.691  19.450  0.00  0.00    +0.000 A 
ENDBRANCH  10  11
BRANCH   1  19
ATOM     18  O   UNL     1       3.448   7.922  16.784  0.00  0.00    +0.000 OA
ATOM     19  C   UNL     1       3.012   7.584  17.878  0.00  0.00    +0.000 C 
BRANCH  19  20
ATOM     20  C   UNL     1       2.104   8.519  18.591  0.00  0.00    +0.000 A 
ATOM     21  C   UNL     1       1.577   9.630  17.922  0.00  0.00    +0.000 A 
ATOM     22  C   UNL     1       0.658  10.454  18.569  0.00  0.00    +0.000 A 
ATOM     23  C   UNL     1       0.307  10.136  19.870  0.00  0.00    +0.000 A 
ATOM     24 CL   UNL     1      -0.847  11.077  20.720  0.00  0.00    +0.000 Cl
ATOM     25  N   UNL     1       0.807   9.090  20.559  0.00  0.00    +0.000 NA
ATOM     26  C   UNL     1       1.696   8.300  19.902  0.00  0.00    +0.000 A 
ENDBRANCH  19  20
ENDBRANCH   1  19
TORSDOF 3
ENDMDL
MODEL 5
REMARK VINA RESULT:      -7.6      3.539      6.047
REMARK  Name = 
REMARK  3 active torsions:
REMARK  status: ('A' for Active; 'I' for Inactive)
REMARK    1  A    between atoms: C_2  and  N_3
REMARK    2  A    between atoms: C_2  and  C_20
REMARK    3  A    between atoms: N_12  and  C_13
REMARK                            x       y       z     vdW  Elec       q    Type
REMARK                         _______ _______ _______ _____ _____    ______ ____
ROOT
ATOM      1  N   UNL     1       3.070   6.625  19.365  0.00  0.00    +0.000 NA
ATOM      2  C   UNL     1       3.358   5.447  18.903  0.00  0.00    +0.000 C 
ATOM      3  C   UNL     1       2.538   4.198  18.886  0.00  0.00    +0.000 A 
ATOM      4  C   UNL     1       1.223   3.923  19.226  0.00  0.00    +0.000 A 
ATOM      5  C   UNL     1       0.746   2.615  19.076  0.00  0.00    +0.000 A 
ATOM      6  C   UNL     1       1.570   1.605  18.562  0.00  0.00    +0.000 A 
ATOM      7  C   UNL     1       2.876   1.894  18.172  0.00  0.00    +0.000 A 
ATOM      8  C   UNL     1       3.341   3.195  18.328  0.00  0.00    +0.000 A 
ATOM      9  C   UNL     1       4.677   3.726  17.911  0.00  0.00    +0.000 C 
ATOM     10  N   UNL     1       4.573   5.144  18.271  0.00  0.00    +0.000 N 
ENDROOT
BRANCH  10  11
ATOM     11  C   UNL     1       5.719   5.953  18.166  0.00  0.00    +0.000 A 
ATOM     12  C   UNL     1       5.764   7.044  17.275  0.00  0.00    +0.000 A 
ATOM     13  C   UNL     1       6.882   7.883  17.196  0.00  0.00    +0.000 A 
ATOM     14  C   UNL     1       7.981   7.637  18.002  0.00  0.00    +0.000 A 
ATOM     15  F   UNL     1       9.047   8.445  17.934  0.00  0.00    +0.000 F 
ATOM     16  C   UNL     1       7.988   6.563  18.875  0.00  0.00    +0.000 A 
ATOM     17  C   UNL     1       6.866   5.730  18.950  0.00  0.00    +0.000 A 
ENDBRANCH  10  11
BRANCH   1  19
ATOM     18  O   UNL     1       1.579   6.228  21.074  0.00  0.00    +0.000 OA
ATOM     19  C   UNL     1       1.988   6.911  20.142  0.00  0.00    +0.000 C 
BRANCH  19  20
ATOM     20  C   UNL     1       1.382   8.253  19.939  0.00  0.00    +0.000 A 
ATOM     21  C   UNL     1       1.553   8.922  18.722  0.00  0.00    +0.000 A 
ATOM     22  C   UNL     1       0.910  10.140  18.507  0.00  0.00    +0.000 A 
ATOM     23  C   UNL     1       0.123  10.647  19.528  0.00  0.00    +0.000 A 
ATOM     24 CL   UNL     1      -0.732  12.118  19.326  0.00  0.00    +0.000 Cl
ATOM     25  N   UNL     1      -0.050  10.047  20.724  0.00  0.00    +0.000 NA
ATOM     26  C   UNL     1       0.583   8.858  20.903  0.00  0.00    +0.000 A 
ENDBRANCH  19  20
ENDBRANCH   1  19
TORSDOF 3
ENDMDL
MODEL 6
REMARK VINA RESULT:      -7.5      5.701      8.735
REMARK  Name = 
REMARK  3 active torsions:
REMARK  status: ('A' for Active; 'I' for Inactive)
REMARK    1  A    between atoms: C_2  and  N_3
REMARK    2  A    between atoms: C_2  and  C_20
REMARK    3  A    between atoms: N_12  and  C_13
REMARK                            x       y       z     vdW  Elec       q    Type
REMARK                         _______ _______ _______ _____ _____    ______ ____
ROOT
ATOM      1  N   UNL     1      -0.821  11.943  19.936  0.00  0.00    +0.000 NA
ATOM      2  C   UNL     1      -2.032  11.931  19.467  0.00  0.00    +0.000 C 
ATOM      3  C   UNL     1      -2.540  11.456  18.145  0.00  0.00    +0.000 A 
ATOM      4  C   UNL     1      -1.946  10.793  17.083  0.00  0.00    +0.000 A 
ATOM      5  C   UNL     1      -2.727  10.473  15.965  0.00  0.00    +0.000 A 
ATOM      6  C   UNL     1      -4.093  10.786  15.929  0.00  0.00    +0.000 A 
ATOM      7  C   UNL     1      -4.700  11.405  17.019  0.00  0.00    +0.000 A 
ATOM      8  C   UNL     1      -3.916  11.723  18.122  0.00  0.00    +0.000 A 
ATOM      9  C   UNL     1      -4.383  12.321  19.413  0.00  0.00    +0.000 C 
ATOM     10  N   UNL     1      -3.145  12.370  20.197  0.00  0.00    +0.000 N 
ENDROOT
BRANCH  10  11
ATOM     11  C   UNL     1      -3.159  13.030  21.440  0.00  0.00    +0.000 A 
ATOM     12  C   UNL     1      -3.164  14.437  21.519  0.00  0.00    +0.000 A 
ATOM     13  C   UNL     1      -3.225  15.104  22.750  0.00  0.00    +0.000 A 
ATOM     14  C   UNL     1      -3.273  14.371  23.924  0.00  0.00    +0.000 A 
ATOM     15  F   UNL     1      -3.342  15.006  25.100  0.00  0.00    +0.000 F 
ATOM     16  C   UNL     1      -3.248  12.987  23.892  0.00  0.00    +0.000 A 
ATOM     17  C   UNL     1      -3.189  12.328  22.659  0.00  0.00    +0.000 A 
ENDBRANCH  10  11
BRANCH   1  19
ATOM     18  O   UNL     1       0.962  12.546  18.611  0.00  0.00    +0.000 OA
ATOM     19  C   UNL     1       0.300  11.700  19.201  0.00  0.00    +0.000 C 
BRANCH  19  20
ATOM     20  C   UNL     1       0.843  10.319  19.286  0.00  0.00    +0.000 A 
ATOM     21  C   UNL     1       1.449   9.735  18.168  0.00  0.00    +0.000 A 
ATOM     22  C   UNL     1       2.033   8.475  18.279  0.00  0.00    +0.000 A 
ATOM     23  C   UNL     1       1.980   7.842  19.511  0.00  0.00    +0.000 A 
ATOM     24 CL   UNL     1       2.711   6.309  19.739  0.00  0.00    +0.000 Cl
ATOM     25  N   UNL     1       1.387   8.359  20.606  0.00  0.00    +0.000 NA
ATOM     26  C   UNL     1       0.831   9.591  20.470  0.00  0.00    +0.000 A 
ENDBRANCH  19  20
ENDBRANCH   1  19
TORSDOF 3
ENDMDL
MODEL 7
REMARK VINA RESULT:      -7.5      5.447      8.487
REMARK  Name = 
REMARK  3 active torsions:
REMARK  status: ('A' for Active; 'I' for Inactive)
REMARK    1  A    between atoms: C_2  and  N_3
REMARK    2  A    between atoms: C_2  and  C_20
REMARK    3  A    between atoms: N_12  and  C_13
REMARK                            x       y       z     vdW  Elec       q    Type
REMARK                         _______ _______ _______ _____ _____    ______ ____
ROOT
ATOM      1  N   UNL     1      -0.555  11.753  19.797  0.00  0.00    +0.000 NA
ATOM      2  C   UNL     1      -1.778  11.782  19.360  0.00  0.00    +0.000 C 
ATOM      3  C   UNL     1      -2.340  11.310  18.059  0.00  0.00    +0.000 A 
ATOM      4  C   UNL     1      -1.802  10.608  16.992  0.00  0.00    +0.000 A 
ATOM      5  C   UNL     1      -2.625  10.303  15.901  0.00  0.00    +0.000 A 
ATOM      6  C   UNL     1      -3.977  10.670  15.896  0.00  0.00    +0.000 A 
ATOM      7  C   UNL     1      -4.530  11.330  16.992  0.00  0.00    +0.000 A 
ATOM      8  C   UNL     1      -3.704  11.631  18.069  0.00  0.00    +0.000 A 
ATOM      9  C   UNL     1      -4.112  12.267  19.362  0.00  0.00    +0.000 C 
ATOM     10  N   UNL     1      -2.852  12.277  20.112  0.00  0.00    +0.000 N 
ENDROOT
BRANCH  10  11
ATOM     11  C   UNL     1      -2.807  12.955  21.345  0.00  0.00    +0.000 A 
ATOM     12  C   UNL     1      -3.087  12.288  22.555  0.00  0.00    +0.000 A 
ATOM     13  C   UNL     1      -3.000  12.941  23.791  0.00  0.00    +0.000 A 
ATOM     14  C   UNL     1      -2.639  14.278  23.835  0.00  0.00    +0.000 A 
ATOM     15  F   UNL     1      -2.546  14.901  25.017  0.00  0.00    +0.000 F 
ATOM     16  C   UNL     1      -2.377  14.976  22.669  0.00  0.00    +0.000 A 
ATOM     17  C   UNL     1      -2.465  14.316  21.438  0.00  0.00    +0.000 A 
ENDBRANCH  10  11
BRANCH   1  19
ATOM     18  O   UNL     1       1.200  12.260  18.397  0.00  0.00    +0.000 OA
ATOM     19  C   UNL     1       0.535  11.454  19.036  0.00  0.00    +0.000 C 
BRANCH  19  20
ATOM     20  C   UNL     1       1.044  10.062  19.153  0.00  0.00    +0.000 A 
ATOM     21  C   UNL     1       1.663   9.449  18.059  0.00  0.00    +0.000 A 
ATOM     22  C   UNL     1       2.216   8.177  18.201  0.00  0.00    +0.000 A 
ATOM     23  C   UNL     1       2.118   7.563  19.439  0.00  0.00    +0.000 A 
ATOM     24 CL   UNL     1       2.807   6.017  19.706  0.00  0.00    +0.000 Cl
ATOM     25  N   UNL     1       1.510   8.109  20.513  0.00  0.00    +0.000 NA
ATOM     26  C   UNL     1       0.986   9.351  20.347  0.00  0.00    +0.000 A 
ENDBRANCH  19  20
ENDBRANCH   1  19
TORSDOF 3
ENDMDL
MODEL 8
REMARK VINA RESULT:      -7.4      2.849      4.799
REMARK  Name = 
REMARK  3 active torsions:
REMARK  status: ('A' for Active; 'I' for Inactive)
REMARK    1  A    between atoms: C_2  and  N_3
REMARK    2  A    between atoms: C_2  and  C_20
REMARK    3  A    between atoms: N_12  and  C_13
REMARK                            x       y       z     vdW  Elec       q    Type
REMARK                         _______ _______ _______ _____ _____    ______ ____
ROOT
ATOM      1  N   UNL     1       2.307   4.579  18.026  0.00  0.00    +0.000 NA
ATOM      2  C   UNL     1       3.295   5.319  17.621  0.00  0.00    +0.000 C 
ATOM      3  C   UNL     1       4.511   4.946  16.838  0.00  0.00    +0.000 A 
ATOM      4  C   UNL     1       4.913   3.779  16.209  0.00  0.00    +0.000 A 
ATOM      5  C   UNL     1       6.138   3.764  15.530  0.00  0.00    +0.000 A 
ATOM      6  C   UNL     1       6.933   4.916  15.459  0.00  0.00    +0.000 A 
ATOM      7  C   UNL     1       6.504   6.104  16.047  0.00  0.00    +0.000 A 
ATOM      8  C   UNL     1       5.288   6.107  16.722  0.00  0.00    +0.000 A 
ATOM      9  C   UNL     1       4.618   7.285  17.358  0.00  0.00    +0.000 C 
ATOM     10  N   UNL     1       3.366   6.700  17.851  0.00  0.00    +0.000 N 
ENDROOT
BRANCH  10  11
ATOM     11  C   UNL     1       2.525   7.488  18.658  0.00  0.00    +0.000 A 
ATOM     12  C   UNL     1       2.248   7.128  19.993  0.00  0.00    +0.000 A 
ATOM     13  C   UNL     1       1.450   7.929  20.819  0.00  0.00    +0.000 A 
ATOM     14  C   UNL     1       0.908   9.101  20.320  0.00  0.00    +0.000 A 
ATOM     15  F   UNL     1       0.153   9.873  21.113  0.00  0.00    +0.000 F 
ATOM     16  C   UNL     1       1.137   9.481  19.009  0.00  0.00    +0.000 A 
ATOM     17  C   UNL     1       1.936   8.676  18.189  0.00  0.00    +0.000 A 
ENDBRANCH  10  11
BRANCH   1  19
ATOM     18  O   UNL     1       1.778   2.538  17.102  0.00  0.00    +0.000 OA
ATOM     19  C   UNL     1       2.289   3.217  17.985  0.00  0.00    +0.000 C 
BRANCH  19  20
ATOM     20  C   UNL     1       3.118   2.528  19.008  0.00  0.00    +0.000 A 
ATOM     21  C   UNL     1       3.950   1.466  18.637  0.00  0.00    +0.000 A 
ATOM     22  C   UNL     1       4.788   0.881  19.584  0.00  0.00    +0.000 A 
ATOM     23  C   UNL     1       4.754   1.381  20.875  0.00  0.00    +0.000 A 
ATOM     24 CL   UNL     1       5.784   0.743  22.088  0.00  0.00    +0.000 Cl
ATOM     25  N   UNL     1       3.952   2.386  21.281  0.00  0.00    +0.000 NA
ATOM     26  C   UNL     1       3.150   2.941  20.335  0.00  0.00    +0.000 A 
ENDBRANCH  19  20
ENDBRANCH   1  19
TORSDOF 3
ENDMDL
MODEL 9
REMARK VINA RESULT:      -7.4      4.981      7.938
REMARK  Name = 
REMARK  3 active torsions:
REMARK  status: ('A' for Active; 'I' for Inactive)
REMARK    1  A    between atoms: C_2  and  N_3
REMARK    2  A    between atoms: C_2  and  C_20
REMARK    3  A    between atoms: N_12  and  C_13
REMARK                            x       y       z     vdW  Elec       q    Type
REMARK                         _______ _______ _______ _____ _____    ______ ____
ROOT
ATOM      1  N   UNL     1       0.044  11.148  19.795  0.00  0.00    +0.000 NA
ATOM      2  C   UNL     1      -1.184  11.366  19.438  0.00  0.00    +0.000 C 
ATOM      3  C   UNL     1      -1.908  10.953  18.197  0.00  0.00    +0.000 A 
ATOM      4  C   UNL     1      -1.568  10.138  17.129  0.00  0.00    +0.000 A 
ATOM      5  C   UNL     1      -2.505   9.940  16.107  0.00  0.00    +0.000 A 
ATOM      6  C   UNL     1      -3.776  10.526  16.174  0.00  0.00    +0.000 A 
ATOM      7  C   UNL     1      -4.135  11.302  17.274  0.00  0.00    +0.000 A 
ATOM      8  C   UNL     1      -3.197  11.496  18.282  0.00  0.00    +0.000 A 
ATOM      9  C   UNL     1      -3.403  12.231  19.570  0.00  0.00    +0.000 C 
ATOM     10  N   UNL     1      -2.108  12.055  20.236  0.00  0.00    +0.000 N 
ENDROOT
BRANCH  10  11
ATOM     11  C   UNL     1      -1.865  12.755  21.433  0.00  0.00    +0.000 A 
ATOM     12  C   UNL     1      -0.841  13.719  21.520  0.00  0.00    +0.000 A 
ATOM     13  C   UNL     1      -0.621  14.453  22.692  0.00  0.00    +0.000 A 
ATOM     14  C   UNL     1      -1.418  14.227  23.802  0.00  0.00    +0.000 A 
ATOM     15  F   UNL     1      -1.215  14.935  24.920  0.00  0.00    +0.000 F 
ATOM     16  C   UNL     1      -2.421  13.273  23.766  0.00  0.00    +0.000 A 
ATOM     17  C   UNL     1      -2.636  12.545  22.591  0.00  0.00    +0.000 A 
ENDBRANCH  10  11
BRANCH   1  19
ATOM     18  O   UNL     1       1.679  11.301  18.181  0.00  0.00    +0.000 OA
ATOM     19  C   UNL     1       1.014  10.649  18.979  0.00  0.00    +0.000 C 
BRANCH  19  20
ATOM     20  C   UNL     1       1.403   9.236  19.223  0.00  0.00    +0.000 A 
ATOM     21  C   UNL     1       2.051   8.504  18.222  0.00  0.00    +0.000 A 
ATOM     22  C   UNL     1       2.489   7.208  18.488  0.00  0.00    +0.000 A 
ATOM     23  C   UNL     1       2.252   6.690  19.750  0.00  0.00    +0.000 A 
ATOM     24 CL   UNL     1       2.796   5.119  20.168  0.00  0.00    +0.000 Cl
ATOM     25  N   UNL     1       1.611   7.351  20.736  0.00  0.00    +0.000 NA
ATOM     26  C   UNL     1       1.201   8.615  20.451  0.00  0.00    +0.000 A 
ENDBRANCH  19  20
ENDBRANCH   1  19
TORSDOF 3
ENDMDL
