MODEL 1
REMARK VINA RESULT:      -7.7      0.000      0.000
REMARK  Name = 
REMARK  3 active torsions:
REMARK  status: ('A' for Active; 'I' for Inactive)
REMARK    1  A    between atoms: S_2  and  N_4
REMARK    2  A    between atoms: S_2  and  C_15
REMARK    3  A    between atoms: N_4  and  C_5
REMARK                            x       y       z     vdW  Elec       q    Type
REMARK                         _______ _______ _______ _____ _____    ______ ____
ROOT
ATOM      1  N   UNL     1       4.862   3.334  18.054  0.00  0.00    +0.000 N 
ATOM      2  H   UNL     1       5.680   2.805  17.744  0.00  0.00    +0.000 HD
ENDROOT
BRANCH   1   3
ATOM      3  C   UNL     1       4.757   4.591  17.347  0.00  0.00    +0.000 A 
ATOM      4  C   UNL     1       5.499   4.696  16.166  0.00  0.00    +0.000 A 
ATOM      5  C   UNL     1       5.490   5.877  15.432  0.00  0.00    +0.000 A 
ATOM      6  C   UNL     1       4.743   6.963  15.879  0.00  0.00    +0.000 A 
ATOM      7  C   UNL     1       3.997   6.888  17.065  0.00  0.00    +0.000 A 
ATOM      8  C   UNL     1       3.251   8.002  17.489  0.00  0.00    +0.000 A 
ATOM      9  C   UNL     1       2.499   7.957  18.659  0.00  0.00    +0.000 A 
ATOM     10  C   UNL     1       2.491   6.801  19.429  0.00  0.00    +0.000 A 
ATOM     11  C   UNL     1       3.233   5.686  19.025  0.00  0.00    +0.000 A 
ATOM     12  C   UNL     1       3.997   5.693  17.833  0.00  0.00    +0.000 A 
ENDBRANCH   1   3
BRANCH   1  14
ATOM     13  O   UNL     1       2.686   2.772  16.780  0.00  0.00    +0.000 OA
ATOM     14  S   UNL     1       3.510   2.304  17.875  0.00  0.00    +0.000 S 
ATOM     15  O   UNL     1       3.999   0.943  17.924  0.00  0.00    +0.000 OA
BRANCH  14  16
ATOM     16  C   UNL     1       2.607   2.600  19.364  0.00  0.00    +0.000 A 
ATOM     17  C   UNL     1       1.248   2.935  19.320  0.00  0.00    +0.000 A 
ATOM     18  C   UNL     1       0.537   3.091  20.514  0.00  0.00    +0.000 A 
ATOM     19  C   UNL     1       1.176   2.912  21.740  0.00  0.00    +0.000 A 
ATOM     20  C   UNL     1       2.535   2.584  21.777  0.00  0.00    +0.000 A 
ATOM     21  C   UNL     1       3.245   2.430  20.585  0.00  0.00    +0.000 A 
ATOM     22  F   UNL     1       4.549   2.127  20.650  0.00  0.00    +0.000 F 
ENDBRANCH  14  16
ENDBRANCH   1  14
TORSDOF 3
ENDMDL
MODEL 2
REMARK VINA RESULT:      -7.6      1.289      1.714
REMARK  Name = 
REMARK  3 active torsions:
REMARK  status: ('A' for Active; 'I' for Inactive)
REMARK    1  A    between atoms: S_2  and  N_4
REMARK    2  A    between atoms: S_2  and  C_15
REMARK    3  A    between atoms: N_4  and  C_5
REMARK                            x       y       z     vdW  Elec       q    Type
REMARK                         _______ _______ _______ _____ _____    ______ ____
ROOT
ATOM      1  N   UNL     1       5.434   3.605  19.325  0.00  0.00    +0.000 N 
ATOM      2  H   UNL     1       6.425   3.370  19.397  0.00  0.00    +0.000 HD
ENDROOT
BRANCH   1   3
ATOM      3  C   UNL     1       5.207   4.597  18.298  0.00  0.00    +0.000 A 
ATOM      4  C   UNL     1       6.021   4.505  17.164  0.00  0.00    +0.000 A 
ATOM      5  C   UNL     1       5.902   5.434  16.135  0.00  0.00    +0.000 A 
ATOM      6  C   UNL     1       4.973   6.464  16.238  0.00  0.00    +0.000 A 
ATOM      7  C   UNL     1       4.149   6.585  17.367  0.00  0.00    +0.000 A 
ATOM      8  C   UNL     1       3.218   7.636  17.440  0.00  0.00    +0.000 A 
ATOM      9  C   UNL     1       2.386   7.781  18.546  0.00  0.00    +0.000 A 
ATOM     10  C   UNL     1       2.482   6.883  19.602  0.00  0.00    +0.000 A 
ATOM     11  C   UNL     1       3.408   5.836  19.549  0.00  0.00    +0.000 A 
ATOM     12  C   UNL     1       4.259   5.651  18.432  0.00  0.00    +0.000 A 
ENDBRANCH   1   3
BRANCH   1  14
ATOM     13  O   UNL     1       4.492   1.856  17.674  0.00  0.00    +0.000 OA
ATOM     14  S   UNL     1       4.592   2.137  19.092  0.00  0.00    +0.000 S 
ATOM     15  O   UNL     1       5.149   1.173  20.016  0.00  0.00    +0.000 OA
BRANCH  14  16
ATOM     16  C   UNL     1       2.966   2.537  19.654  0.00  0.00    +0.000 A 
ATOM     17  C   UNL     1       2.707   2.715  21.019  0.00  0.00    +0.000 A 
ATOM     18  C   UNL     1       1.429   3.105  21.434  0.00  0.00    +0.000 A 
ATOM     19  C   UNL     1       0.420   3.316  20.494  0.00  0.00    +0.000 A 
ATOM     20  C   UNL     1       0.685   3.131  19.134  0.00  0.00    +0.000 A 
ATOM     21  C   UNL     1       1.960   2.740  18.720  0.00  0.00    +0.000 A 
ATOM     22  F   UNL     1       2.182   2.558  17.411  0.00  0.00    +0.000 F 
ENDBRANCH  14  16
ENDBRANCH   1  14
TORSDOF 3
ENDMDL
MODEL 3
REMARK VINA RESULT:      -7.5      1.031      1.473
REMARK  Name = 
REMARK  3 active torsions:
REMARK  status: ('A' for Active; 'I' for Inactive)
REMARK    1  A    between atoms: S_2  and  N_4
REMARK    2  A    between atoms: S_2  and  C_15
REMARK    3  A    between atoms: N_4  and  C_5
REMARK                            x       y       z     vdW  Elec       q    Type
REMARK                         _______ _______ _______ _____ _____    ______ ____
ROOT
ATOM      1  N   UNL     1       4.832   3.294  18.075  0.00  0.00    +0.000 N 
ATOM      2  H   UNL     1       5.650   2.763  17.772  0.00  0.00    +0.000 HD
ENDROOT
BRANCH   1   3
ATOM      3  C   UNL     1       4.748   4.561  17.383  0.00  0.00    +0.000 A 
ATOM      4  C   UNL     1       5.513   4.676  16.218  0.00  0.00    +0.000 A 
ATOM      5  C   UNL     1       5.526   5.867  15.499  0.00  0.00    +0.000 A 
ATOM      6  C   UNL     1       4.777   6.952  15.946  0.00  0.00    +0.000 A 
ATOM      7  C   UNL     1       4.008   6.867  17.116  0.00  0.00    +0.000 A 
ATOM      8  C   UNL     1       3.261   7.979  17.539  0.00  0.00    +0.000 A 
ATOM      9  C   UNL     1       2.486   7.925  18.694  0.00  0.00    +0.000 A 
ATOM     10  C   UNL     1       2.457   6.759  19.449  0.00  0.00    +0.000 A 
ATOM     11  C   UNL     1       3.199   5.645  19.045  0.00  0.00    +0.000 A 
ATOM     12  C   UNL     1       3.986   5.662  17.868  0.00  0.00    +0.000 A 
ENDBRANCH   1   3
BRANCH   1  14
ATOM     13  O   UNL     1       2.620   2.822  16.828  0.00  0.00    +0.000 OA
ATOM     14  S   UNL     1       3.475   2.279  17.864  0.00  0.00    +0.000 S 
ATOM     15  O   UNL     1       3.963   0.918  17.803  0.00  0.00    +0.000 OA
BRANCH  14  16
ATOM     16  C   UNL     1       2.615   2.469  19.395  0.00  0.00    +0.000 A 
ATOM     17  C   UNL     1       3.311   2.465  20.610  0.00  0.00    +0.000 A 
ATOM     18  C   UNL     1       2.618   2.692  21.803  0.00  0.00    +0.000 A 
ATOM     19  C   UNL     1       1.242   2.922  21.783  0.00  0.00    +0.000 A 
ATOM     20  C   UNL     1       0.553   2.918  20.567  0.00  0.00    +0.000 A 
ATOM     21  C   UNL     1       1.244   2.690  19.376  0.00  0.00    +0.000 A 
ATOM     22  F   UNL     1       0.556   2.679  18.226  0.00  0.00    +0.000 F 
ENDBRANCH  14  16
ENDBRANCH   1  14
TORSDOF 3
ENDMDL
MODEL 4
REMARK VINA RESULT:      -7.5      2.615      5.248
REMARK  Name = 
REMARK  3 active torsions:
REMARK  status: ('A' for Active; 'I' for Inactive)
REMARK    1  A    between atoms: S_2  and  N_4
REMARK    2  A    between atoms: S_2  and  C_15
REMARK    3  A    between atoms: N_4  and  C_5
REMARK                            x       y       z     vdW  Elec       q    Type
REMARK                         _______ _______ _______ _____ _____    ______ ____
ROOT
ATOM      1  N   UNL     1       4.962   3.124  18.164  0.00  0.00    +0.000 N 
ATOM      2  H   UNL     1       5.553   3.491  18.913  0.00  0.00    +0.000 HD
ENDROOT
BRANCH   1   3
ATOM      3  C   UNL     1       3.589   3.002  18.599  0.00  0.00    +0.000 A 
ATOM      4  C   UNL     1       2.931   1.823  18.233  0.00  0.00    +0.000 A 
ATOM      5  C   UNL     1       1.597   1.626  18.576  0.00  0.00    +0.000 A 
ATOM      6  C   UNL     1       0.912   2.611  19.281  0.00  0.00    +0.000 A 
ATOM      7  C   UNL     1       1.545   3.806  19.654  0.00  0.00    +0.000 A 
ATOM      8  C   UNL     1       0.827   4.780  20.369  0.00  0.00    +0.000 A 
ATOM      9  C   UNL     1       1.428   5.975  20.754  0.00  0.00    +0.000 A 
ATOM     10  C   UNL     1       2.754   6.217  20.420  0.00  0.00    +0.000 A 
ATOM     11  C   UNL     1       3.482   5.261  19.703  0.00  0.00    +0.000 A 
ATOM     12  C   UNL     1       2.905   4.030  19.308  0.00  0.00    +0.000 A 
ENDBRANCH   1   3
BRANCH   1  14
ATOM     13  O   UNL     1       5.944   3.429  15.795  0.00  0.00    +0.000 OA
ATOM     14  S   UNL     1       5.191   4.138  16.809  0.00  0.00    +0.000 S 
ATOM     15  O   UNL     1       3.913   4.750  16.512  0.00  0.00    +0.000 OA
BRANCH  14  16
ATOM     16  C   UNL     1       6.249   5.399  17.451  0.00  0.00    +0.000 A 
ATOM     17  C   UNL     1       7.110   5.131  18.523  0.00  0.00    +0.000 A 
ATOM     18  C   UNL     1       7.991   6.123  18.964  0.00  0.00    +0.000 A 
ATOM     19  C   UNL     1       8.014   7.370  18.340  0.00  0.00    +0.000 A 
ATOM     20  C   UNL     1       7.147   7.632  17.275  0.00  0.00    +0.000 A 
ATOM     21  C   UNL     1       6.266   6.643  16.835  0.00  0.00    +0.000 A 
ATOM     22  F   UNL     1       5.438   6.926  15.820  0.00  0.00    +0.000 F 
ENDBRANCH  14  16
ENDBRANCH   1  14
TORSDOF 3
ENDMDL
MODEL 5
REMARK VINA RESULT:      -7.5      2.450      2.893
REMARK  Name = 
REMARK  3 active torsions:
REMARK  status: ('A' for Active; 'I' for Inactive)
REMARK    1  A    between atoms: S_2  and  N_4
REMARK    2  A    between atoms: S_2  and  C_15
REMARK    3  A    between atoms: N_4  and  C_5
REMARK                            x       y       z     vdW  Elec       q    Type
REMARK                         _______ _______ _______ _____ _____    ______ ____
ROOT
ATOM      1  N   UNL     1       4.507   2.929  17.330  0.00  0.00    +0.000 N 
ATOM      2  H   UNL     1       4.501   2.054  16.802  0.00  0.00    +0.000 HD
ENDROOT
BRANCH   1   3
ATOM      3  C   UNL     1       5.329   3.923  16.679  0.00  0.00    +0.000 A 
ATOM      4  C   UNL     1       5.295   3.930  15.280  0.00  0.00    +0.000 A 
ATOM      5  C   UNL     1       6.077   4.827  14.561  0.00  0.00    +0.000 A 
ATOM      6  C   UNL     1       6.904   5.720  15.237  0.00  0.00    +0.000 A 
ATOM      7  C   UNL     1       6.963   5.730  16.639  0.00  0.00    +0.000 A 
ATOM      8  C   UNL     1       7.806   6.646  17.292  0.00  0.00    +0.000 A 
ATOM      9  C   UNL     1       7.885   6.682  18.681  0.00  0.00    +0.000 A 
ATOM     10  C   UNL     1       7.131   5.793  19.437  0.00  0.00    +0.000 A 
ATOM     11  C   UNL     1       6.293   4.871  18.802  0.00  0.00    +0.000 A 
ATOM     12  C   UNL     1       6.177   4.817  17.392  0.00  0.00    +0.000 A 
ENDBRANCH   1   3
BRANCH   1  14
ATOM     13  O   UNL     1       2.757   4.827  17.424  0.00  0.00    +0.000 OA
ATOM     14  S   UNL     1       2.876   3.388  17.547  0.00  0.00    +0.000 S 
ATOM     15  O   UNL     1       2.068   2.492  16.747  0.00  0.00    +0.000 OA
BRANCH  14  16
ATOM     16  C   UNL     1       2.591   2.990  19.244  0.00  0.00    +0.000 A 
ATOM     17  C   UNL     1       3.639   2.542  20.058  0.00  0.00    +0.000 A 
ATOM     18  C   UNL     1       3.406   2.305  21.417  0.00  0.00    +0.000 A 
ATOM     19  C   UNL     1       2.137   2.515  21.957  0.00  0.00    +0.000 A 
ATOM     20  C   UNL     1       1.094   2.956  21.138  0.00  0.00    +0.000 A 
ATOM     21  C   UNL     1       1.327   3.191  19.782  0.00  0.00    +0.000 A 
ATOM     22  F   UNL     1       0.306   3.602  19.017  0.00  0.00    +0.000 F 
ENDBRANCH  14  16
ENDBRANCH   1  14
TORSDOF 3
ENDMDL
MODEL 6
REMARK VINA RESULT:      -7.5      1.861      3.065
REMARK  Name = 
REMARK  3 active torsions:
REMARK  status: ('A' for Active; 'I' for Inactive)
REMARK    1  A    between atoms: S_2  and  N_4
REMARK    2  A    between atoms: S_2  and  C_15
REMARK    3  A    between atoms: N_4  and  C_5
REMARK                            x       y       z     vdW  Elec       q    Type
REMARK                         _______ _______ _______ _____ _____    ______ ____
ROOT
ATOM      1  N   UNL     1       4.417   2.779  17.836  0.00  0.00    +0.000 N 
ATOM      2  H   UNL     1       4.576   1.849  17.443  0.00  0.00    +0.000 HD
ENDROOT
BRANCH   1   3
ATOM      3  C   UNL     1       5.087   3.794  17.054  0.00  0.00    +0.000 A 
ATOM      4  C   UNL     1       4.832   3.781  15.679  0.00  0.00    +0.000 A 
ATOM      5  C   UNL     1       5.455   4.696  14.838  0.00  0.00    +0.000 A 
ATOM      6  C   UNL     1       6.344   5.628  15.368  0.00  0.00    +0.000 A 
ATOM      7  C   UNL     1       6.625   5.658  16.742  0.00  0.00    +0.000 A 
ATOM      8  C   UNL     1       7.524   6.613  17.246  0.00  0.00    +0.000 A 
ATOM      9  C   UNL     1       7.822   6.670  18.605  0.00  0.00    +0.000 A 
ATOM     10  C   UNL     1       7.231   5.765  19.477  0.00  0.00    +0.000 A 
ATOM     11  C   UNL     1       6.339   4.804  18.991  0.00  0.00    +0.000 A 
ATOM     12  C   UNL     1       6.003   4.728  17.618  0.00  0.00    +0.000 A 
ENDBRANCH   1   3
BRANCH   1  14
ATOM     13  O   UNL     1       2.150   3.084  16.636  0.00  0.00    +0.000 OA
ATOM     14  S   UNL     1       2.725   2.982  17.961  0.00  0.00    +0.000 S 
ATOM     15  O   UNL     1       2.247   2.009  18.920  0.00  0.00    +0.000 OA
BRANCH  14  16
ATOM     16  C   UNL     1       2.588   4.577  18.708  0.00  0.00    +0.000 A 
ATOM     17  C   UNL     1       2.503   5.730  17.918  0.00  0.00    +0.000 A 
ATOM     18  C   UNL     1       2.319   6.974  18.529  0.00  0.00    +0.000 A 
ATOM     19  C   UNL     1       2.220   7.065  19.918  0.00  0.00    +0.000 A 
ATOM     20  C   UNL     1       2.312   5.911  20.701  0.00  0.00    +0.000 A 
ATOM     21  C   UNL     1       2.496   4.669  20.090  0.00  0.00    +0.000 A 
ATOM     22  F   UNL     1       2.593   3.580  20.866  0.00  0.00    +0.000 F 
ENDBRANCH  14  16
ENDBRANCH   1  14
TORSDOF 3
ENDMDL
MODEL 7
REMARK VINA RESULT:      -7.4      2.800      5.562
REMARK  Name = 
REMARK  3 active torsions:
REMARK  status: ('A' for Active; 'I' for Inactive)
REMARK    1  A    between atoms: S_2  and  N_4
REMARK    2  A    between atoms: S_2  and  C_15
REMARK    3  A    between atoms: N_4  and  C_5
REMARK                            x       y       z     vdW  Elec       q    Type
REMARK                         _______ _______ _______ _____ _____    ______ ____
ROOT
ATOM      1  N   UNL     1       4.295   5.348  17.156  0.00  0.00    +0.000 N 
ATOM      2  H   UNL     1       3.957   4.734  16.413  0.00  0.00    +0.000 HD
ENDROOT
BRANCH   1   3
ATOM      3  C   UNL     1       3.329   5.449  18.227  0.00  0.00    +0.000 A 
ATOM      4  C   UNL     1       3.282   6.675  18.898  0.00  0.00    +0.000 A 
ATOM      5  C   UNL     1       2.409   6.861  19.965  0.00  0.00    +0.000 A 
ATOM      6  C   UNL     1       1.582   5.818  20.370  0.00  0.00    +0.000 A 
ATOM      7  C   UNL     1       1.613   4.575  19.719  0.00  0.00    +0.000 A 
ATOM      8  C   UNL     1       0.763   3.543  20.151  0.00  0.00    +0.000 A 
ATOM      9  C   UNL     1       0.770   2.300  19.524  0.00  0.00    +0.000 A 
ATOM     10  C   UNL     1       1.637   2.069  18.464  0.00  0.00    +0.000 A 
ATOM     11  C   UNL     1       2.495   3.083  18.027  0.00  0.00    +0.000 A 
ATOM     12  C   UNL     1       2.503   4.363  18.632  0.00  0.00    +0.000 A 
ENDBRANCH   1   3
BRANCH   1  14
ATOM     13  O   UNL     1       5.723   4.160  18.952  0.00  0.00    +0.000 OA
ATOM     14  S   UNL     1       5.824   4.753  17.633  0.00  0.00    +0.000 S 
ATOM     15  O   UNL     1       6.365   4.014  16.513  0.00  0.00    +0.000 OA
BRANCH  14  16
ATOM     16  C   UNL     1       6.772   6.233  17.804  0.00  0.00    +0.000 A 
ATOM     17  C   UNL     1       6.414   7.395  17.108  0.00  0.00    +0.000 A 
ATOM     18  C   UNL     1       7.135   8.575  17.317  0.00  0.00    +0.000 A 
ATOM     19  C   UNL     1       8.204   8.594  18.214  0.00  0.00    +0.000 A 
ATOM     20  C   UNL     1       8.559   7.429  18.900  0.00  0.00    +0.000 A 
ATOM     21  C   UNL     1       7.840   6.251  18.690  0.00  0.00    +0.000 A 
ATOM     22  F   UNL     1       8.211   5.147  19.352  0.00  0.00    +0.000 F 
ENDBRANCH  14  16
ENDBRANCH   1  14
TORSDOF 3
ENDMDL
MODEL 8
REMARK VINA RESULT:      -7.4      2.823      4.376
REMARK  Name = 
REMARK  3 active torsions:
REMARK  status: ('A' for Active; 'I' for Inactive)
REMARK    1  A    between atoms: S_2  and  N_4
REMARK    2  A    between atoms: S_2  and  C_15
REMARK    3  A    between atoms: N_4  and  C_5
REMARK                            x       y       z     vdW  Elec       q    Type
REMARK                         _______ _______ _______ _____ _____    ______ ____
ROOT
ATOM      1  N   UNL     1       3.314   5.952  19.997  0.00  0.00    +0.000 N 
ATOM      2  H   UNL     1       4.324   6.065  20.097  0.00  0.00    +0.000 HD
ENDROOT
BRANCH   1   3
ATOM      3  C   UNL     1       2.728   7.087  19.320  0.00  0.00    +0.000 A 
ATOM      4  C   UNL     1       3.208   7.350  18.033  0.00  0.00    +0.000 A 
ATOM      5  C   UNL     1       2.731   8.440  17.312  0.00  0.00    +0.000 A 
ATOM      6  C   UNL     1       1.775   9.278  17.879  0.00  0.00    +0.000 A 
ATOM      7  C   UNL     1       1.282   9.042  19.171  0.00  0.00    +0.000 A 
ATOM      8  C   UNL     1       0.314   9.905  19.714  0.00  0.00    +0.000 A 
ATOM      9  C   UNL     1      -0.196   9.696  20.992  0.00  0.00    +0.000 A 
ATOM     10  C   UNL     1       0.264   8.626  21.750  0.00  0.00    +0.000 A 
ATOM     11  C   UNL     1       1.232   7.763  21.227  0.00  0.00    +0.000 A 
ATOM     12  C   UNL     1       1.761   7.938  19.926  0.00  0.00    +0.000 A 
ENDBRANCH   1   3
BRANCH   1  14
ATOM     13  O   UNL     1       3.240   3.376  20.172  0.00  0.00    +0.000 OA
ATOM     14  S   UNL     1       3.058   4.452  19.220  0.00  0.00    +0.000 S 
ATOM     15  O   UNL     1       1.844   4.574  18.441  0.00  0.00    +0.000 OA
BRANCH  14  16
ATOM     16  C   UNL     1       4.412   4.374  18.088  0.00  0.00    +0.000 A 
ATOM     17  C   UNL     1       4.195   4.085  16.735  0.00  0.00    +0.000 A 
ATOM     18  C   UNL     1       5.273   4.103  15.844  0.00  0.00    +0.000 A 
ATOM     19  C   UNL     1       6.555   4.408  16.300  0.00  0.00    +0.000 A 
ATOM     20  C   UNL     1       6.765   4.690  17.653  0.00  0.00    +0.000 A 
ATOM     21  C   UNL     1       5.689   4.671  18.543  0.00  0.00    +0.000 A 
ATOM     22  F   UNL     1       5.921   4.932  19.836  0.00  0.00    +0.000 F 
ENDBRANCH  14  16
ENDBRANCH   1  14
TORSDOF 3
ENDMDL
MODEL 9
REMARK VINA RESULT:      -7.4      3.511      6.291
REMARK  Name = 
REMARK  3 active torsions:
REMARK  status: ('A' for Active; 'I' for Inactive)
REMARK    1  A    between atoms: S_2  and  N_4
REMARK    2  A    between atoms: S_2  and  C_15
REMARK    3  A    between atoms: N_4  and  C_5
REMARK                            x       y       z     vdW  Elec       q    Type
REMARK                         _______ _______ _______ _____ _____    ______ ____
ROOT
ATOM      1  N   UNL     1       5.388   4.404  16.492  0.00  0.00    +0.000 N 
ATOM      2  H   UNL     1       6.114   3.992  17.081  0.00  0.00    +0.000 HD
ENDROOT
BRANCH   1   3
ATOM      3  C   UNL     1       4.318   4.953  17.294  0.00  0.00    +0.000 A 
ATOM      4  C   UNL     1       4.375   6.330  17.537  0.00  0.00    +0.000 A 
ATOM      5  C   UNL     1       3.410   6.946  18.326  0.00  0.00    +0.000 A 
ATOM      6  C   UNL     1       2.384   6.188  18.882  0.00  0.00    +0.000 A 
ATOM      7  C   UNL     1       2.306   4.804  18.661  0.00  0.00    +0.000 A 
ATOM      8  C   UNL     1       1.256   4.067  19.233  0.00  0.00    +0.000 A 
ATOM      9  C   UNL     1       1.151   2.694  19.031  0.00  0.00    +0.000 A 
ATOM     10  C   UNL     1       2.102   2.037  18.261  0.00  0.00    +0.000 A 
ATOM     11  C   UNL     1       3.158   2.755  17.689  0.00  0.00    +0.000 A 
ATOM     12  C   UNL     1       3.286   4.154  17.863  0.00  0.00    +0.000 A 
ENDBRANCH   1   3
BRANCH   1  14
ATOM     13  O   UNL     1       5.260   6.636  15.197  0.00  0.00    +0.000 OA
ATOM     14  S   UNL     1       6.161   5.534  15.470  0.00  0.00    +0.000 S 
ATOM     15  O   UNL     1       7.487   5.758  16.004  0.00  0.00    +0.000 OA
BRANCH  14  16
ATOM     16  C   UNL     1       6.338   4.627  13.965  0.00  0.00    +0.000 A 
ATOM     17  C   UNL     1       5.371   3.691  13.577  0.00  0.00    +0.000 A 
ATOM     18  C   UNL     1       5.495   3.040  12.346  0.00  0.00    +0.000 A 
ATOM     19  C   UNL     1       6.574   3.323  11.508  0.00  0.00    +0.000 A 
ATOM     20  C   UNL     1       7.539   4.253  11.905  0.00  0.00    +0.000 A 
ATOM     21  C   UNL     1       7.416   4.902  13.135  0.00  0.00    +0.000 A 
ATOM     22  F   UNL     1       8.362   5.780  13.495  0.00  0.00    +0.000 F 
ENDBRANCH  14  16
ENDBRANCH   1  14
TORSDOF 3
ENDMDL
