MODEL 1
REMARK VINA RESULT:      -7.2      0.000      0.000
REMARK  Name = 
REMARK  10 active torsions:
REMARK  status: ('A' for Active; 'I' for Inactive)
REMARK    1  A    between atoms: C_2  and  C_3
REMARK    2  A    between atoms: C_3  and  N_4
REMARK    3  A    between atoms: N_4  and  C_5
REMARK    4  A    between atoms: C_11  and  O_12
REMARK    5  A    between atoms: O_12  and  C_13
REMARK    6  A    between atoms: N_15  and  C_16
REMARK    7  A    between atoms: N_15  and  C_17
REMARK    8  A    between atoms: C_17  and  C_18
REMARK    9  A    between atoms: C_18  and  C_19
REMARK   10  A    between atoms: C_19  and  C_20
REMARK                            x       y       z     vdW  Elec       q    Type
REMARK                         _______ _______ _______ _____ _____    ______ ____
ROOT
ATOM      1  C   UNL     1       5.832   3.253  12.675  0.00  0.00    +0.000 C 
ATOM      2  C   UNL     1       7.084   3.735  11.908  0.00  0.00    +0.000 C 
ATOM      3  C   UNL     1       7.459   5.079  12.528  0.00  0.00    +0.000 C 
ATOM      4  C   UNL     1       7.052   4.848  13.935  0.00  0.00    +0.000 A 
ATOM      5  C   UNL     1       7.461   5.579  15.043  0.00  0.00    +0.000 A 
ATOM      6  C   UNL     1       6.956   5.238  16.300  0.00  0.00    +0.000 A 
ATOM      7  C   UNL     1       6.020   4.185  16.443  0.00  0.00    +0.000 A 
ATOM      8  C   UNL     1       5.594   3.477  15.289  0.00  0.00    +0.000 A 
ATOM      9  C   UNL     1       6.138   3.818  14.039  0.00  0.00    +0.000 A 
ENDROOT
BRANCH   1  10
ATOM     10  N   UNL     1       4.586   3.843  12.135  0.00  0.00    +0.000 NA
ATOM     11  H   UNL     1       3.886   3.882  12.913  0.00  0.00    +0.000 HD
BRANCH  10  12
ATOM     12  C   UNL     1       4.006   3.025  11.050  0.00  0.00    +0.000 C 
BRANCH  12  14
ATOM     13  C   UNL     1       2.679   4.523   9.276  0.00  0.00    +0.000 C 
ATOM     14  C   UNL     1       3.273   3.860  10.090  0.00  0.00    +0.000 C 
ENDBRANCH  12  14
ENDBRANCH  10  12
ENDBRANCH   1  10
BRANCH   7  15
ATOM     15  O   UNL     1       5.468   3.903  17.668  0.00  0.00    +0.000 OA
BRANCH  15  16
ATOM     16  C   UNL     1       4.159   4.189  17.934  0.00  0.00    +0.000 C 
ATOM     17  O   UNL     1       3.734   5.319  17.725  0.00  0.00    +0.000 OA
ATOM     18  N   UNL     1       3.267   3.189  18.224  0.00  0.00    +0.000 N 
ATOM     19  C   UNL     1       3.677   1.873  18.688  0.00  0.00    +0.000 C 
BRANCH  18  20
ATOM     20  C   UNL     1       1.855   3.414  17.934  0.00  0.00    +0.000 C 
BRANCH  20  21
ATOM     21  C   UNL     1       0.994   2.859  19.110  0.00  0.00    +0.000 C 
BRANCH  21  22
ATOM     22  C   UNL     1       0.842   3.885  20.248  0.00  0.00    +0.000 C 
ATOM     23  C   UNL     1       2.034   3.848  21.200  0.00  0.00    +0.000 C 
ENDBRANCH  21  22
ENDBRANCH  20  21
ENDBRANCH  18  20
ENDBRANCH  15  16
ENDBRANCH   7  15
TORSDOF 8
ENDMDL
MODEL 2
REMARK VINA RESULT:      -7.0      0.960      1.289
REMARK  Name = 
REMARK  10 active torsions:
REMARK  status: ('A' for Active; 'I' for Inactive)
REMARK    1  A    between atoms: C_2  and  C_3
REMARK    2  A    between atoms: C_3  and  N_4
REMARK    3  A    between atoms: N_4  and  C_5
REMARK    4  A    between atoms: C_11  and  O_12
REMARK    5  A    between atoms: O_12  and  C_13
REMARK    6  A    between atoms: N_15  and  C_16
REMARK    7  A    between atoms: N_15  and  C_17
REMARK    8  A    between atoms: C_17  and  C_18
REMARK    9  A    between atoms: C_18  and  C_19
REMARK   10  A    between atoms: C_19  and  C_20
REMARK                            x       y       z     vdW  Elec       q    Type
REMARK                         _______ _______ _______ _____ _____    ______ ____
ROOT
ATOM      1  C   UNL     1       5.901   3.338  13.010  0.00  0.00    +0.000 C 
ATOM      2  C   UNL     1       7.233   3.893  12.456  0.00  0.00    +0.000 C 
ATOM      3  C   UNL     1       7.468   5.213  13.186  0.00  0.00    +0.000 C 
ATOM      4  C   UNL     1       6.872   4.899  14.507  0.00  0.00    +0.000 A 
ATOM      5  C   UNL     1       7.092   5.583  15.696  0.00  0.00    +0.000 A 
ATOM      6  C   UNL     1       6.422   5.164  16.849  0.00  0.00    +0.000 A 
ATOM      7  C   UNL     1       5.513   4.079  16.804  0.00  0.00    +0.000 A 
ATOM      8  C   UNL     1       5.282   3.420  15.569  0.00  0.00    +0.000 A 
ATOM      9  C   UNL     1       5.988   3.840  14.428  0.00  0.00    +0.000 A 
ENDROOT
BRANCH   1  10
ATOM     10  N   UNL     1       4.726   3.920  12.322  0.00  0.00    +0.000 NA
ATOM     11  H   UNL     1       3.986   4.095  13.043  0.00  0.00    +0.000 HD
BRANCH  10  12
ATOM     12  C   UNL     1       4.161   3.004  11.310  0.00  0.00    +0.000 C 
BRANCH  12  14
ATOM     13  C   UNL     1       2.787   4.378   9.473  0.00  0.00    +0.000 C 
ATOM     14  C   UNL     1       3.403   3.742  10.291  0.00  0.00    +0.000 C 
ENDBRANCH  12  14
ENDBRANCH  10  12
ENDBRANCH   1  10
BRANCH   7  15
ATOM     15  O   UNL     1       4.800   3.720  17.921  0.00  0.00    +0.000 OA
BRANCH  15  16
ATOM     16  C   UNL     1       3.661   2.973  17.821  0.00  0.00    +0.000 C 
ATOM     17  O   UNL     1       3.742   1.750  17.797  0.00  0.00    +0.000 OA
ATOM     18  N   UNL     1       2.426   3.552  17.961  0.00  0.00    +0.000 N 
ATOM     19  C   UNL     1       2.198   4.979  17.793  0.00  0.00    +0.000 C 
BRANCH  18  20
ATOM     20  C   UNL     1       1.319   2.721  18.422  0.00  0.00    +0.000 C 
BRANCH  20  21
ATOM     21  C   UNL     1       0.767   3.297  19.762  0.00  0.00    +0.000 C 
BRANCH  21  22
ATOM     22  C   UNL     1       1.431   2.645  20.989  0.00  0.00    +0.000 C 
ATOM     23  C   UNL     1       2.347   3.623  21.718  0.00  0.00    +0.000 C 
ENDBRANCH  21  22
ENDBRANCH  20  21
ENDBRANCH  18  20
ENDBRANCH  15  16
ENDBRANCH   7  15
TORSDOF 8
ENDMDL
MODEL 3
REMARK VINA RESULT:      -7.0      3.686      7.384
REMARK  Name = 
REMARK  10 active torsions:
REMARK  status: ('A' for Active; 'I' for Inactive)
REMARK    1  A    between atoms: C_2  and  C_3
REMARK    2  A    between atoms: C_3  and  N_4
REMARK    3  A    between atoms: N_4  and  C_5
REMARK    4  A    between atoms: C_11  and  O_12
REMARK    5  A    between atoms: O_12  and  C_13
REMARK    6  A    between atoms: N_15  and  C_16
REMARK    7  A    between atoms: N_15  and  C_17
REMARK    8  A    between atoms: C_17  and  C_18
REMARK    9  A    between atoms: C_18  and  C_19
REMARK   10  A    between atoms: C_19  and  C_20
REMARK                            x       y       z     vdW  Elec       q    Type
REMARK                         _______ _______ _______ _____ _____    ______ ____
ROOT
ATOM      1  C   UNL     1       2.405   4.742  20.724  0.00  0.00    +0.000 C 
ATOM      2  C   UNL     1       1.681   3.587  21.451  0.00  0.00    +0.000 C 
ATOM      3  C   UNL     1       1.166   2.662  20.352  0.00  0.00    +0.000 C 
ATOM      4  C   UNL     1       2.239   2.824  19.341  0.00  0.00    +0.000 A 
ATOM      5  C   UNL     1       2.504   1.973  18.276  0.00  0.00    +0.000 A 
ATOM      6  C   UNL     1       3.544   2.294  17.399  0.00  0.00    +0.000 A 
ATOM      7  C   UNL     1       4.299   3.479  17.575  0.00  0.00    +0.000 A 
ATOM      8  C   UNL     1       3.984   4.347  18.652  0.00  0.00    +0.000 A 
ATOM      9  C   UNL     1       2.953   3.990  19.538  0.00  0.00    +0.000 A 
ENDROOT
BRANCH   1  10
ATOM     10  N   UNL     1       1.467   5.799  20.283  0.00  0.00    +0.000 NA
ATOM     11  H   UNL     1       1.214   5.607  19.284  0.00  0.00    +0.000 HD
BRANCH  10  12
ATOM     12  C   UNL     1       2.074   7.145  20.341  0.00  0.00    +0.000 C 
BRANCH  12  14
ATOM     13  C   UNL     1       2.545   8.062  17.874  0.00  0.00    +0.000 C 
ATOM     14  C   UNL     1       2.340   7.665  18.994  0.00  0.00    +0.000 C 
ENDBRANCH  12  14
ENDBRANCH  10  12
ENDBRANCH   1  10
BRANCH   7  15
ATOM     15  O   UNL     1       5.269   3.830  16.668  0.00  0.00    +0.000 OA
BRANCH  15  16
ATOM     16  C   UNL     1       5.616   5.137  16.477  0.00  0.00    +0.000 C 
ATOM     17  O   UNL     1       4.912   5.851  15.773  0.00  0.00    +0.000 OA
ATOM     18  N   UNL     1       6.610   5.715  17.222  0.00  0.00    +0.000 N 
ATOM     19  C   UNL     1       7.626   4.943  17.921  0.00  0.00    +0.000 C 
BRANCH  18  20
ATOM     20  C   UNL     1       6.573   7.159  17.426  0.00  0.00    +0.000 C 
BRANCH  20  21
ATOM     21  C   UNL     1       7.965   7.642  17.936  0.00  0.00    +0.000 C 
BRANCH  21  22
ATOM     22  C   UNL     1       8.124   9.170  17.823  0.00  0.00    +0.000 C 
ATOM     23  C   UNL     1       8.975   9.732  18.957  0.00  0.00    +0.000 C 
ENDBRANCH  21  22
ENDBRANCH  20  21
ENDBRANCH  18  20
ENDBRANCH  15  16
ENDBRANCH   7  15
TORSDOF 8
ENDMDL
MODEL 4
REMARK VINA RESULT:      -6.9      0.925      1.367
REMARK  Name = 
REMARK  10 active torsions:
REMARK  status: ('A' for Active; 'I' for Inactive)
REMARK    1  A    between atoms: C_2  and  C_3
REMARK    2  A    between atoms: C_3  and  N_4
REMARK    3  A    between atoms: N_4  and  C_5
REMARK    4  A    between atoms: C_11  and  O_12
REMARK    5  A    between atoms: O_12  and  C_13
REMARK    6  A    between atoms: N_15  and  C_16
REMARK    7  A    between atoms: N_15  and  C_17
REMARK    8  A    between atoms: C_17  and  C_18
REMARK    9  A    between atoms: C_18  and  C_19
REMARK   10  A    between atoms: C_19  and  C_20
REMARK                            x       y       z     vdW  Elec       q    Type
REMARK                         _______ _______ _______ _____ _____    ______ ____
ROOT
ATOM      1  C   UNL     1       5.179   3.130  12.511  0.00  0.00    +0.000 C 
ATOM      2  C   UNL     1       6.563   3.066  11.824  0.00  0.00    +0.000 C 
ATOM      3  C   UNL     1       7.309   4.317  12.276  0.00  0.00    +0.000 C 
ATOM      4  C   UNL     1       6.768   4.471  13.649  0.00  0.00    +0.000 A 
ATOM      5  C   UNL     1       7.324   5.225  14.675  0.00  0.00    +0.000 A 
ATOM      6  C   UNL     1       6.663   5.280  15.905  0.00  0.00    +0.000 A 
ATOM      7  C   UNL     1       5.434   4.603  16.097  0.00  0.00    +0.000 A 
ATOM      8  C   UNL     1       4.873   3.869  15.020  0.00  0.00    +0.000 A 
ATOM      9  C   UNL     1       5.569   3.804  13.801  0.00  0.00    +0.000 A 
ENDROOT
BRANCH   1  10
ATOM     10  N   UNL     1       4.220   3.967  11.755  0.00  0.00    +0.000 NA
ATOM     11  H   UNL     1       3.451   4.245  12.410  0.00  0.00    +0.000 HD
BRANCH  10  12
ATOM     12  C   UNL     1       3.608   3.235  10.627  0.00  0.00    +0.000 C 
BRANCH  12  14
ATOM     13  C   UNL     1       2.363   4.883   8.929  0.00  0.00    +0.000 C 
ATOM     14  C   UNL     1       2.922   4.153   9.709  0.00  0.00    +0.000 C 
ENDBRANCH  12  14
ENDBRANCH  10  12
ENDBRANCH   1  10
BRANCH   7  15
ATOM     15  O   UNL     1       4.750   4.722  17.282  0.00  0.00    +0.000 OA
BRANCH  15  16
ATOM     16  C   UNL     1       5.047   3.926  18.351  0.00  0.00    +0.000 C 
ATOM     17  O   UNL     1       6.022   4.187  19.045  0.00  0.00    +0.000 OA
ATOM     18  N   UNL     1       4.162   2.974  18.785  0.00  0.00    +0.000 N 
ATOM     19  C   UNL     1       3.096   2.444  17.948  0.00  0.00    +0.000 C 
BRANCH  18  20
ATOM     20  C   UNL     1       4.212   2.567  20.185  0.00  0.00    +0.000 C 
BRANCH  20  21
ATOM     21  C   UNL     1       2.774   2.619  20.787  0.00  0.00    +0.000 C 
BRANCH  21  22
ATOM     22  C   UNL     1       2.319   4.062  21.075  0.00  0.00    +0.000 C 
ATOM     23  C   UNL     1       1.002   4.385  20.378  0.00  0.00    +0.000 C 
ENDBRANCH  21  22
ENDBRANCH  20  21
ENDBRANCH  18  20
ENDBRANCH  15  16
ENDBRANCH   7  15
TORSDOF 8
ENDMDL
MODEL 5
REMARK VINA RESULT:      -6.7      3.885      7.769
REMARK  Name = 
REMARK  10 active torsions:
REMARK  status: ('A' for Active; 'I' for Inactive)
REMARK    1  A    between atoms: C_2  and  C_3
REMARK    2  A    between atoms: C_3  and  N_4
REMARK    3  A    between atoms: N_4  and  C_5
REMARK    4  A    between atoms: C_11  and  O_12
REMARK    5  A    between atoms: O_12  and  C_13
REMARK    6  A    between atoms: N_15  and  C_16
REMARK    7  A    between atoms: N_15  and  C_17
REMARK    8  A    between atoms: C_17  and  C_18
REMARK    9  A    between atoms: C_18  and  C_19
REMARK   10  A    between atoms: C_19  and  C_20
REMARK                            x       y       z     vdW  Elec       q    Type
REMARK                         _______ _______ _______ _____ _____    ______ ____
ROOT
ATOM      1  C   UNL     1       2.595   5.560  20.272  0.00  0.00    +0.000 C 
ATOM      2  C   UNL     1       1.416   4.579  20.469  0.00  0.00    +0.000 C 
ATOM      3  C   UNL     1       1.122   4.001  19.087  0.00  0.00    +0.000 C 
ATOM      4  C   UNL     1       2.489   3.977  18.511  0.00  0.00    +0.000 A 
ATOM      5  C   UNL     1       2.908   3.237  17.413  0.00  0.00    +0.000 A 
ATOM      6  C   UNL     1       4.234   3.355  16.986  0.00  0.00    +0.000 A 
ATOM      7  C   UNL     1       5.129   4.234  17.643  0.00  0.00    +0.000 A 
ATOM      8  C   UNL     1       4.664   5.003  18.741  0.00  0.00    +0.000 A 
ATOM      9  C   UNL     1       3.335   4.847  19.170  0.00  0.00    +0.000 A 
ENDROOT
BRANCH   1  10
ATOM     10  N   UNL     1       2.141   6.893  19.818  0.00  0.00    +0.000 NA
ATOM     11  H   UNL     1       2.988   7.441  19.535  0.00  0.00    +0.000 HD
BRANCH  10  12
ATOM     12  C   UNL     1       1.456   7.645  20.889  0.00  0.00    +0.000 C 
BRANCH  12  14
ATOM     13  C   UNL     1       0.614  10.030  20.020  0.00  0.00    +0.000 C 
ATOM     14  C   UNL     1       1.012   8.962  20.412  0.00  0.00    +0.000 C 
ENDBRANCH  12  14
ENDBRANCH  10  12
ENDBRANCH   1  10
BRANCH   7  15
ATOM     15  O   UNL     1       6.408   4.404  17.173  0.00  0.00    +0.000 OA
BRANCH  15  16
ATOM     16  C   UNL     1       6.881   5.644  16.850  0.00  0.00    +0.000 C 
ATOM     17  O   UNL     1       6.583   6.140  15.770  0.00  0.00    +0.000 OA
ATOM     18  N   UNL     1       7.501   6.427  17.789  0.00  0.00    +0.000 N 
ATOM     19  C   UNL     1       8.080   5.888  19.011  0.00  0.00    +0.000 C 
BRANCH  18  20
ATOM     20  C   UNL     1       7.467   7.875  17.617  0.00  0.00    +0.000 C 
BRANCH  20  21
ATOM     21  C   UNL     1       8.495   8.532  18.589  0.00  0.00    +0.000 C 
BRANCH  21  22
ATOM     22  C   UNL     1       8.785   9.999  18.218  0.00  0.00    +0.000 C 
ATOM     23  C   UNL     1       9.371  10.770  19.395  0.00  0.00    +0.000 C 
ENDBRANCH  21  22
ENDBRANCH  20  21
ENDBRANCH  18  20
ENDBRANCH  15  16
ENDBRANCH   7  15
TORSDOF 8
ENDMDL
MODEL 6
REMARK VINA RESULT:      -6.7      2.377      7.181
REMARK  Name = 
REMARK  10 active torsions:
REMARK  status: ('A' for Active; 'I' for Inactive)
REMARK    1  A    between atoms: C_2  and  C_3
REMARK    2  A    between atoms: C_3  and  N_4
REMARK    3  A    between atoms: N_4  and  C_5
REMARK    4  A    between atoms: C_11  and  O_12
REMARK    5  A    between atoms: O_12  and  C_13
REMARK    6  A    between atoms: N_15  and  C_16
REMARK    7  A    between atoms: N_15  and  C_17
REMARK    8  A    between atoms: C_17  and  C_18
REMARK    9  A    between atoms: C_18  and  C_19
REMARK   10  A    between atoms: C_19  and  C_20
REMARK                            x       y       z     vdW  Elec       q    Type
REMARK                         _______ _______ _______ _____ _____    ______ ____
ROOT
ATOM      1  C   UNL     1       1.959   4.925  20.587  0.00  0.00    +0.000 C 
ATOM      2  C   UNL     1       1.046   3.678  20.545  0.00  0.00    +0.000 C 
ATOM      3  C   UNL     1       1.254   3.058  19.167  0.00  0.00    +0.000 C 
ATOM      4  C   UNL     1       2.683   3.383  18.938  0.00  0.00    +0.000 A 
ATOM      5  C   UNL     1       3.528   2.783  18.014  0.00  0.00    +0.000 A 
ATOM      6  C   UNL     1       4.847   3.234  17.914  0.00  0.00    +0.000 A 
ATOM      7  C   UNL     1       5.309   4.303  18.720  0.00  0.00    +0.000 A 
ATOM      8  C   UNL     1       4.414   4.920  19.631  0.00  0.00    +0.000 A 
ATOM      9  C   UNL     1       3.100   4.431  19.735  0.00  0.00    +0.000 A 
ENDROOT
BRANCH   1  10
ATOM     10  N   UNL     1       1.318   6.106  19.967  0.00  0.00    +0.000 NA
ATOM     11  H   UNL     1       1.186   5.901  18.948  0.00  0.00    +0.000 HD
BRANCH  10  12
ATOM     12  C   UNL     1       2.156   7.318  20.077  0.00  0.00    +0.000 C 
BRANCH  12  14
ATOM     13  C   UNL     1       2.253   8.624  17.745  0.00  0.00    +0.000 C 
ATOM     14  C   UNL     1       2.229   8.030  18.795  0.00  0.00    +0.000 C 
ENDBRANCH  12  14
ENDBRANCH  10  12
ENDBRANCH   1  10
BRANCH   7  15
ATOM     15  O   UNL     1       6.582   4.794  18.564  0.00  0.00    +0.000 OA
BRANCH  15  16
ATOM     16  C   UNL     1       7.177   4.836  17.335  0.00  0.00    +0.000 C 
ATOM     17  O   UNL     1       8.146   4.121  17.109  0.00  0.00    +0.000 OA
ATOM     18  N   UNL     1       6.584   5.497  16.291  0.00  0.00    +0.000 N 
ATOM     19  C   UNL     1       5.569   6.523  16.478  0.00  0.00    +0.000 C 
BRANCH  18  20
ATOM     20  C   UNL     1       6.892   5.066  14.932  0.00  0.00    +0.000 C 
BRANCH  20  21
ATOM     21  C   UNL     1       6.024   3.819  14.579  0.00  0.00    +0.000 C 
BRANCH  21  22
ATOM     22  C   UNL     1       5.241   4.013  13.266  0.00  0.00    +0.000 C 
ATOM     23  C   UNL     1       5.832   3.181  12.133  0.00  0.00    +0.000 C 
ENDBRANCH  21  22
ENDBRANCH  20  21
ENDBRANCH  18  20
ENDBRANCH  15  16
ENDBRANCH   7  15
TORSDOF 8
ENDMDL
MODEL 7
REMARK VINA RESULT:      -6.6      2.541      7.731
REMARK  Name = 
REMARK  10 active torsions:
REMARK  status: ('A' for Active; 'I' for Inactive)
REMARK    1  A    between atoms: C_2  and  C_3
REMARK    2  A    between atoms: C_3  and  N_4
REMARK    3  A    between atoms: N_4  and  C_5
REMARK    4  A    between atoms: C_11  and  O_12
REMARK    5  A    between atoms: O_12  and  C_13
REMARK    6  A    between atoms: N_15  and  C_16
REMARK    7  A    between atoms: N_15  and  C_17
REMARK    8  A    between atoms: C_17  and  C_18
REMARK    9  A    between atoms: C_18  and  C_19
REMARK   10  A    between atoms: C_19  and  C_20
REMARK                            x       y       z     vdW  Elec       q    Type
REMARK                         _______ _______ _______ _____ _____    ______ ____
ROOT
ATOM      1  C   UNL     1       2.013   5.398  20.560  0.00  0.00    +0.000 C 
ATOM      2  C   UNL     1       1.031   4.205  20.562  0.00  0.00    +0.000 C 
ATOM      3  C   UNL     1       1.237   3.496  19.226  0.00  0.00    +0.000 C 
ATOM      4  C   UNL     1       2.687   3.727  19.020  0.00  0.00    +0.000 A 
ATOM      5  C   UNL     1       3.519   3.028  18.155  0.00  0.00    +0.000 A 
ATOM      6  C   UNL     1       4.864   3.398  18.067  0.00  0.00    +0.000 A 
ATOM      7  C   UNL     1       5.367   4.484  18.824  0.00  0.00    +0.000 A 
ATOM      8  C   UNL     1       4.486   5.201  19.674  0.00  0.00    +0.000 A 
ATOM      9  C   UNL     1       3.144   4.794  19.769  0.00  0.00    +0.000 A 
ENDROOT
BRANCH   1  10
ATOM     10  N   UNL     1       1.457   6.577  19.857  0.00  0.00    +0.000 NA
ATOM     11  H   UNL     1       1.854   6.589  18.888  0.00  0.00    +0.000 HD
BRANCH  10  12
ATOM     12  C   UNL     1       1.831   7.846  20.514  0.00  0.00    +0.000 C 
BRANCH  12  14
ATOM     13  C   UNL     1      -0.185   8.850  21.956  0.00  0.00    +0.000 C 
ATOM     14  C   UNL     1       0.718   8.379  21.310  0.00  0.00    +0.000 C 
ENDBRANCH  12  14
ENDBRANCH  10  12
ENDBRANCH   1  10
BRANCH   7  15
ATOM     15  O   UNL     1       6.669   4.893  18.677  0.00  0.00    +0.000 OA
BRANCH  15  16
ATOM     16  C   UNL     1       7.288   4.855  17.460  0.00  0.00    +0.000 C 
ATOM     17  O   UNL     1       8.235   4.097  17.289  0.00  0.00    +0.000 OA
ATOM     18  N   UNL     1       6.738   5.484  16.373  0.00  0.00    +0.000 N 
ATOM     19  C   UNL     1       5.757   6.552  16.490  0.00  0.00    +0.000 C 
BRANCH  18  20
ATOM     20  C   UNL     1       7.057   4.976  15.043  0.00  0.00    +0.000 C 
BRANCH  20  21
ATOM     21  C   UNL     1       6.054   3.841  14.673  0.00  0.00    +0.000 C 
BRANCH  21  22
ATOM     22  C   UNL     1       5.443   4.042  13.274  0.00  0.00    +0.000 C 
ATOM     23  C   UNL     1       6.142   3.180  12.227  0.00  0.00    +0.000 C 
ENDBRANCH  21  22
ENDBRANCH  20  21
ENDBRANCH  18  20
ENDBRANCH  15  16
ENDBRANCH   7  15
TORSDOF 8
ENDMDL
MODEL 8
REMARK VINA RESULT:      -6.6      1.971      3.510
REMARK  Name = 
REMARK  10 active torsions:
REMARK  status: ('A' for Active; 'I' for Inactive)
REMARK    1  A    between atoms: C_2  and  C_3
REMARK    2  A    between atoms: C_3  and  N_4
REMARK    3  A    between atoms: N_4  and  C_5
REMARK    4  A    between atoms: C_11  and  O_12
REMARK    5  A    between atoms: O_12  and  C_13
REMARK    6  A    between atoms: N_15  and  C_16
REMARK    7  A    between atoms: N_15  and  C_17
REMARK    8  A    between atoms: C_17  and  C_18
REMARK    9  A    between atoms: C_18  and  C_19
REMARK   10  A    between atoms: C_19  and  C_20
REMARK                            x       y       z     vdW  Elec       q    Type
REMARK                         _______ _______ _______ _____ _____    ______ ____
ROOT
ATOM      1  C   UNL     1       5.800   3.911  15.526  0.00  0.00    +0.000 C 
ATOM      2  C   UNL     1       7.159   4.543  15.903  0.00  0.00    +0.000 C 
ATOM      3  C   UNL     1       6.858   5.999  16.248  0.00  0.00    +0.000 C 
ATOM      4  C   UNL     1       5.507   5.860  16.844  0.00  0.00    +0.000 A 
ATOM      5  C   UNL     1       4.863   6.786  17.654  0.00  0.00    +0.000 A 
ATOM      6  C   UNL     1       3.573   6.502  18.109  0.00  0.00    +0.000 A 
ATOM      7  C   UNL     1       2.919   5.304  17.730  0.00  0.00    +0.000 A 
ATOM      8  C   UNL     1       3.588   4.392  16.874  0.00  0.00    +0.000 A 
ATOM      9  C   UNL     1       4.896   4.685  16.451  0.00  0.00    +0.000 A 
ENDROOT
BRANCH   1  10
ATOM     10  N   UNL     1       5.439   4.165  14.113  0.00  0.00    +0.000 NA
ATOM     11  H   UNL     1       4.611   3.567  13.880  0.00  0.00    +0.000 HD
BRANCH  10  12
ATOM     12  C   UNL     1       6.530   3.803  13.185  0.00  0.00    +0.000 C 
BRANCH  12  14
ATOM     13  C   UNL     1       5.651   2.075  11.343  0.00  0.00    +0.000 C 
ATOM     14  C   UNL     1       6.066   2.851  12.167  0.00  0.00    +0.000 C 
ENDBRANCH  12  14
ENDBRANCH  10  12
ENDBRANCH   1  10
BRANCH   7  15
ATOM     15  O   UNL     1       1.623   5.064  18.116  0.00  0.00    +0.000 OA
BRANCH  15  16
ATOM     16  C   UNL     1       1.292   3.935  18.811  0.00  0.00    +0.000 C 
ATOM     17  O   UNL     1       0.862   2.960  18.206  0.00  0.00    +0.000 OA
ATOM     18  N   UNL     1       1.630   3.799  20.132  0.00  0.00    +0.000 N 
ATOM     19  C   UNL     1       1.949   4.932  20.988  0.00  0.00    +0.000 C 
BRANCH  18  20
ATOM     20  C   UNL     1       1.801   2.454  20.669  0.00  0.00    +0.000 C 
BRANCH  20  21
ATOM     21  C   UNL     1       3.261   2.289  21.191  0.00  0.00    +0.000 C 
BRANCH  21  22
ATOM     22  C   UNL     1       4.285   2.248  20.041  0.00  0.00    +0.000 C 
ATOM     23  C   UNL     1       3.801   1.372  18.890  0.00  0.00    +0.000 C 
ENDBRANCH  21  22
ENDBRANCH  20  21
ENDBRANCH  18  20
ENDBRANCH  15  16
ENDBRANCH   7  15
TORSDOF 8
ENDMDL
MODEL 9
REMARK VINA RESULT:      -6.6      4.452      6.948
REMARK  Name = 
REMARK  10 active torsions:
REMARK  status: ('A' for Active; 'I' for Inactive)
REMARK    1  A    between atoms: C_2  and  C_3
REMARK    2  A    between atoms: C_3  and  N_4
REMARK    3  A    between atoms: N_4  and  C_5
REMARK    4  A    between atoms: C_11  and  O_12
REMARK    5  A    between atoms: O_12  and  C_13
REMARK    6  A    between atoms: N_15  and  C_16
REMARK    7  A    between atoms: N_15  and  C_17
REMARK    8  A    between atoms: C_17  and  C_18
REMARK    9  A    between atoms: C_18  and  C_19
REMARK   10  A    between atoms: C_19  and  C_20
REMARK                            x       y       z     vdW  Elec       q    Type
REMARK                         _______ _______ _______ _____ _____    ______ ____
ROOT
ATOM      1  C   UNL     1       3.322   3.619  17.377  0.00  0.00    +0.000 C 
ATOM      2  C   UNL     1       2.460   2.343  17.515  0.00  0.00    +0.000 C 
ATOM      3  C   UNL     1       2.168   2.199  19.006  0.00  0.00    +0.000 C 
ATOM      4  C   UNL     1       2.093   3.626  19.404  0.00  0.00    +0.000 A 
ATOM      5  C   UNL     1       1.515   4.130  20.562  0.00  0.00    +0.000 A 
ATOM      6  C   UNL     1       1.558   5.508  20.792  0.00  0.00    +0.000 A 
ATOM      7  C   UNL     1       2.203   6.374  19.877  0.00  0.00    +0.000 A 
ATOM      8  C   UNL     1       2.815   5.827  18.719  0.00  0.00    +0.000 A 
ATOM      9  C   UNL     1       2.735   4.443  18.494  0.00  0.00    +0.000 A 
ENDROOT
BRANCH   1  10
ATOM     10  N   UNL     1       4.757   3.351  17.625  0.00  0.00    +0.000 NA
ATOM     11  H   UNL     1       4.910   3.357  18.661  0.00  0.00    +0.000 HD
BRANCH  10  12
ATOM     12  C   UNL     1       5.628   4.388  17.036  0.00  0.00    +0.000 C 
BRANCH  12  14
ATOM     13  C   UNL     1       6.025   3.924  14.432  0.00  0.00    +0.000 C 
ATOM     14  C   UNL     1       5.865   4.133  15.609  0.00  0.00    +0.000 C 
ENDBRANCH  12  14
ENDBRANCH  10  12
ENDBRANCH   1  10
BRANCH   7  15
ATOM     15  O   UNL     1       2.310   7.717  20.145  0.00  0.00    +0.000 OA
BRANCH  15  16
ATOM     16  C   UNL     1       1.225   8.542  20.058  0.00  0.00    +0.000 C 
ATOM     17  O   UNL     1       0.449   8.619  21.003  0.00  0.00    +0.000 OA
ATOM     18  N   UNL     1       1.105   9.439  19.028  0.00  0.00    +0.000 N 
ATOM     19  C   UNL     1       1.832   9.306  17.775  0.00  0.00    +0.000 C 
BRANCH  18  20
ATOM     20  C   UNL     1       0.312  10.644  19.246  0.00  0.00    +0.000 C 
BRANCH  20  21
ATOM     21  C   UNL     1      -1.021  10.534  18.444  0.00  0.00    +0.000 C 
BRANCH  21  22
ATOM     22  C   UNL     1      -1.562  11.916  18.031  0.00  0.00    +0.000 C 
ATOM     23  C   UNL     1      -0.570  13.028  18.360  0.00  0.00    +0.000 C 
ENDBRANCH  21  22
ENDBRANCH  20  21
ENDBRANCH  18  20
ENDBRANCH  15  16
ENDBRANCH   7  15
TORSDOF 8
ENDMDL
