MODEL 1
REMARK VINA RESULT:      -9.5      0.000      0.000
REMARK  Name = 
REMARK  9 active torsions:
REMARK  status: ('A' for Active; 'I' for Inactive)
REMARK    1  A    between atoms: C_1  and  C_2
REMARK    2  A    between atoms: C_2  and  C_3
REMARK    3  A    between atoms: C_5  and  N_6
REMARK    4  A    between atoms: C_11  and  C_12
REMARK    5  A    between atoms: N_15  and  C_16
REMARK    6  A    between atoms: C_16  and  C_17
REMARK    7  A    between atoms: C_16  and  C_19
REMARK    8  A    between atoms: C_17  and  O_18
REMARK    9  A    between atoms: N_31  and  C_32
REMARK                            x       y       z     vdW  Elec       q    Type
REMARK                         _______ _______ _______ _____ _____    ______ ____
ROOT
ATOM      1  C   UNL     1       2.039   6.839  19.843  0.00  0.00    +0.000 A 
ATOM      2  C   UNL     1       1.343   7.634  20.845  0.00  0.00    +0.000 A 
ATOM      3  C   UNL     1       0.933   8.880  20.582  0.00  0.00    +0.000 A 
ATOM      4  N   UNL     1       1.173   9.479  19.357  0.00  0.00    +0.000 N 
ATOM      5  C   UNL     1       1.879   8.814  18.351  0.00  0.00    +0.000 A 
ATOM      6  O   UNL     1       2.150   9.296  17.254  0.00  0.00    +0.000 OA
ATOM      7  C   UNL     1       2.303   7.420  18.655  0.00  0.00    +0.000 A 
ENDROOT
BRANCH   1  13
ATOM      8  N   UNL     1       4.651   3.067  18.409  0.00  0.00    +0.000 N 
ATOM      9  C   UNL     1       3.718   3.636  19.290  0.00  0.00    +0.000 A 
ATOM     10  N   UNL     1       3.367   2.871  20.334  0.00  0.00    +0.000 NA
ATOM     11  C   UNL     1       2.573   3.437  21.261  0.00  0.00    +0.000 A 
ATOM     12  C   UNL     1       2.110   4.728  21.186  0.00  0.00    +0.000 A 
ATOM     13  C   UNL     1       2.481   5.435  20.065  0.00  0.00    +0.000 A 
ATOM     14  N   UNL     1       3.272   4.892  19.119  0.00  0.00    +0.000 NA
ATOM     15  H   UNL     1       4.903   2.157  18.773  0.00  0.00    +0.000 HD
BRANCH   8  18
ATOM     16  C   UNL     1       6.415   4.708  15.781  0.00  0.00    +0.000 A 
ATOM     17  C   UNL     1       5.509   3.701  16.156  0.00  0.00    +0.000 A 
ATOM     18  C   UNL     1       5.420   3.758  17.530  0.00  0.00    +0.000 A 
ATOM     19  N   UNL     1       6.315   4.741  17.896  0.00  0.00    +0.000 N 
ATOM     20  C   UNL     1       6.657   5.209  19.218  0.00  0.00    +0.000 C 
ATOM     21  N   UNL     1       6.900   5.357  16.844  0.00  0.00    +0.000 NA
BRANCH  16  23
ATOM     22  C   UNL     1       6.372   4.006  13.400  0.00  0.00    +0.000 C 
ATOM     23  C   UNL     1       6.845   5.048  14.399  0.00  0.00    +0.000 C 
ENDBRANCH  16  23
ENDBRANCH   8  18
ENDBRANCH   1  13
BRANCH   4  24
ATOM     24  C   UNL     1       0.729  10.874  19.106  0.00  0.00    +0.000 C 
BRANCH  24  25
ATOM     25  C   UNL     1      -0.741  10.962  18.679  0.00  0.00    +0.000 A 
ATOM     26  C   UNL     1      -1.594  11.876  19.333  0.00  0.00    +0.000 A 
ATOM     27  C   UNL     1      -2.956  11.949  19.018  0.00  0.00    +0.000 A 
ATOM     28  C   UNL     1      -3.492  11.103  18.050  0.00  0.00    +0.000 A 
ATOM     29 CL   UNL     1      -5.171  11.185  17.682  0.00  0.00    +0.000 Cl
ATOM     30  C   UNL     1      -2.664  10.198  17.397  0.00  0.00    +0.000 A 
ATOM     31  F   UNL     1      -3.156   9.370  16.463  0.00  0.00    +0.000 F 
ATOM     32  C   UNL     1      -1.305  10.122  17.704  0.00  0.00    +0.000 A 
ENDBRANCH  24  25
BRANCH  24  33
ATOM     33  C   UNL     1       1.184  11.829  20.245  0.00  0.00    +0.000 C 
BRANCH  33  34
ATOM     34  O   UNL     1       2.060  12.872  19.807  0.00  0.00    +0.000 OA
ATOM     35  H   UNL     1       2.397  13.314  20.605  0.00  0.00    +0.000 HD
ENDBRANCH  33  34
ENDBRANCH  24  33
ENDBRANCH   4  24
TORSDOF 7
ENDMDL
MODEL 2
REMARK VINA RESULT:      -9.5      1.144      1.902
REMARK  Name = 
REMARK  9 active torsions:
REMARK  status: ('A' for Active; 'I' for Inactive)
REMARK    1  A    between atoms: C_1  and  C_2
REMARK    2  A    between atoms: C_2  and  C_3
REMARK    3  A    between atoms: C_5  and  N_6
REMARK    4  A    between atoms: C_11  and  C_12
REMARK    5  A    between atoms: N_15  and  C_16
REMARK    6  A    between atoms: C_16  and  C_17
REMARK    7  A    between atoms: C_16  and  C_19
REMARK    8  A    between atoms: C_17  and  O_18
REMARK    9  A    between atoms: N_31  and  C_32
REMARK                            x       y       z     vdW  Elec       q    Type
REMARK                         _______ _______ _______ _____ _____    ______ ____
ROOT
ATOM      1  C   UNL     1       1.791   7.077  20.022  0.00  0.00    +0.000 A 
ATOM      2  C   UNL     1       0.991   7.707  21.063  0.00  0.00    +0.000 A 
ATOM      3  C   UNL     1       0.505   8.945  20.912  0.00  0.00    +0.000 A 
ATOM      4  N   UNL     1       0.761   9.690  19.775  0.00  0.00    +0.000 N 
ATOM      5  C   UNL     1       1.562   9.190  18.745  0.00  0.00    +0.000 A 
ATOM      6  O   UNL     1       1.851   9.808  17.723  0.00  0.00    +0.000 OA
ATOM      7  C   UNL     1       2.070   7.803  18.921  0.00  0.00    +0.000 A 
ENDROOT
BRANCH   1  13
ATOM      8  N   UNL     1       5.185   3.877  18.861  0.00  0.00    +0.000 N 
ATOM      9  C   UNL     1       3.961   4.182  19.475  0.00  0.00    +0.000 A 
ATOM     10  N   UNL     1       3.408   3.191  20.189  0.00  0.00    +0.000 NA
ATOM     11  C   UNL     1       2.301   3.491  20.892  0.00  0.00    +0.000 A 
ATOM     12  C   UNL     1       1.720   4.736  20.906  0.00  0.00    +0.000 A 
ATOM     13  C   UNL     1       2.322   5.689  20.117  0.00  0.00    +0.000 A 
ATOM     14  N   UNL     1       3.429   5.414  19.400  0.00  0.00    +0.000 NA
ATOM     15  H   UNL     1       5.429   2.928  19.115  0.00  0.00    +0.000 HD
BRANCH   8  18
ATOM     16  C   UNL     1       7.618   6.382  18.141  0.00  0.00    +0.000 A 
ATOM     17  C   UNL     1       6.718   5.832  19.069  0.00  0.00    +0.000 A 
ATOM     18  C   UNL     1       6.090   4.788  18.424  0.00  0.00    +0.000 A 
ATOM     19  N   UNL     1       6.601   4.816  17.144  0.00  0.00    +0.000 N 
ATOM     20  C   UNL     1       6.281   3.965  16.022  0.00  0.00    +0.000 C 
ATOM     21  N   UNL     1       7.559   5.752  16.964  0.00  0.00    +0.000 NA
BRANCH  16  23
ATOM     22  C   UNL     1       7.959   8.815  17.782  0.00  0.00    +0.000 C 
ATOM     23  C   UNL     1       8.532   7.533  18.363  0.00  0.00    +0.000 C 
ENDBRANCH  16  23
ENDBRANCH   8  18
ENDBRANCH   1  13
BRANCH   4  24
ATOM     24  C   UNL     1       0.230  11.072  19.649  0.00  0.00    +0.000 C 
BRANCH  24  25
ATOM     25  C   UNL     1      -1.180  11.115  19.048  0.00  0.00    +0.000 A 
ATOM     26  C   UNL     1      -2.124  12.024  19.570  0.00  0.00    +0.000 A 
ATOM     27  C   UNL     1      -3.440  12.057  19.093  0.00  0.00    +0.000 A 
ATOM     28  C   UNL     1      -3.837  11.176  18.091  0.00  0.00    +0.000 A 
ATOM     29 CL   UNL     1      -5.462  11.208  17.524  0.00  0.00    +0.000 Cl
ATOM     30  C   UNL     1      -2.918  10.275  17.566  0.00  0.00    +0.000 A 
ATOM     31  F   UNL     1      -3.278   9.412  16.603  0.00  0.00    +0.000 F 
ATOM     32  C   UNL     1      -1.605  10.238  18.036  0.00  0.00    +0.000 A 
ENDBRANCH  24  25
BRANCH  24  33
ATOM     33  C   UNL     1       0.459  11.889  20.953  0.00  0.00    +0.000 C 
BRANCH  33  34
ATOM     34  O   UNL     1       1.805  12.341  21.121  0.00  0.00    +0.000 OA
ATOM     35  H   UNL     1       2.127  12.610  20.243  0.00  0.00    +0.000 HD
ENDBRANCH  33  34
ENDBRANCH  24  33
ENDBRANCH   4  24
TORSDOF 7
ENDMDL
MODEL 3
REMARK VINA RESULT:      -9.4      0.822      1.173
REMARK  Name = 
REMARK  9 active torsions:
REMARK  status: ('A' for Active; 'I' for Inactive)
REMARK    1  A    between atoms: C_1  and  C_2
REMARK    2  A    between atoms: C_2  and  C_3
REMARK    3  A    between atoms: C_5  and  N_6
REMARK    4  A    between atoms: C_11  and  C_12
REMARK    5  A    between atoms: N_15  and  C_16
REMARK    6  A    between atoms: C_16  and  C_17
REMARK    7  A    between atoms: C_16  and  C_19
REMARK    8  A    between atoms: C_17  and  O_18
REMARK    9  A    between atoms: N_31  and  C_32
REMARK                            x       y       z     vdW  Elec       q    Type
REMARK                         _______ _______ _______ _____ _____    ______ ____
ROOT
ATOM      1  C   UNL     1       2.026   6.861  19.848  0.00  0.00    +0.000 A 
ATOM      2  C   UNL     1       1.296   7.641  20.837  0.00  0.00    +0.000 A 
ATOM      3  C   UNL     1       0.868   8.880  20.568  0.00  0.00    +0.000 A 
ATOM      4  N   UNL     1       1.120   9.484  19.349  0.00  0.00    +0.000 N 
ATOM      5  C   UNL     1       1.858   8.834  18.356  0.00  0.00    +0.000 A 
ATOM      6  O   UNL     1       2.140   9.323  17.264  0.00  0.00    +0.000 OA
ATOM      7  C   UNL     1       2.302   7.449  18.666  0.00  0.00    +0.000 A 
ENDROOT
BRANCH   1  13
ATOM      8  N   UNL     1       4.667   3.110  18.412  0.00  0.00    +0.000 N 
ATOM      9  C   UNL     1       3.740   3.675  19.301  0.00  0.00    +0.000 A 
ATOM     10  N   UNL     1       3.414   2.916  20.357  0.00  0.00    +0.000 NA
ATOM     11  C   UNL     1       2.627   3.480  21.291  0.00  0.00    +0.000 A 
ATOM     12  C   UNL     1       2.146   4.764  21.210  0.00  0.00    +0.000 A 
ATOM     13  C   UNL     1       2.490   5.465  20.077  0.00  0.00    +0.000 A 
ATOM     14  N   UNL     1       3.274   4.924  19.125  0.00  0.00    +0.000 NA
ATOM     15  H   UNL     1       4.937   2.207  18.781  0.00  0.00    +0.000 HD
BRANCH   8  18
ATOM     16  C   UNL     1       6.362   4.760  15.744  0.00  0.00    +0.000 A 
ATOM     17  C   UNL     1       5.461   3.756  16.139  0.00  0.00    +0.000 A 
ATOM     18  C   UNL     1       5.414   3.802  17.516  0.00  0.00    +0.000 A 
ATOM     19  N   UNL     1       6.327   4.776  17.861  0.00  0.00    +0.000 N 
ATOM     20  C   UNL     1       6.713   5.231  19.175  0.00  0.00    +0.000 C 
ATOM     21  N   UNL     1       6.884   5.396  16.796  0.00  0.00    +0.000 NA
BRANCH  16  23
ATOM     22  C   UNL     1       6.427   3.979  13.387  0.00  0.00    +0.000 C 
ATOM     23  C   UNL     1       6.752   5.108  14.352  0.00  0.00    +0.000 C 
ENDBRANCH  16  23
ENDBRANCH   8  18
ENDBRANCH   1  13
BRANCH   4  24
ATOM     24  C   UNL     1       0.655  10.871  19.090  0.00  0.00    +0.000 C 
BRANCH  24  25
ATOM     25  C   UNL     1      -0.838  10.943  18.747  0.00  0.00    +0.000 A 
ATOM     26  C   UNL     1      -1.342  10.152  17.694  0.00  0.00    +0.000 A 
ATOM     27  C   UNL     1      -2.685  10.229  17.307  0.00  0.00    +0.000 A 
ATOM     28  C   UNL     1      -3.547  11.106  17.961  0.00  0.00    +0.000 A 
ATOM     29 CL   UNL     1      -5.192  11.211  17.467  0.00  0.00    +0.000 Cl
ATOM     30  C   UNL     1      -3.065  11.892  19.001  0.00  0.00    +0.000 A 
ATOM     31  F   UNL     1      -3.874  12.748  19.644  0.00  0.00    +0.000 F 
ATOM     32  C   UNL     1      -1.728  11.817  19.393  0.00  0.00    +0.000 A 
ENDBRANCH  24  25
BRANCH  24  33
ATOM     33  C   UNL     1       1.169  11.855  20.179  0.00  0.00    +0.000 C 
BRANCH  33  34
ATOM     34  O   UNL     1       2.172  12.761  19.709  0.00  0.00    +0.000 OA
ATOM     35  H   UNL     1       1.834  13.160  18.889  0.00  0.00    +0.000 HD
ENDBRANCH  33  34
ENDBRANCH  24  33
ENDBRANCH   4  24
TORSDOF 7
ENDMDL
MODEL 4
REMARK VINA RESULT:      -9.3      1.432      2.240
REMARK  Name = 
REMARK  9 active torsions:
REMARK  status: ('A' for Active; 'I' for Inactive)
REMARK    1  A    between atoms: C_1  and  C_2
REMARK    2  A    between atoms: C_2  and  C_3
REMARK    3  A    between atoms: C_5  and  N_6
REMARK    4  A    between atoms: C_11  and  C_12
REMARK    5  A    between atoms: N_15  and  C_16
REMARK    6  A    between atoms: C_16  and  C_17
REMARK    7  A    between atoms: C_16  and  C_19
REMARK    8  A    between atoms: C_17  and  O_18
REMARK    9  A    between atoms: N_31  and  C_32
REMARK                            x       y       z     vdW  Elec       q    Type
REMARK                         _______ _______ _______ _____ _____    ______ ____
ROOT
ATOM      1  C   UNL     1       1.788   7.033  20.093  0.00  0.00    +0.000 A 
ATOM      2  C   UNL     1       0.958   7.631  21.129  0.00  0.00    +0.000 A 
ATOM      3  C   UNL     1       0.473   8.871  21.001  0.00  0.00    +0.000 A 
ATOM      4  N   UNL     1       0.760   9.650  19.894  0.00  0.00    +0.000 N 
ATOM      5  C   UNL     1       1.590   9.182  18.872  0.00  0.00    +0.000 A 
ATOM      6  O   UNL     1       1.906   9.831  17.877  0.00  0.00    +0.000 OA
ATOM      7  C   UNL     1       2.097   7.791  19.022  0.00  0.00    +0.000 A 
ENDROOT
BRANCH   1  13
ATOM      8  N   UNL     1       5.163   3.847  18.840  0.00  0.00    +0.000 N 
ATOM      9  C   UNL     1       3.949   4.144  19.477  0.00  0.00    +0.000 A 
ATOM     10  N   UNL     1       3.406   3.144  20.185  0.00  0.00    +0.000 NA
ATOM     11  C   UNL     1       2.309   3.435  20.908  0.00  0.00    +0.000 A 
ATOM     12  C   UNL     1       1.729   4.680  20.947  0.00  0.00    +0.000 A 
ATOM     13  C   UNL     1       2.320   5.643  20.162  0.00  0.00    +0.000 A 
ATOM     14  N   UNL     1       3.416   5.378  19.425  0.00  0.00    +0.000 NA
ATOM     15  H   UNL     1       5.410   2.895  19.078  0.00  0.00    +0.000 HD
BRANCH   8  18
ATOM     16  C   UNL     1       7.579   6.368  18.117  0.00  0.00    +0.000 A 
ATOM     17  C   UNL     1       6.680   5.814  19.045  0.00  0.00    +0.000 A 
ATOM     18  C   UNL     1       6.063   4.763  18.402  0.00  0.00    +0.000 A 
ATOM     19  N   UNL     1       6.576   4.790  17.123  0.00  0.00    +0.000 N 
ATOM     20  C   UNL     1       6.266   3.932  16.004  0.00  0.00    +0.000 C 
ATOM     21  N   UNL     1       7.528   5.733  16.942  0.00  0.00    +0.000 NA
BRANCH  16  23
ATOM     22  C   UNL     1       7.906   8.801  17.743  0.00  0.00    +0.000 C 
ATOM     23  C   UNL     1       8.483   7.527  18.337  0.00  0.00    +0.000 C 
ENDBRANCH  16  23
ENDBRANCH   8  18
ENDBRANCH   1  13
BRANCH   4  24
ATOM     24  C   UNL     1       0.230  11.034  19.794  0.00  0.00    +0.000 C 
BRANCH  24  25
ATOM     25  C   UNL     1      -1.201  11.085  19.242  0.00  0.00    +0.000 A 
ATOM     26  C   UNL     1      -1.550  10.253  18.157  0.00  0.00    +0.000 A 
ATOM     27  C   UNL     1      -2.824  10.309  17.582  0.00  0.00    +0.000 A 
ATOM     28  C   UNL     1      -3.771  11.203  18.076  0.00  0.00    +0.000 A 
ATOM     29 CL   UNL     1      -5.330  11.280  17.351  0.00  0.00    +0.000 Cl
ATOM     30  C   UNL     1      -3.442  12.028  19.145  0.00  0.00    +0.000 A 
ATOM     31  F   UNL     1      -4.335  12.901  19.636  0.00  0.00    +0.000 F 
ATOM     32  C   UNL     1      -2.174  11.976  19.724  0.00  0.00    +0.000 A 
ENDBRANCH  24  25
BRANCH  24  33
ATOM     33  C   UNL     1       0.504  11.843  21.094  0.00  0.00    +0.000 C 
BRANCH  33  34
ATOM     34  O   UNL     1       1.794  12.460  21.126  0.00  0.00    +0.000 OA
ATOM     35  H   UNL     1       2.435  11.797  20.819  0.00  0.00    +0.000 HD
ENDBRANCH  33  34
ENDBRANCH  24  33
ENDBRANCH   4  24
TORSDOF 7
ENDMDL
MODEL 5
REMARK VINA RESULT:      -8.9      0.780      1.168
REMARK  Name = 
REMARK  9 active torsions:
REMARK  status: ('A' for Active; 'I' for Inactive)
REMARK    1  A    between atoms: C_1  and  C_2
REMARK    2  A    between atoms: C_2  and  C_3
REMARK    3  A    between atoms: C_5  and  N_6
REMARK    4  A    between atoms: C_11  and  C_12
REMARK    5  A    between atoms: N_15  and  C_16
REMARK    6  A    between atoms: C_16  and  C_17
REMARK    7  A    between atoms: C_16  and  C_19
REMARK    8  A    between atoms: C_17  and  O_18
REMARK    9  A    between atoms: N_31  and  C_32
REMARK                            x       y       z     vdW  Elec       q    Type
REMARK                         _______ _______ _______ _____ _____    ______ ____
ROOT
ATOM      1  C   UNL     1       2.086   6.926  19.476  0.00  0.00    +0.000 A 
ATOM      2  C   UNL     1       2.264   7.594  18.194  0.00  0.00    +0.000 A 
ATOM      3  C   UNL     1       1.841   8.849  18.000  0.00  0.00    +0.000 A 
ATOM      4  N   UNL     1       1.194   9.557  18.997  0.00  0.00    +0.000 N 
ATOM      5  C   UNL     1       0.932   8.982  20.243  0.00  0.00    +0.000 A 
ATOM      6  O   UNL     1       0.339   9.545  21.161  0.00  0.00    +0.000 OA
ATOM      7  C   UNL     1       1.433   7.596  20.447  0.00  0.00    +0.000 A 
ENDROOT
BRANCH   1  13
ATOM      8  N   UNL     1       4.833   3.185  18.224  0.00  0.00    +0.000 N 
ATOM      9  C   UNL     1       3.875   3.760  19.073  0.00  0.00    +0.000 A 
ATOM     10  N   UNL     1       3.541   3.029  20.146  0.00  0.00    +0.000 NA
ATOM     11  C   UNL     1       2.721   3.607  21.043  0.00  0.00    +0.000 A 
ATOM     12  C   UNL     1       2.217   4.877  20.910  0.00  0.00    +0.000 A 
ATOM     13  C   UNL     1       2.573   5.548  19.762  0.00  0.00    +0.000 A 
ATOM     14  N   UNL     1       3.389   4.992  18.846  0.00  0.00    +0.000 NA
ATOM     15  H   UNL     1       5.112   2.300  18.628  0.00  0.00    +0.000 HD
BRANCH   8  18
ATOM     16  C   UNL     1       6.546   4.792  15.541  0.00  0.00    +0.000 A 
ATOM     17  C   UNL     1       5.642   3.796  15.946  0.00  0.00    +0.000 A 
ATOM     18  C   UNL     1       5.587   3.863  17.321  0.00  0.00    +0.000 A 
ATOM     19  N   UNL     1       6.498   4.842  17.657  0.00  0.00    +0.000 N 
ATOM     20  C   UNL     1       6.876   5.317  18.967  0.00  0.00    +0.000 C 
ATOM     21  N   UNL     1       7.062   5.445  16.587  0.00  0.00    +0.000 NA
BRANCH  16  23
ATOM     22  C   UNL     1       6.526   4.024  13.180  0.00  0.00    +0.000 C 
ATOM     23  C   UNL     1       6.945   5.118  14.147  0.00  0.00    +0.000 C 
ENDBRANCH  16  23
ENDBRANCH   8  18
ENDBRANCH   1  13
BRANCH   4  24
ATOM     24  C   UNL     1       0.712  10.939  18.742  0.00  0.00    +0.000 C 
BRANCH  24  25
ATOM     25  C   UNL     1      -0.792  10.998  18.443  0.00  0.00    +0.000 A 
ATOM     26  C   UNL     1      -1.606  11.885  19.178  0.00  0.00    +0.000 A 
ATOM     27  C   UNL     1      -2.991  11.930  18.981  0.00  0.00    +0.000 A 
ATOM     28  C   UNL     1      -3.588  11.084  18.050  0.00  0.00    +0.000 A 
ATOM     29 CL   UNL     1      -5.294  11.131  17.828  0.00  0.00    +0.000 Cl
ATOM     30  C   UNL     1      -2.799  10.205  17.317  0.00  0.00    +0.000 A 
ATOM     31  F   UNL     1      -3.351   9.376  16.418  0.00  0.00    +0.000 F 
ATOM     32  C   UNL     1      -1.418  10.157  17.508  0.00  0.00    +0.000 A 
ENDBRANCH  24  25
BRANCH  24  33
ATOM     33  C   UNL     1       1.251  11.936  19.806  0.00  0.00    +0.000 C 
BRANCH  33  34
ATOM     34  O   UNL     1       2.219  12.856  19.295  0.00  0.00    +0.000 OA
ATOM     35  H   UNL     1       1.944  13.086  18.391  0.00  0.00    +0.000 HD
ENDBRANCH  33  34
ENDBRANCH  24  33
ENDBRANCH   4  24
TORSDOF 7
ENDMDL
MODEL 6
REMARK VINA RESULT:      -8.8      1.138      1.663
REMARK  Name = 
REMARK  9 active torsions:
REMARK  status: ('A' for Active; 'I' for Inactive)
REMARK    1  A    between atoms: C_1  and  C_2
REMARK    2  A    between atoms: C_2  and  C_3
REMARK    3  A    between atoms: C_5  and  N_6
REMARK    4  A    between atoms: C_11  and  C_12
REMARK    5  A    between atoms: N_15  and  C_16
REMARK    6  A    between atoms: C_16  and  C_17
REMARK    7  A    between atoms: C_16  and  C_19
REMARK    8  A    between atoms: C_17  and  O_18
REMARK    9  A    between atoms: N_31  and  C_32
REMARK                            x       y       z     vdW  Elec       q    Type
REMARK                         _______ _______ _______ _____ _____    ______ ____
ROOT
ATOM      1  C   UNL     1       2.102   6.919  19.429  0.00  0.00    +0.000 A 
ATOM      2  C   UNL     1       2.270   7.572  18.139  0.00  0.00    +0.000 A 
ATOM      3  C   UNL     1       1.839   8.822  17.931  0.00  0.00    +0.000 A 
ATOM      4  N   UNL     1       1.191   9.538  18.922  0.00  0.00    +0.000 N 
ATOM      5  C   UNL     1       0.937   8.976  20.176  0.00  0.00    +0.000 A 
ATOM      6  O   UNL     1       0.344   9.546  21.089  0.00  0.00    +0.000 OA
ATOM      7  C   UNL     1       1.449   7.596  20.394  0.00  0.00    +0.000 A 
ENDROOT
BRANCH   1  13
ATOM      8  N   UNL     1       4.884   3.189  18.222  0.00  0.00    +0.000 N 
ATOM      9  C   UNL     1       3.918   3.764  19.063  0.00  0.00    +0.000 A 
ATOM     10  N   UNL     1       3.586   3.041  20.142  0.00  0.00    +0.000 NA
ATOM     11  C   UNL     1       2.759   3.620  21.030  0.00  0.00    +0.000 A 
ATOM     12  C   UNL     1       2.245   4.885  20.883  0.00  0.00    +0.000 A 
ATOM     13  C   UNL     1       2.599   5.548  19.730  0.00  0.00    +0.000 A 
ATOM     14  N   UNL     1       3.423   4.990  18.822  0.00  0.00    +0.000 NA
ATOM     15  H   UNL     1       5.169   2.310  18.637  0.00  0.00    +0.000 HD
BRANCH   8  18
ATOM     16  C   UNL     1       6.584   4.796  15.531  0.00  0.00    +0.000 A 
ATOM     17  C   UNL     1       5.670   3.809  15.940  0.00  0.00    +0.000 A 
ATOM     18  C   UNL     1       5.635   3.864  17.316  0.00  0.00    +0.000 A 
ATOM     19  N   UNL     1       6.564   4.826  17.648  0.00  0.00    +0.000 N 
ATOM     20  C   UNL     1       6.968   5.283  18.957  0.00  0.00    +0.000 C 
ATOM     21  N   UNL     1       7.123   5.431  16.576  0.00  0.00    +0.000 NA
BRANCH  16  23
ATOM     22  C   UNL     1       6.567   4.025  13.171  0.00  0.00    +0.000 C 
ATOM     23  C   UNL     1       6.968   5.129  14.135  0.00  0.00    +0.000 C 
ENDBRANCH  16  23
ENDBRANCH   8  18
ENDBRANCH   1  13
BRANCH   4  24
ATOM     24  C   UNL     1       0.698  10.913  18.652  0.00  0.00    +0.000 C 
BRANCH  24  25
ATOM     25  C   UNL     1      -0.824  10.976  18.476  0.00  0.00    +0.000 A 
ATOM     26  C   UNL     1      -1.432  10.219  17.454  0.00  0.00    +0.000 A 
ATOM     27  C   UNL     1      -2.810  10.291  17.219  0.00  0.00    +0.000 A 
ATOM     28  C   UNL     1      -3.604  11.129  17.997  0.00  0.00    +0.000 A 
ATOM     29 CL   UNL     1      -5.294  11.228  17.690  0.00  0.00    +0.000 Cl
ATOM     30  C   UNL     1      -3.020  11.881  19.010  0.00  0.00    +0.000 A 
ATOM     31  F   UNL     1      -3.763  12.699  19.771  0.00  0.00    +0.000 F 
ATOM     32  C   UNL     1      -1.647  11.811  19.250  0.00  0.00    +0.000 A 
ENDBRANCH  24  25
BRANCH  24  33
ATOM     33  C   UNL     1       1.332  11.946  19.626  0.00  0.00    +0.000 C 
BRANCH  33  34
ATOM     34  O   UNL     1       2.218  12.870  18.989  0.00  0.00    +0.000 OA
ATOM     35  H   UNL     1       3.086  12.774  19.418  0.00  0.00    +0.000 HD
ENDBRANCH  33  34
ENDBRANCH  24  33
ENDBRANCH   4  24
TORSDOF 7
ENDMDL
MODEL 7
REMARK VINA RESULT:      -8.8      1.901      2.209
REMARK  Name = 
REMARK  9 active torsions:
REMARK  status: ('A' for Active; 'I' for Inactive)
REMARK    1  A    between atoms: C_1  and  C_2
REMARK    2  A    between atoms: C_2  and  C_3
REMARK    3  A    between atoms: C_5  and  N_6
REMARK    4  A    between atoms: C_11  and  C_12
REMARK    5  A    between atoms: N_15  and  C_16
REMARK    6  A    between atoms: C_16  and  C_17
REMARK    7  A    between atoms: C_16  and  C_19
REMARK    8  A    between atoms: C_17  and  O_18
REMARK    9  A    between atoms: N_31  and  C_32
REMARK                            x       y       z     vdW  Elec       q    Type
REMARK                         _______ _______ _______ _____ _____    ______ ____
ROOT
ATOM      1  C   UNL     1       2.026   7.031  19.772  0.00  0.00    +0.000 A 
ATOM      2  C   UNL     1       1.387   7.879  20.768  0.00  0.00    +0.000 A 
ATOM      3  C   UNL     1       1.014   9.131  20.480  0.00  0.00    +0.000 A 
ATOM      4  N   UNL     1       1.242   9.685  19.232  0.00  0.00    +0.000 N 
ATOM      5  C   UNL     1       1.896   8.967  18.227  0.00  0.00    +0.000 A 
ATOM      6  O   UNL     1       2.153   9.407  17.109  0.00  0.00    +0.000 OA
ATOM      7  C   UNL     1       2.278   7.568  18.561  0.00  0.00    +0.000 A 
ENDROOT
BRANCH   1  13
ATOM      8  N   UNL     1       4.540   3.158  18.434  0.00  0.00    +0.000 N 
ATOM      9  C   UNL     1       3.616   3.770  19.294  0.00  0.00    +0.000 A 
ATOM     10  N   UNL     1       3.230   3.035  20.347  0.00  0.00    +0.000 NA
ATOM     11  C   UNL     1       2.443   3.640  21.255  0.00  0.00    +0.000 A 
ATOM     12  C   UNL     1       2.020   4.943  21.153  0.00  0.00    +0.000 A 
ATOM     13  C   UNL     1       2.424   5.618  20.024  0.00  0.00    +0.000 A 
ATOM     14  N   UNL     1       3.208   5.036  19.097  0.00  0.00    +0.000 NA
ATOM     15  H   UNL     1       4.761   2.248  18.817  0.00  0.00    +0.000 HD
BRANCH   8  18
ATOM     16  C   UNL     1       6.378   4.705  15.799  0.00  0.00    +0.000 A 
ATOM     17  C   UNL     1       5.432   3.737  16.180  0.00  0.00    +0.000 A 
ATOM     18  C   UNL     1       5.340   3.810  17.553  0.00  0.00    +0.000 A 
ATOM     19  N   UNL     1       6.270   4.762  17.913  0.00  0.00    +0.000 N 
ATOM     20  C   UNL     1       6.625   5.229  19.232  0.00  0.00    +0.000 C 
ATOM     21  N   UNL     1       6.883   5.344  16.858  0.00  0.00    +0.000 NA
BRANCH  16  23
ATOM     22  C   UNL     1       6.334   3.971  13.427  0.00  0.00    +0.000 C 
ATOM     23  C   UNL     1       6.826   5.014  14.416  0.00  0.00    +0.000 C 
ENDBRANCH  16  23
ENDBRANCH   8  18
ENDBRANCH   1  13
BRANCH   4  24
ATOM     24  C   UNL     1       0.842  11.088  18.951  0.00  0.00    +0.000 C 
BRANCH  24  25
ATOM     25  C   UNL     1      -0.307  11.569  19.847  0.00  0.00    +0.000 A 
ATOM     26  C   UNL     1      -1.588  11.751  19.286  0.00  0.00    +0.000 A 
ATOM     27  C   UNL     1      -2.651  12.246  20.051  0.00  0.00    +0.000 A 
ATOM     28  C   UNL     1      -2.449  12.574  21.390  0.00  0.00    +0.000 A 
ATOM     29 CL   UNL     1      -3.755  13.200  22.319  0.00  0.00    +0.000 Cl
ATOM     30  C   UNL     1      -1.192  12.399  21.956  0.00  0.00    +0.000 A 
ATOM     31  F   UNL     1      -0.971  12.712  23.242  0.00  0.00    +0.000 F 
ATOM     32  C   UNL     1      -0.130  11.905  21.199  0.00  0.00    +0.000 A 
ENDBRANCH  24  25
BRANCH  24  33
ATOM     33  C   UNL     1       2.080  12.021  18.841  0.00  0.00    +0.000 C 
BRANCH  33  34
ATOM     34  O   UNL     1       2.455  12.325  17.495  0.00  0.00    +0.000 OA
ATOM     35  H   UNL     1       1.824  12.988  17.166  0.00  0.00    +0.000 HD
ENDBRANCH  33  34
ENDBRANCH  24  33
ENDBRANCH   4  24
TORSDOF 7
ENDMDL
MODEL 8
REMARK VINA RESULT:      -8.7      1.666      2.564
REMARK  Name = 
REMARK  9 active torsions:
REMARK  status: ('A' for Active; 'I' for Inactive)
REMARK    1  A    between atoms: C_1  and  C_2
REMARK    2  A    between atoms: C_2  and  C_3
REMARK    3  A    between atoms: C_5  and  N_6
REMARK    4  A    between atoms: C_11  and  C_12
REMARK    5  A    between atoms: N_15  and  C_16
REMARK    6  A    between atoms: C_16  and  C_17
REMARK    7  A    between atoms: C_16  and  C_19
REMARK    8  A    between atoms: C_17  and  O_18
REMARK    9  A    between atoms: N_31  and  C_32
REMARK                            x       y       z     vdW  Elec       q    Type
REMARK                         _______ _______ _______ _____ _____    ______ ____
ROOT
ATOM      1  C   UNL     1       1.749   6.993  20.047  0.00  0.00    +0.000 A 
ATOM      2  C   UNL     1       2.049   7.903  18.951  0.00  0.00    +0.000 A 
ATOM      3  C   UNL     1       1.570   9.152  18.932  0.00  0.00    +0.000 A 
ATOM      4  N   UNL     1       0.748   9.627  19.939  0.00  0.00    +0.000 N 
ATOM      5  C   UNL     1       0.361   8.811  21.005  0.00  0.00    +0.000 A 
ATOM      6  O   UNL     1      -0.387   9.161  21.915  0.00  0.00    +0.000 OA
ATOM      7  C   UNL     1       0.926   7.435  21.020  0.00  0.00    +0.000 A 
ENDROOT
BRANCH   1  13
ATOM      8  N   UNL     1       5.160   3.812  18.884  0.00  0.00    +0.000 N 
ATOM      9  C   UNL     1       3.934   4.110  19.498  0.00  0.00    +0.000 A 
ATOM     10  N   UNL     1       3.386   3.115  20.210  0.00  0.00    +0.000 NA
ATOM     11  C   UNL     1       2.278   3.409  20.913  0.00  0.00    +0.000 A 
ATOM     12  C   UNL     1       1.690   4.650  20.929  0.00  0.00    +0.000 A 
ATOM     13  C   UNL     1       2.287   5.608  20.141  0.00  0.00    +0.000 A 
ATOM     14  N   UNL     1       3.396   5.340  19.424  0.00  0.00    +0.000 NA
ATOM     15  H   UNL     1       5.409   2.864  19.137  0.00  0.00    +0.000 HD
BRANCH   8  18
ATOM     16  C   UNL     1       7.583   6.328  18.167  0.00  0.00    +0.000 A 
ATOM     17  C   UNL     1       6.690   5.768  19.097  0.00  0.00    +0.000 A 
ATOM     18  C   UNL     1       6.060   4.729  18.448  0.00  0.00    +0.000 A 
ATOM     19  N   UNL     1       6.563   4.767  17.165  0.00  0.00    +0.000 N 
ATOM     20  C   UNL     1       6.237   3.924  16.038  0.00  0.00    +0.000 C 
ATOM     21  N   UNL     1       7.518   5.707  16.986  0.00  0.00    +0.000 NA
BRANCH  16  23
ATOM     22  C   UNL     1       7.953   8.749  17.757  0.00  0.00    +0.000 C 
ATOM     23  C   UNL     1       8.496   7.479  18.392  0.00  0.00    +0.000 C 
ENDBRANCH  16  23
ENDBRANCH   8  18
ENDBRANCH   1  13
BRANCH   4  24
ATOM     24  C   UNL     1       0.209  11.010  19.875  0.00  0.00    +0.000 C 
BRANCH  24  25
ATOM     25  C   UNL     1      -1.214  11.068  19.306  0.00  0.00    +0.000 A 
ATOM     26  C   UNL     1      -1.557  10.234  18.222  0.00  0.00    +0.000 A 
ATOM     27  C   UNL     1      -2.825  10.296  17.631  0.00  0.00    +0.000 A 
ATOM     28  C   UNL     1      -3.770  11.200  18.110  0.00  0.00    +0.000 A 
ATOM     29 CL   UNL     1      -5.320  11.285  17.367  0.00  0.00    +0.000 Cl
ATOM     30  C   UNL     1      -3.447  12.028  19.179  0.00  0.00    +0.000 A 
ATOM     31  F   UNL     1      -4.339  12.910  19.655  0.00  0.00    +0.000 F 
ATOM     32  C   UNL     1      -2.186  11.969  19.773  0.00  0.00    +0.000 A 
ENDBRANCH  24  25
BRANCH  24  33
ATOM     33  C   UNL     1       0.462  11.779  21.203  0.00  0.00    +0.000 C 
BRANCH  33  34
ATOM     34  O   UNL     1       1.692  12.509  21.220  0.00  0.00    +0.000 OA
ATOM     35  H   UNL     1       2.273  12.104  20.553  0.00  0.00    +0.000 HD
ENDBRANCH  33  34
ENDBRANCH  24  33
ENDBRANCH   4  24
TORSDOF 7
ENDMDL
MODEL 9
REMARK VINA RESULT:      -8.7      1.585      1.875
REMARK  Name = 
REMARK  9 active torsions:
REMARK  status: ('A' for Active; 'I' for Inactive)
REMARK    1  A    between atoms: C_1  and  C_2
REMARK    2  A    between atoms: C_2  and  C_3
REMARK    3  A    between atoms: C_5  and  N_6
REMARK    4  A    between atoms: C_11  and  C_12
REMARK    5  A    between atoms: N_15  and  C_16
REMARK    6  A    between atoms: C_16  and  C_17
REMARK    7  A    between atoms: C_16  and  C_19
REMARK    8  A    between atoms: C_17  and  O_18
REMARK    9  A    between atoms: N_31  and  C_32
REMARK                            x       y       z     vdW  Elec       q    Type
REMARK                         _______ _______ _______ _____ _____    ______ ____
ROOT
ATOM      1  C   UNL     1       2.004   7.127  19.756  0.00  0.00    +0.000 A 
ATOM      2  C   UNL     1       1.371   7.986  20.746  0.00  0.00    +0.000 A 
ATOM      3  C   UNL     1       1.017   9.242  20.452  0.00  0.00    +0.000 A 
ATOM      4  N   UNL     1       1.260   9.790  19.204  0.00  0.00    +0.000 N 
ATOM      5  C   UNL     1       1.909   9.060  18.206  0.00  0.00    +0.000 A 
ATOM      6  O   UNL     1       2.179   9.494  17.088  0.00  0.00    +0.000 OA
ATOM      7  C   UNL     1       2.270   7.657  18.545  0.00  0.00    +0.000 A 
ENDROOT
BRANCH   1  13
ATOM      8  N   UNL     1       4.466   3.214  18.439  0.00  0.00    +0.000 N 
ATOM      9  C   UNL     1       3.548   3.841  19.294  0.00  0.00    +0.000 A 
ATOM     10  N   UNL     1       3.149   3.116  20.348  0.00  0.00    +0.000 NA
ATOM     11  C   UNL     1       2.368   3.735  21.252  0.00  0.00    +0.000 A 
ATOM     12  C   UNL     1       1.964   5.043  21.144  0.00  0.00    +0.000 A 
ATOM     13  C   UNL     1       2.381   5.709  20.014  0.00  0.00    +0.000 A 
ATOM     14  N   UNL     1       3.159   5.112  19.091  0.00  0.00    +0.000 NA
ATOM     15  H   UNL     1       4.673   2.301  18.826  0.00  0.00    +0.000 HD
BRANCH   8  18
ATOM     16  C   UNL     1       6.327   4.733  15.804  0.00  0.00    +0.000 A 
ATOM     17  C   UNL     1       5.356   3.791  16.183  0.00  0.00    +0.000 A 
ATOM     18  C   UNL     1       5.277   3.851  17.557  0.00  0.00    +0.000 A 
ATOM     19  N   UNL     1       6.239   4.770  17.920  0.00  0.00    +0.000 N 
ATOM     20  C   UNL     1       6.620   5.211  19.240  0.00  0.00    +0.000 C 
ATOM     21  N   UNL     1       6.860   5.345  16.866  0.00  0.00    +0.000 NA
BRANCH  16  23
ATOM     22  C   UNL     1       6.354   3.957  13.446  0.00  0.00    +0.000 C 
ATOM     23  C   UNL     1       6.772   5.045  14.421  0.00  0.00    +0.000 C 
ENDBRANCH  16  23
ENDBRANCH   8  18
ENDBRANCH   1  13
BRANCH   4  24
ATOM     24  C   UNL     1       0.880  11.197  18.918  0.00  0.00    +0.000 C 
BRANCH  24  25
ATOM     25  C   UNL     1      -0.256  11.702  19.816  0.00  0.00    +0.000 A 
ATOM     26  C   UNL     1       0.032  12.080  21.144  0.00  0.00    +0.000 A 
ATOM     27  C   UNL     1      -0.981  12.489  22.018  0.00  0.00    +0.000 A 
ATOM     28  C   UNL     1      -2.304  12.520  21.582  0.00  0.00    +0.000 A 
ATOM     29 CL   UNL     1      -3.548  13.005  22.667  0.00  0.00    +0.000 Cl
ATOM     30  C   UNL     1      -2.603  12.151  20.276  0.00  0.00    +0.000 A 
ATOM     31  F   UNL     1      -3.870  12.168  19.833  0.00  0.00    +0.000 F 
ATOM     32  C   UNL     1      -1.597  11.744  19.399  0.00  0.00    +0.000 A 
ENDBRANCH  24  25
BRANCH  24  33
ATOM     33  C   UNL     1       2.133  12.110  18.797  0.00  0.00    +0.000 C 
BRANCH  33  34
ATOM     34  O   UNL     1       2.508  12.399  17.448  0.00  0.00    +0.000 OA
ATOM     35  H   UNL     1       2.906  13.286  17.446  0.00  0.00    +0.000 HD
ENDBRANCH  33  34
ENDBRANCH  24  33
ENDBRANCH   4  24
TORSDOF 7
ENDMDL
