MODEL 1
REMARK VINA RESULT:      -7.3      0.000      0.000
REMARK  Name = 
REMARK  11 active torsions:
REMARK  status: ('A' for Active; 'I' for Inactive)
REMARK    1  A    between atoms: C_1  and  C_2
REMARK    2  A    between atoms: C_2  and  C_3
REMARK    3  A    between atoms: C_2  and  C_4
REMARK    4  A    between atoms: C_9  and  O_10
REMARK    5  A    between atoms: O_10  and  C_11
REMARK    6  A    between atoms: C_11  and  C_12
REMARK    7  A    between atoms: C_12  and  N_13
REMARK    8  A    between atoms: C_16  and  N_17
REMARK    9  A    between atoms: N_17  and  C_18
REMARK   10  A    between atoms: N_17  and  S_19
REMARK   11  A    between atoms: S_19  and  C_22
REMARK                            x       y       z     vdW  Elec       q    Type
REMARK                         _______ _______ _______ _____ _____    ______ ____
ROOT
ATOM      1  N   UNL     1       1.643   6.885  19.581  0.00  0.00    +0.000 NA
ATOM      2  C   UNL     1       2.578   6.213  18.666  0.00  0.00    +0.000 C 
ATOM      3  C   UNL     1       2.059   4.854  18.234  0.00  0.00    +0.000 C 
ATOM      4  C   UNL     1       1.839   3.930  19.420  0.00  0.00    +0.000 C 
ATOM      5  C   UNL     1       0.883   4.673  20.379  0.00  0.00    +0.000 C 
ATOM      6  C   UNL     1       1.407   6.062  20.774  0.00  0.00    +0.000 C 
ENDROOT
BRANCH   4   7
ATOM      7  N   UNL     1       3.121   3.465  20.117  0.00  0.00    +0.000 NA
ATOM      8  C   UNL     1       2.778   2.679  21.348  0.00  0.00    +0.000 C 
BRANCH   7   9
ATOM      9  S   UNL     1       4.284   2.613  19.126  0.00  0.00    +0.000 S 
ATOM     10  O   UNL     1       5.168   1.854  19.996  0.00  0.00    +0.000 OA
ATOM     11  O   UNL     1       3.564   1.970  18.050  0.00  0.00    +0.000 OA
BRANCH   9  12
ATOM     12  C   UNL     1       5.322   3.897  18.432  0.00  0.00    +0.000 A 
ATOM     13  C   UNL     1       5.433   3.997  17.037  0.00  0.00    +0.000 A 
ATOM     14  C   UNL     1       6.247   4.986  16.475  0.00  0.00    +0.000 A 
ATOM     15  C   UNL     1       6.927   5.871  17.305  0.00  0.00    +0.000 A 
ATOM     16  F   UNL     1       7.728   6.801  16.766  0.00  0.00    +0.000 F 
ATOM     17  C   UNL     1       6.785   5.812  18.689  0.00  0.00    +0.000 A 
ATOM     18  C   UNL     1       5.960   4.834  19.257  0.00  0.00    +0.000 A 
ENDBRANCH   9  12
ENDBRANCH   7   9
ENDBRANCH   4   7
BRANCH   1  19
ATOM     19  C   UNL     1       2.113   8.254  19.919  0.00  0.00    +0.000 C 
BRANCH  19  20
ATOM     20  C   UNL     1       0.895   9.173  20.135  0.00  0.00    +0.000 C 
BRANCH  20  21
ATOM     21  O   UNL     1       0.376   9.783  18.971  0.00  0.00    +0.000 OA
BRANCH  21  27
ATOM     22  C   UNL     1      -1.845  10.935  18.502  0.00  0.00    +0.000 A 
ATOM     23  C   UNL     1      -2.693  11.950  19.015  0.00  0.00    +0.000 A 
ATOM     24  C   UNL     1      -2.344  12.733  20.115  0.00  0.00    +0.000 A 
ATOM     25  C   UNL     1      -1.118  12.543  20.728  0.00  0.00    +0.000 A 
ATOM     26  C   UNL     1      -0.261  11.556  20.254  0.00  0.00    +0.000 A 
ATOM     27  C   UNL     1      -0.612  10.725  19.173  0.00  0.00    +0.000 A 
BRANCH  22  29
ATOM     28  C   UNL     1      -3.643   9.376  17.627  0.00  0.00    +0.000 C 
ATOM     29  C   UNL     1      -2.382  10.184  17.282  0.00  0.00    +0.000 C 
ATOM     30  C   UNL     1      -2.627  11.087  16.067  0.00  0.00    +0.000 C 
ENDBRANCH  22  29
ENDBRANCH  21  27
ENDBRANCH  20  21
ENDBRANCH  19  20
ENDBRANCH   1  19
TORSDOF 8
ENDMDL
MODEL 2
REMARK VINA RESULT:      -7.3      0.687      2.062
REMARK  Name = 
REMARK  11 active torsions:
REMARK  status: ('A' for Active; 'I' for Inactive)
REMARK    1  A    between atoms: C_1  and  C_2
REMARK    2  A    between atoms: C_2  and  C_3
REMARK    3  A    between atoms: C_2  and  C_4
REMARK    4  A    between atoms: C_9  and  O_10
REMARK    5  A    between atoms: O_10  and  C_11
REMARK    6  A    between atoms: C_11  and  C_12
REMARK    7  A    between atoms: C_12  and  N_13
REMARK    8  A    between atoms: C_16  and  N_17
REMARK    9  A    between atoms: N_17  and  C_18
REMARK   10  A    between atoms: N_17  and  S_19
REMARK   11  A    between atoms: S_19  and  C_22
REMARK                            x       y       z     vdW  Elec       q    Type
REMARK                         _______ _______ _______ _____ _____    ______ ____
ROOT
ATOM      1  N   UNL     1       1.686   6.918  19.242  0.00  0.00    +0.000 NA
ATOM      2  C   UNL     1       2.535   6.088  18.375  0.00  0.00    +0.000 C 
ATOM      3  C   UNL     1       1.938   4.708  18.163  0.00  0.00    +0.000 C 
ATOM      4  C   UNL     1       1.759   3.963  19.476  0.00  0.00    +0.000 C 
ATOM      5  C   UNL     1       0.895   4.872  20.378  0.00  0.00    +0.000 C 
ATOM      6  C   UNL     1       1.495   6.275  20.547  0.00  0.00    +0.000 C 
ENDROOT
BRANCH   4   7
ATOM      7  N   UNL     1       3.064   3.537  20.154  0.00  0.00    +0.000 NA
ATOM      8  C   UNL     1       2.763   2.803  21.428  0.00  0.00    +0.000 C 
BRANCH   7   9
ATOM      9  S   UNL     1       4.205   2.651  19.168  0.00  0.00    +0.000 S 
ATOM     10  O   UNL     1       5.086   1.895  20.043  0.00  0.00    +0.000 OA
ATOM     11  O   UNL     1       3.466   1.999  18.111  0.00  0.00    +0.000 OA
BRANCH   9  12
ATOM     12  C   UNL     1       5.254   3.908  18.441  0.00  0.00    +0.000 A 
ATOM     13  C   UNL     1       5.339   3.993  17.044  0.00  0.00    +0.000 A 
ATOM     14  C   UNL     1       6.161   4.961  16.456  0.00  0.00    +0.000 A 
ATOM     15  C   UNL     1       6.876   5.839  17.264  0.00  0.00    +0.000 A 
ATOM     16  F   UNL     1       7.684   6.747  16.701  0.00  0.00    +0.000 F 
ATOM     17  C   UNL     1       6.761   5.795  18.652  0.00  0.00    +0.000 A 
ATOM     18  C   UNL     1       5.928   4.839  19.244  0.00  0.00    +0.000 A 
ENDBRANCH   9  12
ENDBRANCH   7   9
ENDBRANCH   4   7
BRANCH   1  19
ATOM     19  C   UNL     1       2.227   8.298  19.361  0.00  0.00    +0.000 C 
BRANCH  19  20
ATOM     20  C   UNL     1       1.338   9.267  18.559  0.00  0.00    +0.000 C 
BRANCH  20  21
ATOM     21  O   UNL     1       0.676  10.258  19.318  0.00  0.00    +0.000 OA
BRANCH  21  27
ATOM     22  C   UNL     1      -1.536  11.514  19.425  0.00  0.00    +0.000 A 
ATOM     23  C   UNL     1      -2.742  11.692  18.700  0.00  0.00    +0.000 A 
ATOM     24  C   UNL     1      -3.024  10.986  17.531  0.00  0.00    +0.000 A 
ATOM     25  C   UNL     1      -2.114  10.056  17.056  0.00  0.00    +0.000 A 
ATOM     26  C   UNL     1      -0.920   9.857  17.741  0.00  0.00    +0.000 A 
ATOM     27  C   UNL     1      -0.596  10.590  18.898  0.00  0.00    +0.000 A 
BRANCH  22  29
ATOM     28  C   UNL     1      -2.586  13.322  20.859  0.00  0.00    +0.000 C 
ATOM     29  C   UNL     1      -1.400  12.360  20.693  0.00  0.00    +0.000 C 
ATOM     30  C   UNL     1      -1.190  11.528  21.964  0.00  0.00    +0.000 C 
ENDBRANCH  22  29
ENDBRANCH  21  27
ENDBRANCH  20  21
ENDBRANCH  19  20
ENDBRANCH   1  19
TORSDOF 8
ENDMDL
MODEL 3
REMARK VINA RESULT:      -7.2      1.071      1.792
REMARK  Name = 
REMARK  11 active torsions:
REMARK  status: ('A' for Active; 'I' for Inactive)
REMARK    1  A    between atoms: C_1  and  C_2
REMARK    2  A    between atoms: C_2  and  C_3
REMARK    3  A    between atoms: C_2  and  C_4
REMARK    4  A    between atoms: C_9  and  O_10
REMARK    5  A    between atoms: O_10  and  C_11
REMARK    6  A    between atoms: C_11  and  C_12
REMARK    7  A    between atoms: C_12  and  N_13
REMARK    8  A    between atoms: C_16  and  N_17
REMARK    9  A    between atoms: N_17  and  C_18
REMARK   10  A    between atoms: N_17  and  S_19
REMARK   11  A    between atoms: S_19  and  C_22
REMARK                            x       y       z     vdW  Elec       q    Type
REMARK                         _______ _______ _______ _____ _____    ______ ____
ROOT
ATOM      1  N   UNL     1       1.541   7.066  20.077  0.00  0.00    +0.000 NA
ATOM      2  C   UNL     1       2.627   6.659  19.172  0.00  0.00    +0.000 C 
ATOM      3  C   UNL     1       2.265   5.410  18.390  0.00  0.00    +0.000 C 
ATOM      4  C   UNL     1       1.971   4.235  19.308  0.00  0.00    +0.000 C 
ATOM      5  C   UNL     1       0.855   4.701  20.268  0.00  0.00    +0.000 C 
ATOM      6  C   UNL     1       1.223   5.987  21.020  0.00  0.00    +0.000 C 
ENDROOT
BRANCH   4   7
ATOM      7  N   UNL     1       3.190   3.683  20.054  0.00  0.00    +0.000 NA
ATOM      8  C   UNL     1       2.744   2.851  21.220  0.00  0.00    +0.000 C 
BRANCH   7   9
ATOM      9  S   UNL     1       4.378   2.835  19.090  0.00  0.00    +0.000 S 
ATOM     10  O   UNL     1       5.243   2.077  19.980  0.00  0.00    +0.000 OA
ATOM     11  O   UNL     1       3.686   2.192  17.996  0.00  0.00    +0.000 OA
BRANCH   9  12
ATOM     12  C   UNL     1       5.429   4.123  18.422  0.00  0.00    +0.000 A 
ATOM     13  C   UNL     1       6.170   4.919  19.309  0.00  0.00    +0.000 A 
ATOM     14  C   UNL     1       6.989   5.936  18.808  0.00  0.00    +0.000 A 
ATOM     15  C   UNL     1       7.072   6.141  17.435  0.00  0.00    +0.000 A 
ATOM     16  F   UNL     1       7.836   7.133  16.958  0.00  0.00    +0.000 F 
ATOM     17  C   UNL     1       6.379   5.324  16.544  0.00  0.00    +0.000 A 
ATOM     18  C   UNL     1       5.570   4.295  17.038  0.00  0.00    +0.000 A 
ENDBRANCH   9  12
ENDBRANCH   7   9
ENDBRANCH   4   7
BRANCH   1  19
ATOM     19  C   UNL     1       1.864   8.345  20.762  0.00  0.00    +0.000 C 
BRANCH  19  20
ATOM     20  C   UNL     1       0.559   9.099  21.078  0.00  0.00    +0.000 C 
BRANCH  20  21
ATOM     21  O   UNL     1       0.453  10.396  20.525  0.00  0.00    +0.000 OA
BRANCH  21  27
ATOM     22  C   UNL     1      -1.548  11.952  20.295  0.00  0.00    +0.000 A 
ATOM     23  C   UNL     1      -2.566  12.565  21.070  0.00  0.00    +0.000 A 
ATOM     24  C   UNL     1      -2.632  12.434  22.457  0.00  0.00    +0.000 A 
ATOM     25  C   UNL     1      -1.665  11.701  23.123  0.00  0.00    +0.000 A 
ATOM     26  C   UNL     1      -0.653  11.084  22.395  0.00  0.00    +0.000 A 
ATOM     27  C   UNL     1      -0.591  11.167  20.991  0.00  0.00    +0.000 A 
BRANCH  22  29
ATOM     28  C   UNL     1      -0.495  13.151  18.324  0.00  0.00    +0.000 C 
ATOM     29  C   UNL     1      -1.620  12.213  18.789  0.00  0.00    +0.000 C 
ATOM     30  C   UNL     1      -1.645  10.932  17.947  0.00  0.00    +0.000 C 
ENDBRANCH  22  29
ENDBRANCH  21  27
ENDBRANCH  20  21
ENDBRANCH  19  20
ENDBRANCH   1  19
TORSDOF 8
ENDMDL
MODEL 4
REMARK VINA RESULT:      -7.1      1.718      2.378
REMARK  Name = 
REMARK  11 active torsions:
REMARK  status: ('A' for Active; 'I' for Inactive)
REMARK    1  A    between atoms: C_1  and  C_2
REMARK    2  A    between atoms: C_2  and  C_3
REMARK    3  A    between atoms: C_2  and  C_4
REMARK    4  A    between atoms: C_9  and  O_10
REMARK    5  A    between atoms: O_10  and  C_11
REMARK    6  A    between atoms: C_11  and  C_12
REMARK    7  A    between atoms: C_12  and  N_13
REMARK    8  A    between atoms: C_16  and  N_17
REMARK    9  A    between atoms: N_17  and  C_18
REMARK   10  A    between atoms: N_17  and  S_19
REMARK   11  A    between atoms: S_19  and  C_22
REMARK                            x       y       z     vdW  Elec       q    Type
REMARK                         _______ _______ _______ _____ _____    ______ ____
ROOT
ATOM      1  N   UNL     1       1.709   6.829  19.011  0.00  0.00    +0.000 NA
ATOM      2  C   UNL     1       2.520   5.919  18.189  0.00  0.00    +0.000 C 
ATOM      3  C   UNL     1       1.901   4.535  18.109  0.00  0.00    +0.000 C 
ATOM      4  C   UNL     1       1.757   3.901  19.483  0.00  0.00    +0.000 C 
ATOM      5  C   UNL     1       0.932   4.892  20.334  0.00  0.00    +0.000 C 
ATOM      6  C   UNL     1       1.553   6.296  20.370  0.00  0.00    +0.000 C 
ENDROOT
BRANCH   4   7
ATOM      7  N   UNL     1       3.078   3.514  20.153  0.00  0.00    +0.000 NA
ATOM      8  C   UNL     1       2.807   2.810  21.450  0.00  0.00    +0.000 C 
BRANCH   7   9
ATOM      9  S   UNL     1       4.218   2.620  19.174  0.00  0.00    +0.000 S 
ATOM     10  O   UNL     1       5.106   1.878  20.055  0.00  0.00    +0.000 OA
ATOM     11  O   UNL     1       3.478   1.951  18.128  0.00  0.00    +0.000 OA
BRANCH   9  12
ATOM     12  C   UNL     1       5.260   3.871  18.427  0.00  0.00    +0.000 A 
ATOM     13  C   UNL     1       5.934   4.775  19.260  0.00  0.00    +0.000 A 
ATOM     14  C   UNL     1       6.745   5.766  18.696  0.00  0.00    +0.000 A 
ATOM     15  C   UNL     1       6.885   5.837  17.314  0.00  0.00    +0.000 A 
ATOM     16  F   UNL     1       7.639   6.804  16.773  0.00  0.00    +0.000 F 
ATOM     17  C   UNL     1       6.259   4.913  16.480  0.00  0.00    +0.000 A 
ATOM     18  C   UNL     1       5.460   3.910  17.039  0.00  0.00    +0.000 A 
ENDBRANCH   9  12
ENDBRANCH   7   9
ENDBRANCH   4   7
BRANCH   1  19
ATOM     19  C   UNL     1       2.269   8.206  19.001  0.00  0.00    +0.000 C 
BRANCH  19  20
ATOM     20  C   UNL     1       1.120   9.225  19.118  0.00  0.00    +0.000 C 
BRANCH  20  21
ATOM     21  O   UNL     1       1.400  10.374  19.893  0.00  0.00    +0.000 OA
BRANCH  21  27
ATOM     22  C   UNL     1      -0.464  11.645  21.072  0.00  0.00    +0.000 A 
ATOM     23  C   UNL     1      -1.279  11.587  22.231  0.00  0.00    +0.000 A 
ATOM     24  C   UNL     1      -1.125  10.602  23.206  0.00  0.00    +0.000 A 
ATOM     25  C   UNL     1      -0.130   9.650  23.067  0.00  0.00    +0.000 A 
ATOM     26  C   UNL     1       0.687   9.675  21.941  0.00  0.00    +0.000 A 
ATOM     27  C   UNL     1       0.521  10.633  20.924  0.00  0.00    +0.000 A 
BRANCH  22  29
ATOM     28  C   UNL     1      -2.060  13.530  20.498  0.00  0.00    +0.000 C 
ATOM     29  C   UNL     1      -0.763  12.801  20.115  0.00  0.00    +0.000 C 
ATOM     30  C   UNL     1       0.398  13.793  19.972  0.00  0.00    +0.000 C 
ENDBRANCH  22  29
ENDBRANCH  21  27
ENDBRANCH  20  21
ENDBRANCH  19  20
ENDBRANCH   1  19
TORSDOF 8
ENDMDL
MODEL 5
REMARK VINA RESULT:      -7.1      2.489      3.113
REMARK  Name = 
REMARK  11 active torsions:
REMARK  status: ('A' for Active; 'I' for Inactive)
REMARK    1  A    between atoms: C_1  and  C_2
REMARK    2  A    between atoms: C_2  and  C_3
REMARK    3  A    between atoms: C_2  and  C_4
REMARK    4  A    between atoms: C_9  and  O_10
REMARK    5  A    between atoms: O_10  and  C_11
REMARK    6  A    between atoms: C_11  and  C_12
REMARK    7  A    between atoms: C_12  and  N_13
REMARK    8  A    between atoms: C_16  and  N_17
REMARK    9  A    between atoms: N_17  and  C_18
REMARK   10  A    between atoms: N_17  and  S_19
REMARK   11  A    between atoms: S_19  and  C_22
REMARK                            x       y       z     vdW  Elec       q    Type
REMARK                         _______ _______ _______ _____ _____    ______ ____
ROOT
ATOM      1  N   UNL     1       2.301   7.315  18.398  0.00  0.00    +0.000 NA
ATOM      2  C   UNL     1       3.568   7.789  17.822  0.00  0.00    +0.000 C 
ATOM      3  C   UNL     1       4.066   6.863  16.727  0.00  0.00    +0.000 C 
ATOM      4  C   UNL     1       4.298   5.453  17.243  0.00  0.00    +0.000 C 
ATOM      5  C   UNL     1       2.965   4.994  17.872  0.00  0.00    +0.000 C 
ATOM      6  C   UNL     1       2.457   5.963  18.950  0.00  0.00    +0.000 C 
ENDROOT
BRANCH   4   7
ATOM      7  N   UNL     1       5.480   5.309  18.206  0.00  0.00    +0.000 NA
ATOM      8  C   UNL     1       5.284   4.105  19.080  0.00  0.00    +0.000 C 
BRANCH   7   9
ATOM      9  S   UNL     1       7.077   5.320  17.493  0.00  0.00    +0.000 S 
ATOM     10  O   UNL     1       7.525   6.699  17.380  0.00  0.00    +0.000 OA
ATOM     11  O   UNL     1       7.877   4.331  18.178  0.00  0.00    +0.000 OA
BRANCH   9  12
ATOM     12  C   UNL     1       6.827   4.783  15.802  0.00  0.00    +0.000 A 
ATOM     13  C   UNL     1       7.587   5.378  14.785  0.00  0.00    +0.000 A 
ATOM     14  C   UNL     1       7.400   4.980  13.456  0.00  0.00    +0.000 A 
ATOM     15  C   UNL     1       6.472   3.988  13.159  0.00  0.00    +0.000 A 
ATOM     16  F   UNL     1       6.273   3.628  11.884  0.00  0.00    +0.000 F 
ATOM     17  C   UNL     1       5.747   3.357  14.168  0.00  0.00    +0.000 A 
ATOM     18  C   UNL     1       5.941   3.740  15.500  0.00  0.00    +0.000 A 
ENDBRANCH   9  12
ENDBRANCH   7   9
ENDBRANCH   4   7
BRANCH   1  19
ATOM     19  C   UNL     1       1.772   8.279  19.398  0.00  0.00    +0.000 C 
BRANCH  19  20
ATOM     20  C   UNL     1       1.503   9.632  18.711  0.00  0.00    +0.000 C 
BRANCH  20  21
ATOM     21  O   UNL     1       0.263   9.741  18.041  0.00  0.00    +0.000 OA
BRANCH  21  27
ATOM     22  C   UNL     1      -2.003  10.849  18.375  0.00  0.00    +0.000 A 
ATOM     23  C   UNL     1      -2.618  11.918  19.076  0.00  0.00    +0.000 A 
ATOM     24  C   UNL     1      -1.893  12.814  19.862  0.00  0.00    +0.000 A 
ATOM     25  C   UNL     1      -0.518  12.684  19.956  0.00  0.00    +0.000 A 
ATOM     26  C   UNL     1       0.119  11.645  19.283  0.00  0.00    +0.000 A 
ATOM     27  C   UNL     1      -0.599  10.705  18.520  0.00  0.00    +0.000 A 
BRANCH  22  29
ATOM     28  C   UNL     1      -4.416  10.392  17.741  0.00  0.00    +0.000 C 
ATOM     29  C   UNL     1      -2.949   9.973  17.551  0.00  0.00    +0.000 C 
ATOM     30  C   UNL     1      -2.587   9.916  16.061  0.00  0.00    +0.000 C 
ENDBRANCH  22  29
ENDBRANCH  21  27
ENDBRANCH  20  21
ENDBRANCH  19  20
ENDBRANCH   1  19
TORSDOF 8
ENDMDL
MODEL 6
REMARK VINA RESULT:      -7.0      1.123      1.793
REMARK  Name = 
REMARK  11 active torsions:
REMARK  status: ('A' for Active; 'I' for Inactive)
REMARK    1  A    between atoms: C_1  and  C_2
REMARK    2  A    between atoms: C_2  and  C_3
REMARK    3  A    between atoms: C_2  and  C_4
REMARK    4  A    between atoms: C_9  and  O_10
REMARK    5  A    between atoms: O_10  and  C_11
REMARK    6  A    between atoms: C_11  and  C_12
REMARK    7  A    between atoms: C_12  and  N_13
REMARK    8  A    between atoms: C_16  and  N_17
REMARK    9  A    between atoms: N_17  and  C_18
REMARK   10  A    between atoms: N_17  and  S_19
REMARK   11  A    between atoms: S_19  and  C_22
REMARK                            x       y       z     vdW  Elec       q    Type
REMARK                         _______ _______ _______ _____ _____    ______ ____
ROOT
ATOM      1  N   UNL     1       1.831   6.942  19.080  0.00  0.00    +0.000 NA
ATOM      2  C   UNL     1       2.514   5.965  18.219  0.00  0.00    +0.000 C 
ATOM      3  C   UNL     1       1.785   4.633  18.198  0.00  0.00    +0.000 C 
ATOM      4  C   UNL     1       1.682   4.024  19.586  0.00  0.00    +0.000 C 
ATOM      5  C   UNL     1       0.994   5.083  20.475  0.00  0.00    +0.000 C 
ATOM      6  C   UNL     1       1.722   6.435  20.453  0.00  0.00    +0.000 C 
ENDROOT
BRANCH   4   7
ATOM      7  N   UNL     1       3.010   3.540  20.175  0.00  0.00    +0.000 NA
ATOM      8  C   UNL     1       2.763   2.804  21.459  0.00  0.00    +0.000 C 
BRANCH   7   9
ATOM      9  S   UNL     1       4.049   2.622  19.109  0.00  0.00    +0.000 S 
ATOM     10  O   UNL     1       4.925   1.789  19.918  0.00  0.00    +0.000 OA
ATOM     11  O   UNL     1       3.223   2.047  18.071  0.00  0.00    +0.000 OA
BRANCH   9  12
ATOM     12  C   UNL     1       5.135   3.838  18.368  0.00  0.00    +0.000 A 
ATOM     13  C   UNL     1       5.282   3.853  16.973  0.00  0.00    +0.000 A 
ATOM     14  C   UNL     1       6.134   4.788  16.376  0.00  0.00    +0.000 A 
ATOM     15  C   UNL     1       6.816   5.704  17.169  0.00  0.00    +0.000 A 
ATOM     16  F   UNL     1       7.653   6.581  16.598  0.00  0.00    +0.000 F 
ATOM     17  C   UNL     1       6.639   5.729  18.551  0.00  0.00    +0.000 A 
ATOM     18  C   UNL     1       5.777   4.806  19.153  0.00  0.00    +0.000 A 
ENDBRANCH   9  12
ENDBRANCH   7   9
ENDBRANCH   4   7
BRANCH   1  19
ATOM     19  C   UNL     1       2.494   8.271  19.015  0.00  0.00    +0.000 C 
BRANCH  19  20
ATOM     20  C   UNL     1       1.423   9.378  19.036  0.00  0.00    +0.000 C 
BRANCH  20  21
ATOM     21  O   UNL     1       0.189   9.023  19.627  0.00  0.00    +0.000 OA
BRANCH  21  27
ATOM     22  C   UNL     1      -0.903  11.122  20.565  0.00  0.00    +0.000 A 
ATOM     23  C   UNL     1      -1.328  11.692  21.793  0.00  0.00    +0.000 A 
ATOM     24  C   UNL     1      -1.118  11.067  23.022  0.00  0.00    +0.000 A 
ATOM     25  C   UNL     1      -0.452   9.855  23.068  0.00  0.00    +0.000 A 
ATOM     26  C   UNL     1      -0.022   9.265  21.883  0.00  0.00    +0.000 A 
ATOM     27  C   UNL     1      -0.261   9.858  20.629  0.00  0.00    +0.000 A 
BRANCH  22  29
ATOM     28  C   UNL     1       0.068  12.611  18.757  0.00  0.00    +0.000 C 
ATOM     29  C   UNL     1      -1.203  11.953  19.316  0.00  0.00    +0.000 C 
ATOM     30  C   UNL     1      -1.936  11.167  18.221  0.00  0.00    +0.000 C 
ENDBRANCH  22  29
ENDBRANCH  21  27
ENDBRANCH  20  21
ENDBRANCH  19  20
ENDBRANCH   1  19
TORSDOF 8
ENDMDL
MODEL 7
REMARK VINA RESULT:      -7.0      1.200      2.244
REMARK  Name = 
REMARK  11 active torsions:
REMARK  status: ('A' for Active; 'I' for Inactive)
REMARK    1  A    between atoms: C_1  and  C_2
REMARK    2  A    between atoms: C_2  and  C_3
REMARK    3  A    between atoms: C_2  and  C_4
REMARK    4  A    between atoms: C_9  and  O_10
REMARK    5  A    between atoms: O_10  and  C_11
REMARK    6  A    between atoms: C_11  and  C_12
REMARK    7  A    between atoms: C_12  and  N_13
REMARK    8  A    between atoms: C_16  and  N_17
REMARK    9  A    between atoms: N_17  and  C_18
REMARK   10  A    between atoms: N_17  and  S_19
REMARK   11  A    between atoms: S_19  and  C_22
REMARK                            x       y       z     vdW  Elec       q    Type
REMARK                         _______ _______ _______ _____ _____    ______ ____
ROOT
ATOM      1  N   UNL     1       1.588   7.061  20.077  0.00  0.00    +0.000 NA
ATOM      2  C   UNL     1       2.656   6.632  19.162  0.00  0.00    +0.000 C 
ATOM      3  C   UNL     1       2.267   5.381  18.395  0.00  0.00    +0.000 C 
ATOM      4  C   UNL     1       1.970   4.218  19.327  0.00  0.00    +0.000 C 
ATOM      5  C   UNL     1       0.872   4.707  20.297  0.00  0.00    +0.000 C 
ATOM      6  C   UNL     1       1.268   5.994  21.034  0.00  0.00    +0.000 C 
ENDROOT
BRANCH   4   7
ATOM      7  N   UNL     1       3.191   3.656  20.061  0.00  0.00    +0.000 NA
ATOM      8  C   UNL     1       2.749   2.814  21.221  0.00  0.00    +0.000 C 
BRANCH   7   9
ATOM      9  S   UNL     1       4.372   2.815  19.082  0.00  0.00    +0.000 S 
ATOM     10  O   UNL     1       5.241   2.047  19.961  0.00  0.00    +0.000 OA
ATOM     11  O   UNL     1       3.673   2.183  17.987  0.00  0.00    +0.000 OA
BRANCH   9  12
ATOM     12  C   UNL     1       5.422   4.107  18.422  0.00  0.00    +0.000 A 
ATOM     13  C   UNL     1       5.486   4.282  17.031  0.00  0.00    +0.000 A 
ATOM     14  C   UNL     1       6.308   5.279  16.495  0.00  0.00    +0.000 A 
ATOM     15  C   UNL     1       7.044   6.096  17.345  0.00  0.00    +0.000 A 
ATOM     16  F   UNL     1       7.852   7.032  16.829  0.00  0.00    +0.000 F 
ATOM     17  C   UNL     1       6.950   5.963  18.729  0.00  0.00    +0.000 A 
ATOM     18  C   UNL     1       6.118   4.978  19.272  0.00  0.00    +0.000 A 
ENDBRANCH   9  12
ENDBRANCH   7   9
ENDBRANCH   4   7
BRANCH   1  19
ATOM     19  C   UNL     1       1.937   8.341  20.748  0.00  0.00    +0.000 C 
BRANCH  19  20
ATOM     20  C   UNL     1       0.684   9.234  20.829  0.00  0.00    +0.000 C 
BRANCH  20  21
ATOM     21  O   UNL     1       0.883  10.596  20.508  0.00  0.00    +0.000 OA
BRANCH  21  27
ATOM     22  C   UNL     1      -0.124  12.458  19.095  0.00  0.00    +0.000 A 
ATOM     23  C   UNL     1      -1.098  12.677  18.086  0.00  0.00    +0.000 A 
ATOM     24  C   UNL     1      -1.925  11.659  17.611  0.00  0.00    +0.000 A 
ATOM     25  C   UNL     1      -1.822  10.387  18.146  0.00  0.00    +0.000 A 
ATOM     26  C   UNL     1      -0.877  10.135  19.135  0.00  0.00    +0.000 A 
ATOM     27  C   UNL     1      -0.003  11.137  19.599  0.00  0.00    +0.000 A 
BRANCH  22  29
ATOM     28  C   UNL     1       2.183  13.504  19.216  0.00  0.00    +0.000 C 
ATOM     29  C   UNL     1       0.685  13.690  19.506  0.00  0.00    +0.000 C 
ATOM     30  C   UNL     1       0.168  14.995  18.888  0.00  0.00    +0.000 C 
ENDBRANCH  22  29
ENDBRANCH  21  27
ENDBRANCH  20  21
ENDBRANCH  19  20
ENDBRANCH   1  19
TORSDOF 8
ENDMDL
MODEL 8
REMARK VINA RESULT:      -7.0      0.670      2.297
REMARK  Name = 
REMARK  11 active torsions:
REMARK  status: ('A' for Active; 'I' for Inactive)
REMARK    1  A    between atoms: C_1  and  C_2
REMARK    2  A    between atoms: C_2  and  C_3
REMARK    3  A    between atoms: C_2  and  C_4
REMARK    4  A    between atoms: C_9  and  O_10
REMARK    5  A    between atoms: O_10  and  C_11
REMARK    6  A    between atoms: C_11  and  C_12
REMARK    7  A    between atoms: C_12  and  N_13
REMARK    8  A    between atoms: C_16  and  N_17
REMARK    9  A    between atoms: N_17  and  C_18
REMARK   10  A    between atoms: N_17  and  S_19
REMARK   11  A    between atoms: S_19  and  C_22
REMARK                            x       y       z     vdW  Elec       q    Type
REMARK                         _______ _______ _______ _____ _____    ______ ____
ROOT
ATOM      1  N   UNL     1       1.719   6.874  18.945  0.00  0.00    +0.000 NA
ATOM      2  C   UNL     1       2.507   5.928  18.141  0.00  0.00    +0.000 C 
ATOM      3  C   UNL     1       1.867   4.552  18.108  0.00  0.00    +0.000 C 
ATOM      4  C   UNL     1       1.728   3.961  19.501  0.00  0.00    +0.000 C 
ATOM      5  C   UNL     1       0.927   4.988  20.331  0.00  0.00    +0.000 C 
ATOM      6  C   UNL     1       1.569   6.383  20.321  0.00  0.00    +0.000 C 
ENDROOT
BRANCH   4   7
ATOM      7  N   UNL     1       3.050   3.572  20.168  0.00  0.00    +0.000 NA
ATOM      8  C   UNL     1       2.782   2.886  21.475  0.00  0.00    +0.000 C 
BRANCH   7   9
ATOM      9  S   UNL     1       4.179   2.659  19.193  0.00  0.00    +0.000 S 
ATOM     10  O   UNL     1       5.057   1.910  20.078  0.00  0.00    +0.000 OA
ATOM     11  O   UNL     1       3.430   1.996  18.150  0.00  0.00    +0.000 OA
BRANCH   9  12
ATOM     12  C   UNL     1       5.237   3.893  18.441  0.00  0.00    +0.000 A 
ATOM     13  C   UNL     1       5.903   4.809  19.268  0.00  0.00    +0.000 A 
ATOM     14  C   UNL     1       6.726   5.786  18.700  0.00  0.00    +0.000 A 
ATOM     15  C   UNL     1       6.887   5.833  17.319  0.00  0.00    +0.000 A 
ATOM     16  F   UNL     1       7.654   6.788  16.774  0.00  0.00    +0.000 F 
ATOM     17  C   UNL     1       6.269   4.898  16.492  0.00  0.00    +0.000 A 
ATOM     18  C   UNL     1       5.457   3.908  17.056  0.00  0.00    +0.000 A 
ENDBRANCH   9  12
ENDBRANCH   7   9
ENDBRANCH   4   7
BRANCH   1  19
ATOM     19  C   UNL     1       2.300   8.241  18.889  0.00  0.00    +0.000 C 
BRANCH  19  20
ATOM     20  C   UNL     1       1.198   9.276  19.185  0.00  0.00    +0.000 C 
BRANCH  20  21
ATOM     21  O   UNL     1       0.552   9.822  18.053  0.00  0.00    +0.000 OA
BRANCH  21  27
ATOM     22  C   UNL     1      -1.048  11.433  19.202  0.00  0.00    +0.000 A 
ATOM     23  C   UNL     1      -2.386  11.901  19.133  0.00  0.00    +0.000 A 
ATOM     24  C   UNL     1      -3.313  11.386  18.226  0.00  0.00    +0.000 A 
ATOM     25  C   UNL     1      -2.938  10.365  17.370  0.00  0.00    +0.000 A 
ATOM     26  C   UNL     1      -1.633   9.884  17.409  0.00  0.00    +0.000 A 
ATOM     27  C   UNL     1      -0.671  10.418  18.285  0.00  0.00    +0.000 A 
BRANCH  22  29
ATOM     28  C   UNL     1       0.716  13.197  19.657  0.00  0.00    +0.000 C 
ATOM     29  C   UNL     1      -0.173  12.101  20.265  0.00  0.00    +0.000 C 
ATOM     30  C   UNL     1      -0.968  12.644  21.459  0.00  0.00    +0.000 C 
ENDBRANCH  22  29
ENDBRANCH  21  27
ENDBRANCH  20  21
ENDBRANCH  19  20
ENDBRANCH   1  19
TORSDOF 8
ENDMDL
MODEL 9
REMARK VINA RESULT:      -7.0      5.193      8.314
REMARK  Name = 
REMARK  11 active torsions:
REMARK  status: ('A' for Active; 'I' for Inactive)
REMARK    1  A    between atoms: C_1  and  C_2
REMARK    2  A    between atoms: C_2  and  C_3
REMARK    3  A    between atoms: C_2  and  C_4
REMARK    4  A    between atoms: C_9  and  O_10
REMARK    5  A    between atoms: O_10  and  C_11
REMARK    6  A    between atoms: C_11  and  C_12
REMARK    7  A    between atoms: C_12  and  N_13
REMARK    8  A    between atoms: C_16  and  N_17
REMARK    9  A    between atoms: N_17  and  C_18
REMARK   10  A    between atoms: N_17  and  S_19
REMARK   11  A    between atoms: S_19  and  C_22
REMARK                            x       y       z     vdW  Elec       q    Type
REMARK                         _______ _______ _______ _____ _____    ______ ____
ROOT
ATOM      1  N   UNL     1       7.352   7.131  17.409  0.00  0.00    +0.000 NA
ATOM      2  C   UNL     1       7.414   5.698  17.735  0.00  0.00    +0.000 C 
ATOM      3  C   UNL     1       6.759   4.851  16.659  0.00  0.00    +0.000 C 
ATOM      4  C   UNL     1       5.295   5.213  16.470  0.00  0.00    +0.000 C 
ATOM      5  C   UNL     1       5.257   6.727  16.164  0.00  0.00    +0.000 C 
ATOM      6  C   UNL     1       5.959   7.564  17.243  0.00  0.00    +0.000 C 
ENDROOT
BRANCH   4   7
ATOM      7  N   UNL     1       4.382   4.830  17.638  0.00  0.00    +0.000 NA
ATOM      8  C   UNL     1       3.474   5.975  17.976  0.00  0.00    +0.000 C 
BRANCH   7   9
ATOM      9  S   UNL     1       3.486   3.338  17.473  0.00  0.00    +0.000 S 
ATOM     10  O   UNL     1       2.408   3.547  16.519  0.00  0.00    +0.000 OA
ATOM     11  O   UNL     1       4.438   2.265  17.298  0.00  0.00    +0.000 OA
BRANCH   9  12
ATOM     12  C   UNL     1       2.662   3.121  19.049  0.00  0.00    +0.000 A 
ATOM     13  C   UNL     1       3.433   2.805  20.177  0.00  0.00    +0.000 A 
ATOM     14  C   UNL     1       2.808   2.622  21.415  0.00  0.00    +0.000 A 
ATOM     15  C   UNL     1       1.429   2.767  21.519  0.00  0.00    +0.000 A 
ATOM     16  F   UNL     1       0.829   2.564  22.699  0.00  0.00    +0.000 F 
ATOM     17  C   UNL     1       0.660   3.129  20.415  0.00  0.00    +0.000 A 
ATOM     18  C   UNL     1       1.282   3.329  19.177  0.00  0.00    +0.000 A 
ENDBRANCH   9  12
ENDBRANCH   7   9
ENDBRANCH   4   7
BRANCH   1  19
ATOM     19  C   UNL     1       8.084   7.943  18.417  0.00  0.00    +0.000 C 
BRANCH  19  20
ATOM     20  C   UNL     1       8.396   9.331  17.825  0.00  0.00    +0.000 C 
BRANCH  20  21
ATOM     21  O   UNL     1       8.144  10.429  18.679  0.00  0.00    +0.000 OA
BRANCH  21  27
ATOM     22  C   UNL     1       9.440  11.695  20.466  0.00  0.00    +0.000 A 
ATOM     23  C   UNL     1      10.750  12.146  20.770  0.00  0.00    +0.000 A 
ATOM     24  C   UNL     1      11.821  11.983  19.891  0.00  0.00    +0.000 A 
ATOM     25  C   UNL     1      11.612  11.381  18.663  0.00  0.00    +0.000 A 
ATOM     26  C   UNL     1      10.341  10.924  18.332  0.00  0.00    +0.000 A 
ATOM     27  C   UNL     1       9.256  11.039  19.221  0.00  0.00    +0.000 A 
BRANCH  22  29
ATOM     28  C   UNL     1       8.831  11.451  22.916  0.00  0.00    +0.000 C 
ATOM     29  C   UNL     1       8.384  11.969  21.539  0.00  0.00    +0.000 C 
ATOM     30  C   UNL     1       7.964  13.442  21.621  0.00  0.00    +0.000 C 
ENDBRANCH  22  29
ENDBRANCH  21  27
ENDBRANCH  20  21
ENDBRANCH  19  20
ENDBRANCH   1  19
TORSDOF 8
ENDMDL
