MODEL 1
REMARK VINA RESULT:      -7.5      0.000      0.000
REMARK  Name = 
REMARK  7 active torsions:
REMARK  status: ('A' for Active; 'I' for Inactive)
REMARK    1  A    between atoms: N_1  and  C_2
REMARK    2  A    between atoms: C_2  and  C_3
REMARK    3  A    between atoms: C_2  and  C_10
REMARK    4  A    between atoms: C_3  and  C_4
REMARK    5  A    between atoms: C_10  and  O_11
REMARK    6  A    between atoms: C_10  and  C_12
REMARK    7  A    between atoms: C_10  and  C_18
REMARK                            x       y       z     vdW  Elec       q    Type
REMARK                         _______ _______ _______ _____ _____    ______ ____
ROOT
ATOM      1  C   UNL     1       4.908   5.515  18.183  0.00  0.00    +0.000 C 
ENDROOT
BRANCH   1   2
ATOM      2  C   UNL     1       3.801   6.580  18.378  0.00  0.00    +0.000 A 
ATOM      3  C   UNL     1       3.042   6.586  19.570  0.00  0.00    +0.000 A 
ATOM      4  C   UNL     1       2.016   7.513  19.772  0.00  0.00    +0.000 A 
ATOM      5  C   UNL     1       1.732   8.465  18.796  0.00  0.00    +0.000 A 
ATOM      6  C   UNL     1       2.480   8.494  17.619  0.00  0.00    +0.000 A 
ATOM      7  C   UNL     1       3.506   7.564  17.405  0.00  0.00    +0.000 A 
ENDBRANCH   1   2
BRANCH   1   8
ATOM      8  C   UNL     1       4.222   4.136  18.246  0.00  0.00    +0.000 A 
ATOM      9  C   UNL     1       4.589   3.235  19.272  0.00  0.00    +0.000 A 
ATOM     10  C   UNL     1       4.021   1.962  19.352  0.00  0.00    +0.000 A 
ATOM     11  C   UNL     1       3.067   1.562  18.418  0.00  0.00    +0.000 A 
ATOM     12  C   UNL     1       2.669   2.442  17.411  0.00  0.00    +0.000 A 
ATOM     13  C   UNL     1       3.233   3.718  17.325  0.00  0.00    +0.000 A 
ENDBRANCH   1   8
BRANCH   1  14
ATOM     14  O   UNL     1       5.854   5.543  19.234  0.00  0.00    +0.000 OA
ATOM     15  H   UNL     1       6.074   6.481  19.460  0.00  0.00    +0.000 HD
ENDBRANCH   1  14
BRANCH   1  16
ATOM     16  C   UNL     1       5.670   5.787  16.825  0.00  0.00    +0.000 C 
BRANCH  16  17
ATOM     17  N   UNL     1       6.423   7.049  16.904  0.00  0.00    +0.000 NA
ATOM     18  H   UNL     1       7.301   6.909  17.455  0.00  0.00    +0.000 HD
ATOM     19  H   UNL     1       5.864   7.779  17.398  0.00  0.00    +0.000 HD
ENDBRANCH  16  17
BRANCH  16  20
ATOM     20  C   UNL     1       6.613   4.625  16.383  0.00  0.00    +0.000 C 
BRANCH  20  21
ATOM     21  C   UNL     1       6.690   4.490  14.874  0.00  0.00    +0.000 A 
ATOM     22  C   UNL     1       5.792   3.657  14.185  0.00  0.00    +0.000 A 
ATOM     23  C   UNL     1       5.864   3.536  12.794  0.00  0.00    +0.000 A 
ATOM     24  C   UNL     1       6.834   4.237  12.075  0.00  0.00    +0.000 A 
ATOM     25  C   UNL     1       7.731   5.070  12.748  0.00  0.00    +0.000 A 
ATOM     26  C   UNL     1       7.656   5.206  14.138  0.00  0.00    +0.000 A 
ENDBRANCH  20  21
ENDBRANCH  16  20
ENDBRANCH   1  16
TORSDOF 7
ENDMDL
MODEL 2
REMARK VINA RESULT:      -7.5      0.007      1.009
REMARK  Name = 
REMARK  7 active torsions:
REMARK  status: ('A' for Active; 'I' for Inactive)
REMARK    1  A    between atoms: N_1  and  C_2
REMARK    2  A    between atoms: C_2  and  C_3
REMARK    3  A    between atoms: C_2  and  C_10
REMARK    4  A    between atoms: C_3  and  C_4
REMARK    5  A    between atoms: C_10  and  O_11
REMARK    6  A    between atoms: C_10  and  C_12
REMARK    7  A    between atoms: C_10  and  C_18
REMARK                            x       y       z     vdW  Elec       q    Type
REMARK                         _______ _______ _______ _____ _____    ______ ____
ROOT
ATOM      1  C   UNL     1       4.911   5.517  18.181  0.00  0.00    +0.000 C 
ENDROOT
BRANCH   1   2
ATOM      2  C   UNL     1       3.804   6.581  18.375  0.00  0.00    +0.000 A 
ATOM      3  C   UNL     1       3.044   6.587  19.567  0.00  0.00    +0.000 A 
ATOM      4  C   UNL     1       2.017   7.513  19.768  0.00  0.00    +0.000 A 
ATOM      5  C   UNL     1       1.733   8.465  18.792  0.00  0.00    +0.000 A 
ATOM      6  C   UNL     1       2.482   8.495  17.616  0.00  0.00    +0.000 A 
ATOM      7  C   UNL     1       3.509   7.566  17.402  0.00  0.00    +0.000 A 
ENDBRANCH   1   2
BRANCH   1   8
ATOM      8  C   UNL     1       4.227   4.138  18.245  0.00  0.00    +0.000 A 
ATOM      9  C   UNL     1       4.591   3.240  19.275  0.00  0.00    +0.000 A 
ATOM     10  C   UNL     1       4.024   1.967  19.356  0.00  0.00    +0.000 A 
ATOM     11  C   UNL     1       3.073   1.564  18.420  0.00  0.00    +0.000 A 
ATOM     12  C   UNL     1       2.678   2.440  17.409  0.00  0.00    +0.000 A 
ATOM     13  C   UNL     1       3.242   3.716  17.321  0.00  0.00    +0.000 A 
ENDBRANCH   1   8
BRANCH   1  14
ATOM     14  O   UNL     1       5.858   5.547  19.231  0.00  0.00    +0.000 OA
ATOM     15  H   UNL     1       5.455   5.174  20.054  0.00  0.00    +0.000 HD
ENDBRANCH   1  14
BRANCH   1  16
ATOM     16  C   UNL     1       5.673   5.789  16.822  0.00  0.00    +0.000 C 
BRANCH  16  17
ATOM     17  N   UNL     1       6.428   7.049  16.901  0.00  0.00    +0.000 NA
ATOM     18  H   UNL     1       5.870   7.770  17.412  0.00  0.00    +0.000 HD
ATOM     19  H   UNL     1       6.616   7.425  15.945  0.00  0.00    +0.000 HD
ENDBRANCH  16  17
BRANCH  16  20
ATOM     20  C   UNL     1       6.613   4.626  16.378  0.00  0.00    +0.000 C 
BRANCH  20  21
ATOM     21  C   UNL     1       6.689   4.492  14.868  0.00  0.00    +0.000 A 
ATOM     22  C   UNL     1       7.657   5.202  14.136  0.00  0.00    +0.000 A 
ATOM     23  C   UNL     1       7.725   5.075  12.746  0.00  0.00    +0.000 A 
ATOM     24  C   UNL     1       6.828   4.248  12.068  0.00  0.00    +0.000 A 
ATOM     25  C   UNL     1       5.862   3.536  12.784  0.00  0.00    +0.000 A 
ATOM     26  C   UNL     1       5.797   3.648  14.177  0.00  0.00    +0.000 A 
ENDBRANCH  20  21
ENDBRANCH  16  20
ENDBRANCH   1  16
TORSDOF 7
ENDMDL
MODEL 3
REMARK VINA RESULT:      -7.5      0.058      1.427
REMARK  Name = 
REMARK  7 active torsions:
REMARK  status: ('A' for Active; 'I' for Inactive)
REMARK    1  A    between atoms: N_1  and  C_2
REMARK    2  A    between atoms: C_2  and  C_3
REMARK    3  A    between atoms: C_2  and  C_10
REMARK    4  A    between atoms: C_3  and  C_4
REMARK    5  A    between atoms: C_10  and  O_11
REMARK    6  A    between atoms: C_10  and  C_12
REMARK    7  A    between atoms: C_10  and  C_18
REMARK                            x       y       z     vdW  Elec       q    Type
REMARK                         _______ _______ _______ _____ _____    ______ ____
ROOT
ATOM      1  C   UNL     1       4.928   5.513  18.199  0.00  0.00    +0.000 C 
ENDROOT
BRANCH   1   2
ATOM      2  C   UNL     1       3.813   6.567  18.398  0.00  0.00    +0.000 A 
ATOM      3  C   UNL     1       3.047   6.556  19.586  0.00  0.00    +0.000 A 
ATOM      4  C   UNL     1       2.014   7.473  19.792  0.00  0.00    +0.000 A 
ATOM      5  C   UNL     1       1.727   8.433  18.823  0.00  0.00    +0.000 A 
ATOM      6  C   UNL     1       2.482   8.480  17.651  0.00  0.00    +0.000 A 
ATOM      7  C   UNL     1       3.516   7.560  17.433  0.00  0.00    +0.000 A 
ENDBRANCH   1   2
BRANCH   1   8
ATOM      8  C   UNL     1       4.259   4.127  18.288  0.00  0.00    +0.000 A 
ATOM      9  C   UNL     1       3.267   3.784  17.341  0.00  0.00    +0.000 A 
ATOM     10  C   UNL     1       2.608   2.554  17.400  0.00  0.00    +0.000 A 
ATOM     11  C   UNL     1       2.932   1.634  18.395  0.00  0.00    +0.000 A 
ATOM     12  C   UNL     1       3.925   1.938  19.327  0.00  0.00    +0.000 A 
ATOM     13  C   UNL     1       4.589   3.168  19.274  0.00  0.00    +0.000 A 
ENDBRANCH   1   8
BRANCH   1  14
ATOM     14  O   UNL     1       5.890   5.564  19.234  0.00  0.00    +0.000 OA
ATOM     15  H   UNL     1       5.818   6.426  19.715  0.00  0.00    +0.000 HD
ENDBRANCH   1  14
BRANCH   1  16
ATOM     16  C   UNL     1       5.667   5.777  16.826  0.00  0.00    +0.000 C 
BRANCH  16  17
ATOM     17  N   UNL     1       6.414   7.043  16.882  0.00  0.00    +0.000 NA
ATOM     18  H   UNL     1       6.460   7.389  17.867  0.00  0.00    +0.000 HD
ATOM     19  H   UNL     1       5.933   7.779  16.319  0.00  0.00    +0.000 HD
ENDBRANCH  16  17
BRANCH  16  20
ATOM     20  C   UNL     1       6.609   4.617  16.378  0.00  0.00    +0.000 C 
BRANCH  20  21
ATOM     21  C   UNL     1       6.685   4.489  14.868  0.00  0.00    +0.000 A 
ATOM     22  C   UNL     1       7.649   5.207  14.138  0.00  0.00    +0.000 A 
ATOM     23  C   UNL     1       7.719   5.085  12.748  0.00  0.00    +0.000 A 
ATOM     24  C   UNL     1       6.826   4.256  12.067  0.00  0.00    +0.000 A 
ATOM     25  C   UNL     1       5.864   3.536  12.781  0.00  0.00    +0.000 A 
ATOM     26  C   UNL     1       5.798   3.642  14.174  0.00  0.00    +0.000 A 
ENDBRANCH  20  21
ENDBRANCH  16  20
ENDBRANCH   1  16
TORSDOF 7
ENDMDL
MODEL 4
REMARK VINA RESULT:      -7.5      0.088      1.011
REMARK  Name = 
REMARK  7 active torsions:
REMARK  status: ('A' for Active; 'I' for Inactive)
REMARK    1  A    between atoms: N_1  and  C_2
REMARK    2  A    between atoms: C_2  and  C_3
REMARK    3  A    between atoms: C_2  and  C_10
REMARK    4  A    between atoms: C_3  and  C_4
REMARK    5  A    between atoms: C_10  and  O_11
REMARK    6  A    between atoms: C_10  and  C_12
REMARK    7  A    between atoms: C_10  and  C_18
REMARK                            x       y       z     vdW  Elec       q    Type
REMARK                         _______ _______ _______ _____ _____    ______ ____
ROOT
ATOM      1  C   UNL     1       4.964   5.484  18.153  0.00  0.00    +0.000 C 
ENDROOT
BRANCH   1   2
ATOM      2  C   UNL     1       3.854   6.545  18.349  0.00  0.00    +0.000 A 
ATOM      3  C   UNL     1       3.089   6.543  19.537  0.00  0.00    +0.000 A 
ATOM      4  C   UNL     1       2.061   7.466  19.740  0.00  0.00    +0.000 A 
ATOM      5  C   UNL     1       1.778   8.423  18.768  0.00  0.00    +0.000 A 
ATOM      6  C   UNL     1       2.532   8.461  17.594  0.00  0.00    +0.000 A 
ATOM      7  C   UNL     1       3.561   7.535  17.380  0.00  0.00    +0.000 A 
ENDBRANCH   1   2
BRANCH   1   8
ATOM      8  C   UNL     1       4.286   4.103  18.235  0.00  0.00    +0.000 A 
ATOM      9  C   UNL     1       3.300   3.767  17.280  0.00  0.00    +0.000 A 
ATOM     10  C   UNL     1       2.633   2.541  17.333  0.00  0.00    +0.000 A 
ATOM     11  C   UNL     1       2.943   1.618  18.330  0.00  0.00    +0.000 A 
ATOM     12  C   UNL     1       3.930   1.915  19.270  0.00  0.00    +0.000 A 
ATOM     13  C   UNL     1       4.602   3.141  19.224  0.00  0.00    +0.000 A 
ENDBRANCH   1   8
BRANCH   1  14
ATOM     14  O   UNL     1       5.921   5.527  19.194  0.00  0.00    +0.000 OA
ATOM     15  H   UNL     1       6.737   5.042  18.917  0.00  0.00    +0.000 HD
ENDBRANCH   1  14
BRANCH   1  16
ATOM     16  C   UNL     1       5.712   5.747  16.785  0.00  0.00    +0.000 C 
BRANCH  16  17
ATOM     17  N   UNL     1       6.490   6.993  16.858  0.00  0.00    +0.000 NA
ATOM     18  H   UNL     1       7.473   6.786  17.148  0.00  0.00    +0.000 HD
ATOM     19  H   UNL     1       6.087   7.636  17.575  0.00  0.00    +0.000 HD
ENDBRANCH  16  17
BRANCH  16  20
ATOM     20  C   UNL     1       6.625   4.569  16.324  0.00  0.00    +0.000 C 
BRANCH  20  21
ATOM     21  C   UNL     1       6.698   4.456  14.813  0.00  0.00    +0.000 A 
ATOM     22  C   UNL     1       5.814   3.614  14.116  0.00  0.00    +0.000 A 
ATOM     23  C   UNL     1       5.882   3.513  12.724  0.00  0.00    +0.000 A 
ATOM     24  C   UNL     1       6.835   4.243  12.010  0.00  0.00    +0.000 A 
ATOM     25  C   UNL     1       7.718   5.085  12.690  0.00  0.00    +0.000 A 
ATOM     26  C   UNL     1       7.646   5.201  14.083  0.00  0.00    +0.000 A 
ENDBRANCH  20  21
ENDBRANCH  16  20
ENDBRANCH   1  16
TORSDOF 7
ENDMDL
MODEL 5
REMARK VINA RESULT:      -7.5      0.062      1.009
REMARK  Name = 
REMARK  7 active torsions:
REMARK  status: ('A' for Active; 'I' for Inactive)
REMARK    1  A    between atoms: N_1  and  C_2
REMARK    2  A    between atoms: C_2  and  C_3
REMARK    3  A    between atoms: C_2  and  C_10
REMARK    4  A    between atoms: C_3  and  C_4
REMARK    5  A    between atoms: C_10  and  O_11
REMARK    6  A    between atoms: C_10  and  C_12
REMARK    7  A    between atoms: C_10  and  C_18
REMARK                            x       y       z     vdW  Elec       q    Type
REMARK                         _______ _______ _______ _____ _____    ______ ____
ROOT
ATOM      1  C   UNL     1       4.894   5.481  18.223  0.00  0.00    +0.000 C 
ENDROOT
BRANCH   1   2
ATOM      2  C   UNL     1       3.777   6.534  18.423  0.00  0.00    +0.000 A 
ATOM      3  C   UNL     1       3.533   7.492  17.413  0.00  0.00    +0.000 A 
ATOM      4  C   UNL     1       2.554   8.476  17.568  0.00  0.00    +0.000 A 
ATOM      5  C   UNL     1       1.784   8.520  18.728  0.00  0.00    +0.000 A 
ATOM      6  C   UNL     1       1.989   7.573  19.732  0.00  0.00    +0.000 A 
ATOM      7  C   UNL     1       2.974   6.587  19.588  0.00  0.00    +0.000 A 
ENDBRANCH   1   2
BRANCH   1   8
ATOM      8  C   UNL     1       4.221   4.095  18.272  0.00  0.00    +0.000 A 
ATOM      9  C   UNL     1       4.558   3.207  19.319  0.00  0.00    +0.000 A 
ATOM     10  C   UNL     1       4.001   1.929  19.387  0.00  0.00    +0.000 A 
ATOM     11  C   UNL     1       3.087   1.511  18.422  0.00  0.00    +0.000 A 
ATOM     12  C   UNL     1       2.718   2.378  17.392  0.00  0.00    +0.000 A 
ATOM     13  C   UNL     1       3.273   3.659  17.317  0.00  0.00    +0.000 A 
ENDBRANCH   1   8
BRANCH   1  14
ATOM     14  O   UNL     1       5.836   5.509  19.277  0.00  0.00    +0.000 OA
ATOM     15  H   UNL     1       5.738   4.697  19.835  0.00  0.00    +0.000 HD
ENDBRANCH   1  14
BRANCH   1  16
ATOM     16  C   UNL     1       5.659   5.772  16.870  0.00  0.00    +0.000 C 
BRANCH  16  17
ATOM     17  N   UNL     1       6.403   7.038  16.964  0.00  0.00    +0.000 NA
ATOM     18  H   UNL     1       7.188   7.045  16.274  0.00  0.00    +0.000 HD
ATOM     19  H   UNL     1       6.826   7.146  17.913  0.00  0.00    +0.000 HD
ENDBRANCH  16  17
BRANCH  16  20
ATOM     20  C   UNL     1       6.611   4.622  16.420  0.00  0.00    +0.000 C 
BRANCH  20  21
ATOM     21  C   UNL     1       6.680   4.491  14.910  0.00  0.00    +0.000 A 
ATOM     22  C   UNL     1       5.776   3.664  14.222  0.00  0.00    +0.000 A 
ATOM     23  C   UNL     1       5.840   3.547  12.831  0.00  0.00    +0.000 A 
ATOM     24  C   UNL     1       6.810   4.246  12.109  0.00  0.00    +0.000 A 
ATOM     25  C   UNL     1       7.714   5.073  12.781  0.00  0.00    +0.000 A 
ATOM     26  C   UNL     1       7.646   5.205  14.172  0.00  0.00    +0.000 A 
ENDBRANCH  20  21
ENDBRANCH  16  20
ENDBRANCH   1  16
TORSDOF 7
ENDMDL
MODEL 6
REMARK VINA RESULT:      -7.4      0.072      1.426
REMARK  Name = 
REMARK  7 active torsions:
REMARK  status: ('A' for Active; 'I' for Inactive)
REMARK    1  A    between atoms: N_1  and  C_2
REMARK    2  A    between atoms: C_2  and  C_3
REMARK    3  A    between atoms: C_2  and  C_10
REMARK    4  A    between atoms: C_3  and  C_4
REMARK    5  A    between atoms: C_10  and  O_11
REMARK    6  A    between atoms: C_10  and  C_12
REMARK    7  A    between atoms: C_10  and  C_18
REMARK                            x       y       z     vdW  Elec       q    Type
REMARK                         _______ _______ _______ _____ _____    ______ ____
ROOT
ATOM      1  C   UNL     1       4.927   5.518  18.223  0.00  0.00    +0.000 C 
ENDROOT
BRANCH   1   2
ATOM      2  C   UNL     1       3.797   6.558  18.417  0.00  0.00    +0.000 A 
ATOM      3  C   UNL     1       3.542   7.508  17.402  0.00  0.00    +0.000 A 
ATOM      4  C   UNL     1       2.551   8.480  17.550  0.00  0.00    +0.000 A 
ATOM      5  C   UNL     1       1.780   8.521  18.710  0.00  0.00    +0.000 A 
ATOM      6  C   UNL     1       1.996   7.582  19.718  0.00  0.00    +0.000 A 
ATOM      7  C   UNL     1       2.993   6.607  19.581  0.00  0.00    +0.000 A 
ENDBRANCH   1   2
BRANCH   1   8
ATOM      8  C   UNL     1       4.273   4.124  18.292  0.00  0.00    +0.000 A 
ATOM      9  C   UNL     1       3.296   3.778  17.330  0.00  0.00    +0.000 A 
ATOM     10  C   UNL     1       2.650   2.540  17.370  0.00  0.00    +0.000 A 
ATOM     11  C   UNL     1       2.973   1.616  18.362  0.00  0.00    +0.000 A 
ATOM     12  C   UNL     1       3.952   1.922  19.308  0.00  0.00    +0.000 A 
ATOM     13  C   UNL     1       4.602   3.160  19.274  0.00  0.00    +0.000 A 
ENDBRANCH   1   8
BRANCH   1  14
ATOM     14  O   UNL     1       5.875   5.571  19.271  0.00  0.00    +0.000 OA
ATOM     15  H   UNL     1       5.830   4.739  19.804  0.00  0.00    +0.000 HD
ENDBRANCH   1  14
BRANCH   1  16
ATOM     16  C   UNL     1       5.680   5.802  16.861  0.00  0.00    +0.000 C 
BRANCH  16  17
ATOM     17  N   UNL     1       6.416   7.074  16.940  0.00  0.00    +0.000 NA
ATOM     18  H   UNL     1       7.342   6.925  17.400  0.00  0.00    +0.000 HD
ATOM     19  H   UNL     1       5.892   7.766  17.520  0.00  0.00    +0.000 HD
ENDBRANCH  16  17
BRANCH  16  20
ATOM     20  C   UNL     1       6.637   4.654  16.414  0.00  0.00    +0.000 C 
BRANCH  20  21
ATOM     21  C   UNL     1       6.686   4.503  14.905  0.00  0.00    +0.000 A 
ATOM     22  C   UNL     1       5.774   3.665  14.240  0.00  0.00    +0.000 A 
ATOM     23  C   UNL     1       5.820   3.530  12.850  0.00  0.00    +0.000 A 
ATOM     24  C   UNL     1       6.779   4.220  12.107  0.00  0.00    +0.000 A 
ATOM     25  C   UNL     1       7.690   5.058  12.754  0.00  0.00    +0.000 A 
ATOM     26  C   UNL     1       7.640   5.209  14.144  0.00  0.00    +0.000 A 
ENDBRANCH  20  21
ENDBRANCH  16  20
ENDBRANCH   1  16
TORSDOF 7
ENDMDL
MODEL 7
REMARK VINA RESULT:      -7.4      0.054      1.427
REMARK  Name = 
REMARK  7 active torsions:
REMARK  status: ('A' for Active; 'I' for Inactive)
REMARK    1  A    between atoms: N_1  and  C_2
REMARK    2  A    between atoms: C_2  and  C_3
REMARK    3  A    between atoms: C_2  and  C_10
REMARK    4  A    between atoms: C_3  and  C_4
REMARK    5  A    between atoms: C_10  and  O_11
REMARK    6  A    between atoms: C_10  and  C_12
REMARK    7  A    between atoms: C_10  and  C_18
REMARK                            x       y       z     vdW  Elec       q    Type
REMARK                         _______ _______ _______ _____ _____    ______ ____
ROOT
ATOM      1  C   UNL     1       4.895   5.475  18.193  0.00  0.00    +0.000 C 
ENDROOT
BRANCH   1   2
ATOM      2  C   UNL     1       3.780   6.528  18.402  0.00  0.00    +0.000 A 
ATOM      3  C   UNL     1       3.529   7.487  17.395  0.00  0.00    +0.000 A 
ATOM      4  C   UNL     1       2.552   8.472  17.557  0.00  0.00    +0.000 A 
ATOM      5  C   UNL     1       1.790   8.516  18.723  0.00  0.00    +0.000 A 
ATOM      6  C   UNL     1       2.003   7.568  19.724  0.00  0.00    +0.000 A 
ATOM      7  C   UNL     1       2.986   6.581  19.573  0.00  0.00    +0.000 A 
ENDBRANCH   1   2
BRANCH   1   8
ATOM      8  C   UNL     1       4.222   4.089  18.253  0.00  0.00    +0.000 A 
ATOM      9  C   UNL     1       4.583   3.197  19.289  0.00  0.00    +0.000 A 
ATOM     10  C   UNL     1       4.027   1.918  19.366  0.00  0.00    +0.000 A 
ATOM     11  C   UNL     1       3.090   1.505  18.420  0.00  0.00    +0.000 A 
ATOM     12  C   UNL     1       2.698   2.375  17.403  0.00  0.00    +0.000 A 
ATOM     13  C   UNL     1       3.251   3.657  17.319  0.00  0.00    +0.000 A 
ENDBRANCH   1   8
BRANCH   1  14
ATOM     14  O   UNL     1       5.848   5.505  19.237  0.00  0.00    +0.000 OA
ATOM     15  H   UNL     1       5.406   5.758  20.086  0.00  0.00    +0.000 HD
ENDBRANCH   1  14
BRANCH   1  16
ATOM     16  C   UNL     1       5.645   5.761  16.831  0.00  0.00    +0.000 C 
BRANCH  16  17
ATOM     17  N   UNL     1       6.376   7.036  16.908  0.00  0.00    +0.000 NA
ATOM     18  H   UNL     1       5.784   7.812  16.535  0.00  0.00    +0.000 HD
ATOM     19  H   UNL     1       7.240   7.000  16.324  0.00  0.00    +0.000 HD
ENDBRANCH  16  17
BRANCH  16  20
ATOM     20  C   UNL     1       6.606   4.617  16.383  0.00  0.00    +0.000 C 
BRANCH  20  21
ATOM     21  C   UNL     1       6.680   4.488  14.873  0.00  0.00    +0.000 A 
ATOM     22  C   UNL     1       7.652   5.195  14.143  0.00  0.00    +0.000 A 
ATOM     23  C   UNL     1       7.719   5.073  12.752  0.00  0.00    +0.000 A 
ATOM     24  C   UNL     1       6.817   4.252  12.072  0.00  0.00    +0.000 A 
ATOM     25  C   UNL     1       5.848   3.542  12.787  0.00  0.00    +0.000 A 
ATOM     26  C   UNL     1       5.784   3.650  14.180  0.00  0.00    +0.000 A 
ENDBRANCH  20  21
ENDBRANCH  16  20
ENDBRANCH   1  16
TORSDOF 7
ENDMDL
MODEL 8
REMARK VINA RESULT:      -7.4      0.063      1.747
REMARK  Name = 
REMARK  7 active torsions:
REMARK  status: ('A' for Active; 'I' for Inactive)
REMARK    1  A    between atoms: N_1  and  C_2
REMARK    2  A    between atoms: C_2  and  C_3
REMARK    3  A    between atoms: C_2  and  C_10
REMARK    4  A    between atoms: C_3  and  C_4
REMARK    5  A    between atoms: C_10  and  O_11
REMARK    6  A    between atoms: C_10  and  C_12
REMARK    7  A    between atoms: C_10  and  C_18
REMARK                            x       y       z     vdW  Elec       q    Type
REMARK                         _______ _______ _______ _____ _____    ______ ____
ROOT
ATOM      1  C   UNL     1       4.927   5.488  18.185  0.00  0.00    +0.000 C 
ENDROOT
BRANCH   1   2
ATOM      2  C   UNL     1       3.802   6.529  18.402  0.00  0.00    +0.000 A 
ATOM      3  C   UNL     1       3.530   7.482  17.394  0.00  0.00    +0.000 A 
ATOM      4  C   UNL     1       2.541   8.454  17.563  0.00  0.00    +0.000 A 
ATOM      5  C   UNL     1       1.791   8.492  18.736  0.00  0.00    +0.000 A 
ATOM      6  C   UNL     1       2.024   7.550  19.738  0.00  0.00    +0.000 A 
ATOM      7  C   UNL     1       3.018   6.575  19.580  0.00  0.00    +0.000 A 
ENDBRANCH   1   2
BRANCH   1   8
ATOM      8  C   UNL     1       4.276   4.094  18.273  0.00  0.00    +0.000 A 
ATOM      9  C   UNL     1       3.313   3.727  17.305  0.00  0.00    +0.000 A 
ATOM     10  C   UNL     1       2.670   2.488  17.361  0.00  0.00    +0.000 A 
ATOM     11  C   UNL     1       2.981   1.584  18.375  0.00  0.00    +0.000 A 
ATOM     12  C   UNL     1       3.945   1.913  19.328  0.00  0.00    +0.000 A 
ATOM     13  C   UNL     1       4.593   3.151  19.279  0.00  0.00    +0.000 A 
ENDBRANCH   1   8
BRANCH   1  14
ATOM     14  O   UNL     1       5.899   5.545  19.211  0.00  0.00    +0.000 OA
ATOM     15  H   UNL     1       5.492   5.275  20.072  0.00  0.00    +0.000 HD
ENDBRANCH   1  14
BRANCH   1  16
ATOM     16  C   UNL     1       5.649   5.769  16.806  0.00  0.00    +0.000 C 
BRANCH  16  17
ATOM     17  N   UNL     1       6.358   7.058  16.853  0.00  0.00    +0.000 NA
ATOM     18  H   UNL     1       6.708   7.309  15.901  0.00  0.00    +0.000 HD
ATOM     19  H   UNL     1       7.189   6.997  17.481  0.00  0.00    +0.000 HD
ENDBRANCH  16  17
BRANCH  16  20
ATOM     20  C   UNL     1       6.623   4.637  16.358  0.00  0.00    +0.000 C 
BRANCH  20  21
ATOM     21  C   UNL     1       6.687   4.499  14.848  0.00  0.00    +0.000 A 
ATOM     22  C   UNL     1       7.647   5.209  14.106  0.00  0.00    +0.000 A 
ATOM     23  C   UNL     1       7.706   5.079  12.716  0.00  0.00    +0.000 A 
ATOM     24  C   UNL     1       6.805   4.247  12.048  0.00  0.00    +0.000 A 
ATOM     25  C   UNL     1       5.847   3.534  12.773  0.00  0.00    +0.000 A 
ATOM     26  C   UNL     1       5.793   3.649  14.166  0.00  0.00    +0.000 A 
ENDBRANCH  20  21
ENDBRANCH  16  20
ENDBRANCH   1  16
TORSDOF 7
ENDMDL
MODEL 9
REMARK VINA RESULT:      -7.2      2.893      5.123
REMARK  Name = 
REMARK  7 active torsions:
REMARK  status: ('A' for Active; 'I' for Inactive)
REMARK    1  A    between atoms: N_1  and  C_2
REMARK    2  A    between atoms: C_2  and  C_3
REMARK    3  A    between atoms: C_2  and  C_10
REMARK    4  A    between atoms: C_3  and  C_4
REMARK    5  A    between atoms: C_10  and  O_11
REMARK    6  A    between atoms: C_10  and  C_12
REMARK    7  A    between atoms: C_10  and  C_18
REMARK                            x       y       z     vdW  Elec       q    Type
REMARK                         _______ _______ _______ _____ _____    ______ ____
ROOT
ATOM      1  C   UNL     1       2.460   4.750  18.116  0.00  0.00    +0.000 C 
ENDROOT
BRANCH   1   2
ATOM      2  C   UNL     1       2.297   3.923  19.414  0.00  0.00    +0.000 A 
ATOM      3  C   UNL     1       3.437   3.354  20.026  0.00  0.00    +0.000 A 
ATOM      4  C   UNL     1       3.329   2.577  21.182  0.00  0.00    +0.000 A 
ATOM      5  C   UNL     1       2.082   2.360  21.764  0.00  0.00    +0.000 A 
ATOM      6  C   UNL     1       0.943   2.927  21.193  0.00  0.00    +0.000 A 
ATOM      7  C   UNL     1       1.041   3.702  20.030  0.00  0.00    +0.000 A 
ENDBRANCH   1   2
BRANCH   1   8
ATOM      8  C   UNL     1       2.216   6.226  18.489  0.00  0.00    +0.000 A 
ATOM      9  C   UNL     1       2.163   6.586  19.855  0.00  0.00    +0.000 A 
ATOM     10  C   UNL     1       1.911   7.904  20.244  0.00  0.00    +0.000 A 
ATOM     11  C   UNL     1       1.720   8.893  19.280  0.00  0.00    +0.000 A 
ATOM     12  C   UNL     1       1.792   8.568  17.926  0.00  0.00    +0.000 A 
ATOM     13  C   UNL     1       2.043   7.250  17.529  0.00  0.00    +0.000 A 
ENDBRANCH   1   8
BRANCH   1  14
ATOM     14  O   UNL     1       1.483   4.411  17.152  0.00  0.00    +0.000 OA
ATOM     15  H   UNL     1       0.597   4.335  17.586  0.00  0.00    +0.000 HD
ENDBRANCH   1  14
BRANCH   1  16
ATOM     16  C   UNL     1       3.886   4.478  17.490  0.00  0.00    +0.000 C 
BRANCH  16  17
ATOM     17  N   UNL     1       3.815   3.378  16.515  0.00  0.00    +0.000 NA
ATOM     18  H   UNL     1       4.647   3.406  15.882  0.00  0.00    +0.000 HD
ATOM     19  H   UNL     1       2.967   3.475  15.913  0.00  0.00    +0.000 HD
ENDBRANCH  16  17
BRANCH  16  20
ATOM     20  C   UNL     1       4.543   5.733  16.839  0.00  0.00    +0.000 C 
BRANCH  20  21
ATOM     21  C   UNL     1       5.834   6.130  17.531  0.00  0.00    +0.000 A 
ATOM     22  C   UNL     1       6.546   7.269  17.116  0.00  0.00    +0.000 A 
ATOM     23  C   UNL     1       7.733   7.634  17.757  0.00  0.00    +0.000 A 
ATOM     24  C   UNL     1       8.228   6.867  18.813  0.00  0.00    +0.000 A 
ATOM     25  C   UNL     1       7.529   5.734  19.237  0.00  0.00    +0.000 A 
ATOM     26  C   UNL     1       6.333   5.371  18.608  0.00  0.00    +0.000 A 
ENDBRANCH  20  21
ENDBRANCH  16  20
ENDBRANCH   1  16
TORSDOF 7
ENDMDL
