MODEL 1
REMARK VINA RESULT:      -7.3      0.000      0.000
REMARK  Name = 
REMARK  6 active torsions:
REMARK  status: ('A' for Active; 'I' for Inactive)
REMARK    1  A    between atoms: C_1  and  C_2
REMARK    2  A    between atoms: C_5  and  C_6
REMARK    3  A    between atoms: C_7  and  N_8
REMARK    4  A    between atoms: N_8  and  N_9
REMARK    5  A    between atoms: C_10  and  C_11
REMARK    6  A    between atoms: C_16  and  O_17
REMARK                            x       y       z     vdW  Elec       q    Type
REMARK                         _______ _______ _______ _____ _____    ______ ____
ROOT
ATOM      1  N   UNL     1       5.050   2.913  19.086  0.00  0.00    +0.000 N 
ATOM      2  H   UNL     1       5.537   2.051  19.301  0.00  0.00    +0.000 HD
ENDROOT
BRANCH   1   9
ATOM      3  C   UNL     1       1.202   2.520  22.194  0.00  0.00    +0.000 C 
ATOM      4  C   UNL     1       1.722   2.741  20.805  0.00  0.00    +0.000 A 
ATOM      5  C   UNL     1       0.860   3.015  19.745  0.00  0.00    +0.000 A 
ATOM      6  C   UNL     1       1.373   3.222  18.465  0.00  0.00    +0.000 A 
ATOM      7  C   UNL     1       2.757   3.167  18.216  0.00  0.00    +0.000 A 
ATOM      8  C   UNL     1       3.241   3.404  16.812  0.00  0.00    +0.000 C 
ATOM      9  C   UNL     1       3.646   2.887  19.276  0.00  0.00    +0.000 A 
ATOM     10  C   UNL     1       3.101   2.688  20.559  0.00  0.00    +0.000 A 
ENDBRANCH   1   9
BRANCH   1  11
ATOM     11  N   UNL     1       5.683   4.109  19.177  0.00  0.00    +0.000 NA
ATOM     12  C   UNL     1       6.259   4.547  18.093  0.00  0.00    +0.000 C 
BRANCH  12  13
ATOM     13  C   UNL     1       6.952   5.852  18.082  0.00  0.00    +0.000 A 
ATOM     14  C   UNL     1       6.605   6.791  17.101  0.00  0.00    +0.000 A 
ATOM     15  C   UNL     1       7.202   8.051  17.095  0.00  0.00    +0.000 A 
ATOM     16  C   UNL     1       8.145   8.381  18.067  0.00  0.00    +0.000 A 
ATOM     17  C   UNL     1       8.515   7.443  19.034  0.00  0.00    +0.000 A 
ATOM     18  C   UNL     1       7.931   6.174  19.030  0.00  0.00    +0.000 A 
BRANCH  18  19
ATOM     19  O   UNL     1       8.335   5.247  19.954  0.00  0.00    +0.000 OA
ATOM     20  H   UNL     1       8.714   4.480  19.493  0.00  0.00    +0.000 HD
ENDBRANCH  18  19
ENDBRANCH  12  13
ENDBRANCH   1  11
TORSDOF 4
ENDMDL
MODEL 2
REMARK VINA RESULT:      -7.3      3.526      4.525
REMARK  Name = 
REMARK  6 active torsions:
REMARK  status: ('A' for Active; 'I' for Inactive)
REMARK    1  A    between atoms: C_1  and  C_2
REMARK    2  A    between atoms: C_5  and  C_6
REMARK    3  A    between atoms: C_7  and  N_8
REMARK    4  A    between atoms: N_8  and  N_9
REMARK    5  A    between atoms: C_10  and  C_11
REMARK    6  A    between atoms: C_16  and  O_17
REMARK                            x       y       z     vdW  Elec       q    Type
REMARK                         _______ _______ _______ _____ _____    ______ ____
ROOT
ATOM      1  N   UNL     1       5.728   3.883  17.863  0.00  0.00    +0.000 N 
ATOM      2  H   UNL     1       6.243   3.755  18.726  0.00  0.00    +0.000 HD
ENDROOT
BRANCH   1   9
ATOM      3  C   UNL     1       2.747   7.845  18.046  0.00  0.00    +0.000 C 
ATOM      4  C   UNL     1       2.915   6.355  18.049  0.00  0.00    +0.000 A 
ATOM      5  C   UNL     1       1.813   5.503  18.087  0.00  0.00    +0.000 A 
ATOM      6  C   UNL     1       2.000   4.121  18.083  0.00  0.00    +0.000 A 
ATOM      7  C   UNL     1       3.290   3.560  18.037  0.00  0.00    +0.000 A 
ATOM      8  C   UNL     1       3.418   2.062  18.032  0.00  0.00    +0.000 C 
ATOM      9  C   UNL     1       4.419   4.406  18.003  0.00  0.00    +0.000 A 
ATOM     10  C   UNL     1       4.201   5.798  18.000  0.00  0.00    +0.000 A 
ENDBRANCH   1   9
BRANCH   1  11
ATOM     11  N   UNL     1       6.379   4.097  16.692  0.00  0.00    +0.000 NA
ATOM     12  C   UNL     1       5.716   3.831  15.602  0.00  0.00    +0.000 C 
BRANCH  12  13
ATOM     13  C   UNL     1       6.327   4.057  14.275  0.00  0.00    +0.000 A 
ATOM     14  C   UNL     1       5.916   3.259  13.199  0.00  0.00    +0.000 A 
ATOM     15  C   UNL     1       6.434   3.481  11.924  0.00  0.00    +0.000 A 
ATOM     16  C   UNL     1       7.361   4.501  11.715  0.00  0.00    +0.000 A 
ATOM     17  C   UNL     1       7.794   5.286  12.786  0.00  0.00    +0.000 A 
ATOM     18  C   UNL     1       7.290   5.053  14.068  0.00  0.00    +0.000 A 
BRANCH  18  19
ATOM     19  O   UNL     1       7.756   5.797  15.118  0.00  0.00    +0.000 OA
ATOM     20  H   UNL     1       7.340   6.675  15.098  0.00  0.00    +0.000 HD
ENDBRANCH  18  19
ENDBRANCH  12  13
ENDBRANCH   1  11
TORSDOF 4
ENDMDL
MODEL 3
REMARK VINA RESULT:      -6.9      3.780      4.762
REMARK  Name = 
REMARK  6 active torsions:
REMARK  status: ('A' for Active; 'I' for Inactive)
REMARK    1  A    between atoms: C_1  and  C_2
REMARK    2  A    between atoms: C_5  and  C_6
REMARK    3  A    between atoms: C_7  and  N_8
REMARK    4  A    between atoms: N_8  and  N_9
REMARK    5  A    between atoms: C_10  and  C_11
REMARK    6  A    between atoms: C_16  and  O_17
REMARK                            x       y       z     vdW  Elec       q    Type
REMARK                         _______ _______ _______ _____ _____    ______ ____
ROOT
ATOM      1  N   UNL     1       4.114   4.250  17.465  0.00  0.00    +0.000 N 
ATOM      2  H   UNL     1       4.411   3.421  17.967  0.00  0.00    +0.000 HD
ENDROOT
BRANCH   1   9
ATOM      3  C   UNL     1       2.365   8.879  17.830  0.00  0.00    +0.000 C 
ATOM      4  C   UNL     1       2.565   7.524  18.438  0.00  0.00    +0.000 A 
ATOM      5  C   UNL     1       2.059   7.214  19.699  0.00  0.00    +0.000 A 
ATOM      6  C   UNL     1       2.256   5.943  20.237  0.00  0.00    +0.000 A 
ATOM      7  C   UNL     1       2.958   4.951  19.527  0.00  0.00    +0.000 A 
ATOM      8  C   UNL     1       3.130   3.601  20.166  0.00  0.00    +0.000 C 
ATOM      9  C   UNL     1       3.482   5.246  18.250  0.00  0.00    +0.000 A 
ATOM     10  C   UNL     1       3.263   6.536  17.728  0.00  0.00    +0.000 A 
ENDBRANCH   1   9
BRANCH   1  11
ATOM     11  N   UNL     1       4.748   4.639  16.331  0.00  0.00    +0.000 NA
ATOM     12  C   UNL     1       5.480   3.739  15.736  0.00  0.00    +0.000 C 
BRANCH  12  13
ATOM     13  C   UNL     1       6.189   4.055  14.479  0.00  0.00    +0.000 A 
ATOM     14  C   UNL     1       5.838   3.360  13.313  0.00  0.00    +0.000 A 
ATOM     15  C   UNL     1       6.451   3.671  12.101  0.00  0.00    +0.000 A 
ATOM     16  C   UNL     1       7.414   4.677  12.043  0.00  0.00    +0.000 A 
ATOM     17  C   UNL     1       7.788   5.358  13.204  0.00  0.00    +0.000 A 
ATOM     18  C   UNL     1       7.188   5.035  14.424  0.00  0.00    +0.000 A 
BRANCH  18  19
ATOM     19  O   UNL     1       7.594   5.677  15.562  0.00  0.00    +0.000 OA
ATOM     20  H   UNL     1       6.897   6.289  15.852  0.00  0.00    +0.000 HD
ENDBRANCH  18  19
ENDBRANCH  12  13
ENDBRANCH   1  11
TORSDOF 4
ENDMDL
MODEL 4
REMARK VINA RESULT:      -6.9      3.425      4.392
REMARK  Name = 
REMARK  6 active torsions:
REMARK  status: ('A' for Active; 'I' for Inactive)
REMARK    1  A    between atoms: C_1  and  C_2
REMARK    2  A    between atoms: C_5  and  C_6
REMARK    3  A    between atoms: C_7  and  N_8
REMARK    4  A    between atoms: N_8  and  N_9
REMARK    5  A    between atoms: C_10  and  C_11
REMARK    6  A    between atoms: C_16  and  O_17
REMARK                            x       y       z     vdW  Elec       q    Type
REMARK                         _______ _______ _______ _____ _____    ______ ____
ROOT
ATOM      1  N   UNL     1       5.715   4.587  17.863  0.00  0.00    +0.000 N 
ATOM      2  H   UNL     1       6.170   5.179  18.549  0.00  0.00    +0.000 HD
ENDROOT
BRANCH   1   9
ATOM      3  C   UNL     1       1.653   1.881  18.753  0.00  0.00    +0.000 C 
ATOM      4  C   UNL     1       2.276   3.208  18.438  0.00  0.00    +0.000 A 
ATOM      5  C   UNL     1       1.505   4.364  18.337  0.00  0.00    +0.000 A 
ATOM      6  C   UNL     1       2.114   5.585  18.049  0.00  0.00    +0.000 A 
ATOM      7  C   UNL     1       3.506   5.680  17.861  0.00  0.00    +0.000 A 
ATOM      8  C   UNL     1       4.095   7.029  17.557  0.00  0.00    +0.000 C 
ATOM      9  C   UNL     1       4.303   4.519  17.955  0.00  0.00    +0.000 A 
ATOM     10  C   UNL     1       3.664   3.301  18.254  0.00  0.00    +0.000 A 
ENDBRANCH   1   9
BRANCH   1  11
ATOM     11  N   UNL     1       6.288   4.360  16.655  0.00  0.00    +0.000 NA
ATOM     12  C   UNL     1       5.506   4.443  15.616  0.00  0.00    +0.000 C 
BRANCH  12  13
ATOM     13  C   UNL     1       6.038   4.239  14.253  0.00  0.00    +0.000 A 
ATOM     14  C   UNL     1       5.354   3.380  13.382  0.00  0.00    +0.000 A 
ATOM     15  C   UNL     1       5.801   3.208  12.073  0.00  0.00    +0.000 A 
ATOM     16  C   UNL     1       6.930   3.891  11.625  0.00  0.00    +0.000 A 
ATOM     17  C   UNL     1       7.632   4.731  12.493  0.00  0.00    +0.000 A 
ATOM     18  C   UNL     1       7.197   4.891  13.810  0.00  0.00    +0.000 A 
BRANCH  18  19
ATOM     19  O   UNL     1       7.919   5.680  14.665  0.00  0.00    +0.000 OA
ATOM     20  H   UNL     1       8.866   5.491  14.552  0.00  0.00    +0.000 HD
ENDBRANCH  18  19
ENDBRANCH  12  13
ENDBRANCH   1  11
TORSDOF 4
ENDMDL
MODEL 5
REMARK VINA RESULT:      -6.9      5.695      6.919
REMARK  Name = 
REMARK  6 active torsions:
REMARK  status: ('A' for Active; 'I' for Inactive)
REMARK    1  A    between atoms: C_1  and  C_2
REMARK    2  A    between atoms: C_5  and  C_6
REMARK    3  A    between atoms: C_7  and  N_8
REMARK    4  A    between atoms: N_8  and  N_9
REMARK    5  A    between atoms: C_10  and  C_11
REMARK    6  A    between atoms: C_16  and  O_17
REMARK                            x       y       z     vdW  Elec       q    Type
REMARK                         _______ _______ _______ _____ _____    ______ ____
ROOT
ATOM      1  N   UNL     1       2.492   6.587  20.491  0.00  0.00    +0.000 N 
ATOM      2  H   UNL     1       2.583   6.155  21.403  0.00  0.00    +0.000 HD
ENDROOT
BRANCH   1   9
ATOM      3  C   UNL     1       4.960   5.487  16.329  0.00  0.00    +0.000 C 
ATOM      4  C   UNL     1       3.913   5.131  17.341  0.00  0.00    +0.000 A 
ATOM      5  C   UNL     1       3.202   3.935  17.257  0.00  0.00    +0.000 A 
ATOM      6  C   UNL     1       2.239   3.627  18.216  0.00  0.00    +0.000 A 
ATOM      7  C   UNL     1       1.966   4.504  19.283  0.00  0.00    +0.000 A 
ATOM      8  C   UNL     1       0.916   4.107  20.283  0.00  0.00    +0.000 C 
ATOM      9  C   UNL     1       2.672   5.722  19.384  0.00  0.00    +0.000 A 
ATOM     10  C   UNL     1       3.644   6.004  18.405  0.00  0.00    +0.000 A 
ENDBRANCH   1   9
BRANCH   1  11
ATOM     11  N   UNL     1       1.723   7.691  20.320  0.00  0.00    +0.000 NA
ATOM     12  C   UNL     1       1.223   8.225  21.398  0.00  0.00    +0.000 C 
BRANCH  12  13
ATOM     13  C   UNL     1       0.395   9.446  21.321  0.00  0.00    +0.000 A 
ATOM     14  C   UNL     1       0.036   9.939  20.059  0.00  0.00    +0.000 A 
ATOM     15  C   UNL     1      -0.788  11.059  19.953  0.00  0.00    +0.000 A 
ATOM     16  C   UNL     1      -1.260  11.690  21.102  0.00  0.00    +0.000 A 
ATOM     17  C   UNL     1      -0.889  11.219  22.364  0.00  0.00    +0.000 A 
ATOM     18  C   UNL     1      -0.048  10.109  22.473  0.00  0.00    +0.000 A 
BRANCH  18  19
ATOM     19  O   UNL     1       0.347   9.685  23.713  0.00  0.00    +0.000 OA
ATOM     20  H   UNL     1       0.358  10.443  24.322  0.00  0.00    +0.000 HD
ENDBRANCH  18  19
ENDBRANCH  12  13
ENDBRANCH   1  11
TORSDOF 4
ENDMDL
MODEL 6
REMARK VINA RESULT:      -6.9      2.313      6.225
REMARK  Name = 
REMARK  6 active torsions:
REMARK  status: ('A' for Active; 'I' for Inactive)
REMARK    1  A    between atoms: C_1  and  C_2
REMARK    2  A    between atoms: C_5  and  C_6
REMARK    3  A    between atoms: C_7  and  N_8
REMARK    4  A    between atoms: N_8  and  N_9
REMARK    5  A    between atoms: C_10  and  C_11
REMARK    6  A    between atoms: C_16  and  O_17
REMARK                            x       y       z     vdW  Elec       q    Type
REMARK                         _______ _______ _______ _____ _____    ______ ____
ROOT
ATOM      1  N   UNL     1       6.591   4.092  18.036  0.00  0.00    +0.000 N 
ATOM      2  H   UNL     1       7.361   3.433  18.035  0.00  0.00    +0.000 HD
ENDROOT
BRANCH   1   9
ATOM      3  C   UNL     1       6.074   3.465  13.141  0.00  0.00    +0.000 C 
ATOM      4  C   UNL     1       5.948   4.342  14.350  0.00  0.00    +0.000 A 
ATOM      5  C   UNL     1       5.423   5.630  14.259  0.00  0.00    +0.000 A 
ATOM      6  C   UNL     1       5.312   6.420  15.401  0.00  0.00    +0.000 A 
ATOM      7  C   UNL     1       5.718   5.942  16.662  0.00  0.00    +0.000 A 
ATOM      8  C   UNL     1       5.566   6.848  17.852  0.00  0.00    +0.000 C 
ATOM      9  C   UNL     1       6.257   4.643  16.774  0.00  0.00    +0.000 A 
ATOM     10  C   UNL     1       6.351   3.863  15.605  0.00  0.00    +0.000 A 
ENDBRANCH   1   9
BRANCH   1  11
ATOM     11  N   UNL     1       5.619   4.022  18.979  0.00  0.00    +0.000 NA
ATOM     12  C   UNL     1       4.499   3.462  18.619  0.00  0.00    +0.000 C 
BRANCH  12  13
ATOM     13  C   UNL     1       3.388   3.312  19.582  0.00  0.00    +0.000 A 
ATOM     14  C   UNL     1       2.163   3.934  19.300  0.00  0.00    +0.000 A 
ATOM     15  C   UNL     1       1.080   3.770  20.162  0.00  0.00    +0.000 A 
ATOM     16  C   UNL     1       1.209   2.983  21.305  0.00  0.00    +0.000 A 
ATOM     17  C   UNL     1       2.433   2.379  21.606  0.00  0.00    +0.000 A 
ATOM     18  C   UNL     1       3.525   2.558  20.754  0.00  0.00    +0.000 A 
BRANCH  18  19
ATOM     19  O   UNL     1       4.731   2.000  21.083  0.00  0.00    +0.000 OA
ATOM     20  H   UNL     1       5.422   2.368  20.507  0.00  0.00    +0.000 HD
ENDBRANCH  18  19
ENDBRANCH  12  13
ENDBRANCH   1  11
TORSDOF 4
ENDMDL
MODEL 7
REMARK VINA RESULT:      -6.8      2.721      6.596
REMARK  Name = 
REMARK  6 active torsions:
REMARK  status: ('A' for Active; 'I' for Inactive)
REMARK    1  A    between atoms: C_1  and  C_2
REMARK    2  A    between atoms: C_5  and  C_6
REMARK    3  A    between atoms: C_7  and  N_8
REMARK    4  A    between atoms: N_8  and  N_9
REMARK    5  A    between atoms: C_10  and  C_11
REMARK    6  A    between atoms: C_16  and  O_17
REMARK                            x       y       z     vdW  Elec       q    Type
REMARK                         _______ _______ _______ _____ _____    ______ ____
ROOT
ATOM      1  N   UNL     1       4.509   6.914  16.866  0.00  0.00    +0.000 N 
ATOM      2  H   UNL     1       4.869   7.847  17.025  0.00  0.00    +0.000 HD
ENDROOT
BRANCH   1   9
ATOM      3  C   UNL     1       5.426   3.820  13.097  0.00  0.00    +0.000 C 
ATOM      4  C   UNL     1       5.894   4.511  14.342  0.00  0.00    +0.000 A 
ATOM      5  C   UNL     1       7.199   4.358  14.808  0.00  0.00    +0.000 A 
ATOM      6  C   UNL     1       7.608   5.019  15.965  0.00  0.00    +0.000 A 
ATOM      7  C   UNL     1       6.725   5.851  16.681  0.00  0.00    +0.000 A 
ATOM      8  C   UNL     1       7.235   6.535  17.919  0.00  0.00    +0.000 C 
ATOM      9  C   UNL     1       5.399   6.015  16.228  0.00  0.00    +0.000 A 
ATOM     10  C   UNL     1       5.015   5.342  15.052  0.00  0.00    +0.000 A 
ENDBRANCH   1   9
BRANCH   1  11
ATOM     11  N   UNL     1       3.547   6.395  17.670  0.00  0.00    +0.000 NA
ATOM     12  C   UNL     1       3.510   5.096  17.769  0.00  0.00    +0.000 C 
BRANCH  12  13
ATOM     13  C   UNL     1       2.517   4.435  18.640  0.00  0.00    +0.000 A 
ATOM     14  C   UNL     1       1.782   3.356  18.128  0.00  0.00    +0.000 A 
ATOM     15  C   UNL     1       0.876   2.678  18.942  0.00  0.00    +0.000 A 
ATOM     16  C   UNL     1       0.698   3.068  20.268  0.00  0.00    +0.000 A 
ATOM     17  C   UNL     1       1.408   4.157  20.779  0.00  0.00    +0.000 A 
ATOM     18  C   UNL     1       2.303   4.851  19.961  0.00  0.00    +0.000 A 
BRANCH  18  19
ATOM     19  O   UNL     1       2.959   5.944  20.459  0.00  0.00    +0.000 OA
ATOM     20  H   UNL     1       2.332   6.492  20.961  0.00  0.00    +0.000 HD
ENDBRANCH  18  19
ENDBRANCH  12  13
ENDBRANCH   1  11
TORSDOF 4
ENDMDL
MODEL 8
REMARK VINA RESULT:      -6.8      2.905      6.750
REMARK  Name = 
REMARK  6 active torsions:
REMARK  status: ('A' for Active; 'I' for Inactive)
REMARK    1  A    between atoms: C_1  and  C_2
REMARK    2  A    between atoms: C_5  and  C_6
REMARK    3  A    between atoms: C_7  and  N_8
REMARK    4  A    between atoms: N_8  and  N_9
REMARK    5  A    between atoms: C_10  and  C_11
REMARK    6  A    between atoms: C_16  and  O_17
REMARK                            x       y       z     vdW  Elec       q    Type
REMARK                         _______ _______ _______ _____ _____    ______ ____
ROOT
ATOM      1  N   UNL     1       4.401   6.601  17.035  0.00  0.00    +0.000 N 
ATOM      2  H   UNL     1       4.725   7.497  17.378  0.00  0.00    +0.000 HD
ENDROOT
BRANCH   1   9
ATOM      3  C   UNL     1       5.368   3.734  13.102  0.00  0.00    +0.000 C 
ATOM      4  C   UNL     1       5.856   4.473  14.311  0.00  0.00    +0.000 A 
ATOM      5  C   UNL     1       7.211   4.517  14.635  0.00  0.00    +0.000 A 
ATOM      6  C   UNL     1       7.637   5.217  15.762  0.00  0.00    +0.000 A 
ATOM      7  C   UNL     1       6.720   5.894  16.590  0.00  0.00    +0.000 A 
ATOM      8  C   UNL     1       7.249   6.632  17.788  0.00  0.00    +0.000 C 
ATOM      9  C   UNL     1       5.343   5.858  16.282  0.00  0.00    +0.000 A 
ATOM     10  C   UNL     1       4.942   5.149  15.133  0.00  0.00    +0.000 A 
ENDBRANCH   1   9
BRANCH   1  11
ATOM     11  N   UNL     1       3.426   5.919  17.686  0.00  0.00    +0.000 NA
ATOM     12  C   UNL     1       3.818   5.046  18.571  0.00  0.00    +0.000 C 
BRANCH  12  13
ATOM     13  C   UNL     1       2.833   4.272  19.354  0.00  0.00    +0.000 A 
ATOM     14  C   UNL     1       2.961   4.232  20.749  0.00  0.00    +0.000 A 
ATOM     15  C   UNL     1       2.018   3.554  21.520  0.00  0.00    +0.000 A 
ATOM     16  C   UNL     1       0.943   2.915  20.905  0.00  0.00    +0.000 A 
ATOM     17  C   UNL     1       0.820   2.928  19.514  0.00  0.00    +0.000 A 
ATOM     18  C   UNL     1       1.774   3.591  18.738  0.00  0.00    +0.000 A 
BRANCH  18  19
ATOM     19  O   UNL     1       1.670   3.559  17.373  0.00  0.00    +0.000 OA
ATOM     20  H   UNL     1       0.746   3.384  17.127  0.00  0.00    +0.000 HD
ENDBRANCH  18  19
ENDBRANCH  12  13
ENDBRANCH   1  11
TORSDOF 4
ENDMDL
MODEL 9
REMARK VINA RESULT:      -6.8      4.309      6.106
REMARK  Name = 
REMARK  6 active torsions:
REMARK  status: ('A' for Active; 'I' for Inactive)
REMARK    1  A    between atoms: C_1  and  C_2
REMARK    2  A    between atoms: C_5  and  C_6
REMARK    3  A    between atoms: C_7  and  N_8
REMARK    4  A    between atoms: N_8  and  N_9
REMARK    5  A    between atoms: C_10  and  C_11
REMARK    6  A    between atoms: C_16  and  O_17
REMARK                            x       y       z     vdW  Elec       q    Type
REMARK                         _______ _______ _______ _____ _____    ______ ____
ROOT
ATOM      1  N   UNL     1       3.735   4.778  18.176  0.00  0.00    +0.000 N 
ATOM      2  H   UNL     1       3.253   3.921  18.422  0.00  0.00    +0.000 HD
ENDROOT
BRANCH   1   9
ATOM      3  C   UNL     1       5.801   3.823  13.767  0.00  0.00    +0.000 C 
ATOM      4  C   UNL     1       5.955   4.194  15.212  0.00  0.00    +0.000 A 
ATOM      5  C   UNL     1       7.206   4.476  15.757  0.00  0.00    +0.000 A 
ATOM      6  C   UNL     1       7.319   4.824  17.102  0.00  0.00    +0.000 A 
ATOM      7  C   UNL     1       6.184   4.904  17.932  0.00  0.00    +0.000 A 
ATOM      8  C   UNL     1       6.378   5.290  19.372  0.00  0.00    +0.000 C 
ATOM      9  C   UNL     1       4.908   4.619  17.399  0.00  0.00    +0.000 A 
ATOM     10  C   UNL     1       4.824   4.277  16.036  0.00  0.00    +0.000 A 
ENDBRANCH   1   9
BRANCH   1  11
ATOM     11  N   UNL     1       3.059   5.950  18.078  0.00  0.00    +0.000 NA
ATOM     12  C   UNL     1       2.731   6.529  19.199  0.00  0.00    +0.000 C 
BRANCH  12  13
ATOM     13  C   UNL     1       2.018   7.823  19.199  0.00  0.00    +0.000 A 
ATOM     14  C   UNL     1       1.804   8.476  17.977  0.00  0.00    +0.000 A 
ATOM     15  C   UNL     1       1.089   9.672  17.938  0.00  0.00    +0.000 A 
ATOM     16  C   UNL     1       0.581  10.221  19.114  0.00  0.00    +0.000 A 
ATOM     17  C   UNL     1       0.810   9.589  20.339  0.00  0.00    +0.000 A 
ATOM     18  C   UNL     1       1.543   8.401  20.383  0.00  0.00    +0.000 A 
BRANCH  18  19
ATOM     19  O   UNL     1       1.800   7.816  21.594  0.00  0.00    +0.000 OA
ATOM     20  H   UNL     1       2.037   8.504  22.238  0.00  0.00    +0.000 HD
ENDBRANCH  18  19
ENDBRANCH  12  13
ENDBRANCH   1  11
TORSDOF 4
ENDMDL
