MODEL 1
REMARK VINA RESULT:      -7.9      0.000      0.000
REMARK  Name = 
REMARK  11 active torsions:
REMARK  status: ('A' for Active; 'I' for Inactive)
REMARK    1  A    between atoms: C_1  and  C_2
REMARK    2  A    between atoms: C_2  and  C_3
REMARK    3  A    between atoms: C_3  and  C_4
REMARK    4  A    between atoms: C_3  and  C_7
REMARK    5  A    between atoms: C_4  and  O_6
REMARK    6  A    between atoms: C_12  and  O_13
REMARK    7  A    between atoms: O_13  and  C_14
REMARK    8  A    between atoms: C_14  and  C_15
REMARK    9  A    between atoms: C_15  and  C_16
REMARK   10  A    between atoms: C_18  and  C_19
REMARK   11  A    between atoms: C_27  and  C_28
REMARK                            x       y       z     vdW  Elec       q    Type
REMARK                         _______ _______ _______ _____ _____    ______ ____
ROOT
ATOM      1  C   UNL     1       0.749  10.736  19.747  0.00  0.00    +0.000 C 
ATOM      2  C   UNL     1       0.571  10.393  21.258  0.00  0.00    +0.000 C 
ATOM      3  C   UNL     1       0.539   8.870  21.382  0.00  0.00    +0.000 C 
ATOM      4  C   UNL     1       1.388   8.473  20.220  0.00  0.00    +0.000 A 
ATOM      5  C   UNL     1       2.029   7.253  20.042  0.00  0.00    +0.000 A 
ATOM      6  C   UNL     1       2.745   7.031  18.862  0.00  0.00    +0.000 A 
ATOM      7  C   UNL     1       2.732   8.006  17.859  0.00  0.00    +0.000 A 
ATOM      8  C   UNL     1       2.065   9.225  18.041  0.00  0.00    +0.000 A 
ATOM      9  C   UNL     1       1.442   9.481  19.255  0.00  0.00    +0.000 A 
ENDROOT
BRANCH   1  10
ATOM     10  C   UNL     1       1.453  12.112  19.578  0.00  0.00    +0.000 C 
BRANCH  10  12
ATOM     11  C   UNL     1       2.575  13.906  21.015  0.00  0.00    +0.000 C 
ATOM     12  C   UNL     1       1.341  13.035  20.802  0.00  0.00    +0.000 C 
ENDBRANCH  10  12
BRANCH  10  13
ATOM     13  C   UNL     1       0.992  12.801  18.307  0.00  0.00    +0.000 C 
ATOM     14  O   UNL     1      -0.099  13.329  18.142  0.00  0.00    +0.000 OA
BRANCH  13  15
ATOM     15  O   UNL     1       1.961  12.905  17.387  0.00  0.00    +0.000 OA
ATOM     16  H   UNL     1       1.871  13.799  17.003  0.00  0.00    +0.000 HD
ENDBRANCH  13  15
ENDBRANCH  10  13
ENDBRANCH   1  10
BRANCH   6  17
ATOM     17  O   UNL     1       3.485   5.910  18.578  0.00  0.00    +0.000 OA
BRANCH  17  18
ATOM     18  C   UNL     1       3.848   5.114  19.707  0.00  0.00    +0.000 C 
BRANCH  18  19
ATOM     19  C   UNL     1       4.771   3.979  19.277  0.00  0.00    +0.000 C 
BRANCH  19  20
ATOM     20  C   UNL     1       5.682   4.427  18.192  0.00  0.00    +0.000 A 
ATOM     21  N   UNL     1       5.435   4.073  16.880  0.00  0.00    +0.000 NA
ATOM     22  C   UNL     1       6.445   4.587  16.208  0.00  0.00    +0.000 A 
ATOM     23  O   UNL     1       7.353   5.251  16.986  0.00  0.00    +0.000 OA
ATOM     24  C   UNL     1       6.856   5.148  18.257  0.00  0.00    +0.000 A 
ATOM     25  C   UNL     1       7.640   5.778  19.329  0.00  0.00    +0.000 C 
BRANCH  22  26
ATOM     26  C   UNL     1       6.711   4.554  14.772  0.00  0.00    +0.000 A 
ATOM     27  C   UNL     1       5.941   3.729  13.943  0.00  0.00    +0.000 A 
ATOM     28  C   UNL     1       6.161   3.695  12.558  0.00  0.00    +0.000 A 
ATOM     29  C   UNL     1       7.157   4.489  12.011  0.00  0.00    +0.000 A 
ATOM     30  F   UNL     1       7.366   4.463  10.687  0.00  0.00    +0.000 F 
ATOM     31  C   UNL     1       7.946   5.312  12.807  0.00  0.00    +0.000 A 
ATOM     32  C   UNL     1       7.720   5.343  14.190  0.00  0.00    +0.000 A 
ENDBRANCH  22  26
ENDBRANCH  19  20
ENDBRANCH  18  19
ENDBRANCH  17  18
ENDBRANCH   6  17
TORSDOF 9
ENDMDL
MODEL 2
REMARK VINA RESULT:      -7.9      0.736      1.179
REMARK  Name = 
REMARK  11 active torsions:
REMARK  status: ('A' for Active; 'I' for Inactive)
REMARK    1  A    between atoms: C_1  and  C_2
REMARK    2  A    between atoms: C_2  and  C_3
REMARK    3  A    between atoms: C_3  and  C_4
REMARK    4  A    between atoms: C_3  and  C_7
REMARK    5  A    between atoms: C_4  and  O_6
REMARK    6  A    between atoms: C_12  and  O_13
REMARK    7  A    between atoms: O_13  and  C_14
REMARK    8  A    between atoms: C_14  and  C_15
REMARK    9  A    between atoms: C_15  and  C_16
REMARK   10  A    between atoms: C_18  and  C_19
REMARK   11  A    between atoms: C_27  and  C_28
REMARK                            x       y       z     vdW  Elec       q    Type
REMARK                         _______ _______ _______ _____ _____    ______ ____
ROOT
ATOM      1  C   UNL     1       0.209  10.631  19.814  0.00  0.00    +0.000 C 
ATOM      2  C   UNL     1       0.250  10.433  21.360  0.00  0.00    +0.000 C 
ATOM      3  C   UNL     1       0.438   8.939  21.626  0.00  0.00    +0.000 C 
ATOM      4  C   UNL     1       1.199   8.528  20.409  0.00  0.00    +0.000 A 
ATOM      5  C   UNL     1       1.975   7.385  20.264  0.00  0.00    +0.000 A 
ATOM      6  C   UNL     1       2.578   7.128  19.030  0.00  0.00    +0.000 A 
ATOM      7  C   UNL     1       2.321   7.980  17.951  0.00  0.00    +0.000 A 
ATOM      8  C   UNL     1       1.519   9.120  18.103  0.00  0.00    +0.000 A 
ATOM      9  C   UNL     1       1.007   9.426  19.356  0.00  0.00    +0.000 A 
ENDROOT
BRANCH   1  10
ATOM     10  C   UNL     1       0.696  12.057  19.432  0.00  0.00    +0.000 C 
BRANCH  10  12
ATOM     11  C   UNL     1       2.635  13.532  20.208  0.00  0.00    +0.000 C 
ATOM     12  C   UNL     1       1.331  12.840  20.591  0.00  0.00    +0.000 C 
ENDBRANCH  10  12
BRANCH  10  13
ATOM     13  C   UNL     1      -0.414  12.844  18.760  0.00  0.00    +0.000 C 
ATOM     14  O   UNL     1      -0.482  14.063  18.698  0.00  0.00    +0.000 OA
BRANCH  13  15
ATOM     15  O   UNL     1      -1.282  12.065  18.099  0.00  0.00    +0.000 OA
ATOM     16  H   UNL     1      -0.896  11.167  18.107  0.00  0.00    +0.000 HD
ENDBRANCH  13  15
ENDBRANCH  10  13
ENDBRANCH   1  10
BRANCH   6  17
ATOM     17  O   UNL     1       3.427   6.084  18.760  0.00  0.00    +0.000 OA
BRANCH  17  18
ATOM     18  C   UNL     1       3.476   5.061  19.756  0.00  0.00    +0.000 C 
BRANCH  18  19
ATOM     19  C   UNL     1       4.289   3.873  19.253  0.00  0.00    +0.000 C 
BRANCH  19  20
ATOM     20  C   UNL     1       5.256   4.305  18.210  0.00  0.00    +0.000 A 
ATOM     21  N   UNL     1       5.058   3.962  16.887  0.00  0.00    +0.000 NA
ATOM     22  C   UNL     1       6.108   4.455  16.262  0.00  0.00    +0.000 A 
ATOM     23  O   UNL     1       6.996   5.095  17.081  0.00  0.00    +0.000 OA
ATOM     24  C   UNL     1       6.442   4.998  18.329  0.00  0.00    +0.000 A 
ATOM     25  C   UNL     1       7.194   5.606  19.437  0.00  0.00    +0.000 C 
BRANCH  22  26
ATOM     26  C   UNL     1       6.434   4.422  14.838  0.00  0.00    +0.000 A 
ATOM     27  C   UNL     1       7.479   5.215  14.348  0.00  0.00    +0.000 A 
ATOM     28  C   UNL     1       7.827   5.185  12.989  0.00  0.00    +0.000 A 
ATOM     29  C   UNL     1       7.123   4.359  12.127  0.00  0.00    +0.000 A 
ATOM     30  F   UNL     1       7.457   4.323  10.830  0.00  0.00    +0.000 F 
ATOM     31  C   UNL     1       6.075   3.566  12.581  0.00  0.00    +0.000 A 
ATOM     32  C   UNL     1       5.732   3.598  13.939  0.00  0.00    +0.000 A 
ENDBRANCH  22  26
ENDBRANCH  19  20
ENDBRANCH  18  19
ENDBRANCH  17  18
ENDBRANCH   6  17
TORSDOF 9
ENDMDL
MODEL 3
REMARK VINA RESULT:      -7.8      4.116      9.366
REMARK  Name = 
REMARK  11 active torsions:
REMARK  status: ('A' for Active; 'I' for Inactive)
REMARK    1  A    between atoms: C_1  and  C_2
REMARK    2  A    between atoms: C_2  and  C_3
REMARK    3  A    between atoms: C_3  and  C_4
REMARK    4  A    between atoms: C_3  and  C_7
REMARK    5  A    between atoms: C_4  and  O_6
REMARK    6  A    between atoms: C_12  and  O_13
REMARK    7  A    between atoms: O_13  and  C_14
REMARK    8  A    between atoms: C_14  and  C_15
REMARK    9  A    between atoms: C_15  and  C_16
REMARK   10  A    between atoms: C_18  and  C_19
REMARK   11  A    between atoms: C_27  and  C_28
REMARK                            x       y       z     vdW  Elec       q    Type
REMARK                         _______ _______ _______ _____ _____    ______ ____
ROOT
ATOM      1  C   UNL     1       3.414   4.999  17.669  0.00  0.00    +0.000 C 
ATOM      2  C   UNL     1       4.172   6.211  17.044  0.00  0.00    +0.000 C 
ATOM      3  C   UNL     1       3.391   7.475  17.402  0.00  0.00    +0.000 C 
ATOM      4  C   UNL     1       2.773   7.069  18.699  0.00  0.00    +0.000 A 
ATOM      5  C   UNL     1       2.271   7.917  19.678  0.00  0.00    +0.000 A 
ATOM      6  C   UNL     1       1.676   7.362  20.814  0.00  0.00    +0.000 A 
ATOM      7  C   UNL     1       1.528   5.973  20.901  0.00  0.00    +0.000 A 
ATOM      8  C   UNL     1       2.021   5.128  19.898  0.00  0.00    +0.000 A 
ATOM      9  C   UNL     1       2.701   5.679  18.821  0.00  0.00    +0.000 A 
ENDROOT
BRANCH   1  10
ATOM     10  C   UNL     1       4.397   3.831  17.962  0.00  0.00    +0.000 C 
BRANCH  10  12
ATOM     11  C   UNL     1       3.630   1.421  18.337  0.00  0.00    +0.000 C 
ATOM     12  C   UNL     1       3.865   2.792  18.961  0.00  0.00    +0.000 C 
ENDBRANCH  10  12
BRANCH  10  13
ATOM     13  C   UNL     1       5.758   4.362  18.370  0.00  0.00    +0.000 C 
ATOM     14  O   UNL     1       6.037   4.838  19.461  0.00  0.00    +0.000 OA
BRANCH  13  15
ATOM     15  O   UNL     1       6.705   4.138  17.447  0.00  0.00    +0.000 OA
ATOM     16  H   UNL     1       7.244   4.953  17.413  0.00  0.00    +0.000 HD
ENDBRANCH  13  15
ENDBRANCH  10  13
ENDBRANCH   1  10
BRANCH   6  17
ATOM     17  O   UNL     1       1.203   8.068  21.892  0.00  0.00    +0.000 OA
BRANCH  17  18
ATOM     18  C   UNL     1      -0.035   8.748  21.683  0.00  0.00    +0.000 C 
BRANCH  18  19
ATOM     19  C   UNL     1       0.195  10.254  21.612  0.00  0.00    +0.000 C 
BRANCH  19  20
ATOM     20  C   UNL     1      -0.678  10.869  20.579  0.00  0.00    +0.000 A 
ATOM     21  N   UNL     1      -1.066  10.144  19.468  0.00  0.00    +0.000 NA
ATOM     22  C   UNL     1      -1.776  10.995  18.756  0.00  0.00    +0.000 A 
ATOM     23  O   UNL     1      -1.880  12.240  19.312  0.00  0.00    +0.000 OA
ATOM     24  C   UNL     1      -1.177  12.151  20.483  0.00  0.00    +0.000 A 
ATOM     25  C   UNL     1      -1.110  13.365  21.310  0.00  0.00    +0.000 C 
BRANCH  22  26
ATOM     26  C   UNL     1      -2.464  10.785  17.484  0.00  0.00    +0.000 A 
ATOM     27  C   UNL     1      -1.963   9.850  16.570  0.00  0.00    +0.000 A 
ATOM     28  C   UNL     1      -2.616   9.613  15.352  0.00  0.00    +0.000 A 
ATOM     29  C   UNL     1      -3.772  10.320  15.055  0.00  0.00    +0.000 A 
ATOM     30  F   UNL     1      -4.402  10.092  13.894  0.00  0.00    +0.000 F 
ATOM     31  C   UNL     1      -4.290  11.261  15.936  0.00  0.00    +0.000 A 
ATOM     32  C   UNL     1      -3.634  11.492  17.152  0.00  0.00    +0.000 A 
ENDBRANCH  22  26
ENDBRANCH  19  20
ENDBRANCH  18  19
ENDBRANCH  17  18
ENDBRANCH   6  17
TORSDOF 9
ENDMDL
MODEL 4
REMARK VINA RESULT:      -7.7      1.261      1.879
REMARK  Name = 
REMARK  11 active torsions:
REMARK  status: ('A' for Active; 'I' for Inactive)
REMARK    1  A    between atoms: C_1  and  C_2
REMARK    2  A    between atoms: C_2  and  C_3
REMARK    3  A    between atoms: C_3  and  C_4
REMARK    4  A    between atoms: C_3  and  C_7
REMARK    5  A    between atoms: C_4  and  O_6
REMARK    6  A    between atoms: C_12  and  O_13
REMARK    7  A    between atoms: O_13  and  C_14
REMARK    8  A    between atoms: C_14  and  C_15
REMARK    9  A    between atoms: C_15  and  C_16
REMARK   10  A    between atoms: C_18  and  C_19
REMARK   11  A    between atoms: C_27  and  C_28
REMARK                            x       y       z     vdW  Elec       q    Type
REMARK                         _______ _______ _______ _____ _____    ______ ____
ROOT
ATOM      1  C   UNL     1      -0.006  10.796  19.731  0.00  0.00    +0.000 C 
ATOM      2  C   UNL     1       0.095  10.639  21.280  0.00  0.00    +0.000 C 
ATOM      3  C   UNL     1       0.349   9.161  21.575  0.00  0.00    +0.000 C 
ATOM      4  C   UNL     1       1.083   8.748  20.342  0.00  0.00    +0.000 A 
ATOM      5  C   UNL     1       1.897   7.631  20.198  0.00  0.00    +0.000 A 
ATOM      6  C   UNL     1       2.467   7.365  18.950  0.00  0.00    +0.000 A 
ATOM      7  C   UNL     1       2.141   8.180  17.860  0.00  0.00    +0.000 A 
ATOM      8  C   UNL     1       1.302   9.292  18.012  0.00  0.00    +0.000 A 
ATOM      9  C   UNL     1       0.821   9.611  19.275  0.00  0.00    +0.000 A 
ENDROOT
BRANCH   1  10
ATOM     10  C   UNL     1       0.413  12.230  19.299  0.00  0.00    +0.000 C 
BRANCH  10  12
ATOM     11  C   UNL     1       2.227  13.677  20.371  0.00  0.00    +0.000 C 
ATOM     12  C   UNL     1       0.797  13.155  20.463  0.00  0.00    +0.000 C 
ENDBRANCH  10  12
BRANCH  10  13
ATOM     13  C   UNL     1      -0.644  12.854  18.406  0.00  0.00    +0.000 C 
ATOM     14  O   UNL     1      -1.552  12.250  17.853  0.00  0.00    +0.000 OA
BRANCH  13  15
ATOM     15  O   UNL     1      -0.579  14.193  18.376  0.00  0.00    +0.000 OA
ATOM     16  H   UNL     1      -1.083  14.503  19.154  0.00  0.00    +0.000 HD
ENDBRANCH  13  15
ENDBRANCH  10  13
ENDBRANCH   1  10
BRANCH   6  17
ATOM     17  O   UNL     1       3.346   6.347  18.676  0.00  0.00    +0.000 OA
BRANCH  17  18
ATOM     18  C   UNL     1       3.751   5.568  19.802  0.00  0.00    +0.000 C 
BRANCH  18  19
ATOM     19  C   UNL     1       4.985   4.742  19.456  0.00  0.00    +0.000 C 
BRANCH  19  20
ATOM     20  C   UNL     1       4.904   4.240  18.059  0.00  0.00    +0.000 A 
ATOM     21  N   UNL     1       5.775   4.710  17.095  0.00  0.00    +0.000 NA
ATOM     22  C   UNL     1       5.396   4.102  15.989  0.00  0.00    +0.000 A 
ATOM     23  O   UNL     1       4.325   3.267  16.150  0.00  0.00    +0.000 OA
ATOM     24  C   UNL     1       4.017   3.357  17.481  0.00  0.00    +0.000 A 
ATOM     25  C   UNL     1       2.881   2.553  17.954  0.00  0.00    +0.000 C 
BRANCH  22  26
ATOM     26  C   UNL     1       5.964   4.191  14.646  0.00  0.00    +0.000 A 
ATOM     27  C   UNL     1       7.092   4.990  14.421  0.00  0.00    +0.000 A 
ATOM     28  C   UNL     1       7.670   5.075  13.146  0.00  0.00    +0.000 A 
ATOM     29  C   UNL     1       7.110   4.357  12.099  0.00  0.00    +0.000 A 
ATOM     30  F   UNL     1       7.664   4.432  10.881  0.00  0.00    +0.000 F 
ATOM     31  C   UNL     1       5.986   3.562  12.288  0.00  0.00    +0.000 A 
ATOM     32  C   UNL     1       5.414   3.480  13.564  0.00  0.00    +0.000 A 
ENDBRANCH  22  26
ENDBRANCH  19  20
ENDBRANCH  18  19
ENDBRANCH  17  18
ENDBRANCH   6  17
TORSDOF 9
ENDMDL
MODEL 5
REMARK VINA RESULT:      -7.6      1.608      2.477
REMARK  Name = 
REMARK  11 active torsions:
REMARK  status: ('A' for Active; 'I' for Inactive)
REMARK    1  A    between atoms: C_1  and  C_2
REMARK    2  A    between atoms: C_2  and  C_3
REMARK    3  A    between atoms: C_3  and  C_4
REMARK    4  A    between atoms: C_3  and  C_7
REMARK    5  A    between atoms: C_4  and  O_6
REMARK    6  A    between atoms: C_12  and  O_13
REMARK    7  A    between atoms: O_13  and  C_14
REMARK    8  A    between atoms: C_14  and  C_15
REMARK    9  A    between atoms: C_15  and  C_16
REMARK   10  A    between atoms: C_18  and  C_19
REMARK   11  A    between atoms: C_27  and  C_28
REMARK                            x       y       z     vdW  Elec       q    Type
REMARK                         _______ _______ _______ _____ _____    ______ ____
ROOT
ATOM      1  C   UNL     1       1.423   9.460  19.630  0.00  0.00    +0.000 C 
ATOM      2  C   UNL     1       1.646   9.555  18.089  0.00  0.00    +0.000 C 
ATOM      3  C   UNL     1       2.567   8.403  17.688  0.00  0.00    +0.000 C 
ATOM      4  C   UNL     1       2.217   7.386  18.723  0.00  0.00    +0.000 A 
ATOM      5  C   UNL     1       2.443   6.017  18.650  0.00  0.00    +0.000 A 
ATOM      6  C   UNL     1       2.099   5.214  19.740  0.00  0.00    +0.000 A 
ATOM      7  C   UNL     1       1.611   5.815  20.906  0.00  0.00    +0.000 A 
ATOM      8  C   UNL     1       1.406   7.200  20.977  0.00  0.00    +0.000 A 
ATOM      9  C   UNL     1       1.654   7.979  19.856  0.00  0.00    +0.000 A 
ENDROOT
BRANCH   1  10
ATOM     10  C   UNL     1       0.057  10.088  20.024  0.00  0.00    +0.000 C 
BRANCH  10  12
ATOM     11  C   UNL     1      -0.625  12.150  18.674  0.00  0.00    +0.000 C 
ATOM     12  C   UNL     1      -0.752  10.640  18.840  0.00  0.00    +0.000 C 
ENDBRANCH  10  12
BRANCH  10  13
ATOM     13  C   UNL     1       0.235  11.124  21.118  0.00  0.00    +0.000 C 
ATOM     14  O   UNL     1       1.193  11.875  21.235  0.00  0.00    +0.000 OA
BRANCH  13  15
ATOM     15  O   UNL     1      -0.846  11.249  21.902  0.00  0.00    +0.000 OA
ATOM     16  H   UNL     1      -0.985  10.371  22.307  0.00  0.00    +0.000 HD
ENDBRANCH  13  15
ENDBRANCH  10  13
ENDBRANCH   1  10
BRANCH   6  17
ATOM     17  O   UNL     1       2.195   3.846  19.785  0.00  0.00    +0.000 OA
BRANCH  17  18
ATOM     18  C   UNL     1       2.784   3.236  18.635  0.00  0.00    +0.000 C 
BRANCH  18  19
ATOM     19  C   UNL     1       4.256   2.937  18.893  0.00  0.00    +0.000 C 
BRANCH  19  20
ATOM     20  C   UNL     1       5.117   3.686  17.940  0.00  0.00    +0.000 A 
ATOM     21  N   UNL     1       5.112   3.371  16.596  0.00  0.00    +0.000 NA
ATOM     22  C   UNL     1       6.006   4.181  16.067  0.00  0.00    +0.000 A 
ATOM     23  O   UNL     1       6.614   5.008  16.971  0.00  0.00    +0.000 OA
ATOM     24  C   UNL     1       6.036   4.688  18.170  0.00  0.00    +0.000 A 
ATOM     25  C   UNL     1       6.504   5.429  19.350  0.00  0.00    +0.000 C 
BRANCH  22  26
ATOM     26  C   UNL     1       6.417   4.319  14.672  0.00  0.00    +0.000 A 
ATOM     27  C   UNL     1       5.722   3.628  13.672  0.00  0.00    +0.000 A 
ATOM     28  C   UNL     1       6.082   3.760  12.323  0.00  0.00    +0.000 A 
ATOM     29  C   UNL     1       7.142   4.586  11.983  0.00  0.00    +0.000 A 
ATOM     30  F   UNL     1       7.485   4.720  10.694  0.00  0.00    +0.000 F 
ATOM     31  C   UNL     1       7.859   5.279  12.952  0.00  0.00    +0.000 A 
ATOM     32  C   UNL     1       7.494   5.145  14.298  0.00  0.00    +0.000 A 
ENDBRANCH  22  26
ENDBRANCH  19  20
ENDBRANCH  18  19
ENDBRANCH  17  18
ENDBRANCH   6  17
TORSDOF 9
ENDMDL
MODEL 6
REMARK VINA RESULT:      -7.6      1.111      1.474
REMARK  Name = 
REMARK  11 active torsions:
REMARK  status: ('A' for Active; 'I' for Inactive)
REMARK    1  A    between atoms: C_1  and  C_2
REMARK    2  A    between atoms: C_2  and  C_3
REMARK    3  A    between atoms: C_3  and  C_4
REMARK    4  A    between atoms: C_3  and  C_7
REMARK    5  A    between atoms: C_4  and  O_6
REMARK    6  A    between atoms: C_12  and  O_13
REMARK    7  A    between atoms: O_13  and  C_14
REMARK    8  A    between atoms: C_14  and  C_15
REMARK    9  A    between atoms: C_15  and  C_16
REMARK   10  A    between atoms: C_18  and  C_19
REMARK   11  A    between atoms: C_27  and  C_28
REMARK                            x       y       z     vdW  Elec       q    Type
REMARK                         _______ _______ _______ _____ _____    ______ ____
ROOT
ATOM      1  C   UNL     1       0.006  10.659  19.669  0.00  0.00    +0.000 C 
ATOM      2  C   UNL     1      -0.374  10.676  21.182  0.00  0.00    +0.000 C 
ATOM      3  C   UNL     1      -0.358   9.229  21.674  0.00  0.00    +0.000 C 
ATOM      4  C   UNL     1       0.668   8.632  20.768  0.00  0.00    +0.000 A 
ATOM      5  C   UNL     1       1.380   7.458  20.982  0.00  0.00    +0.000 A 
ATOM      6  C   UNL     1       2.268   7.016  19.998  0.00  0.00    +0.000 A 
ATOM      7  C   UNL     1       2.358   7.717  18.791  0.00  0.00    +0.000 A 
ATOM      8  C   UNL     1       1.619   8.889  18.577  0.00  0.00    +0.000 A 
ATOM      9  C   UNL     1       0.817   9.380  19.598  0.00  0.00    +0.000 A 
ENDROOT
BRANCH   1  10
ATOM     10  C   UNL     1       0.666  12.004  19.256  0.00  0.00    +0.000 C 
BRANCH  10  12
ATOM     11  C   UNL     1       2.612  13.476  20.020  0.00  0.00    +0.000 C 
ATOM     12  C   UNL     1       1.318  12.772  20.415  0.00  0.00    +0.000 C 
ENDBRANCH  10  12
BRANCH  10  13
ATOM     13  C   UNL     1      -0.313  12.871  18.485  0.00  0.00    +0.000 C 
ATOM     14  O   UNL     1      -0.352  14.092  18.511  0.00  0.00    +0.000 OA
BRANCH  13  15
ATOM     15  O   UNL     1      -1.078  12.169  17.636  0.00  0.00    +0.000 OA
ATOM     16  H   UNL     1      -0.508  11.963  16.869  0.00  0.00    +0.000 HD
ENDBRANCH  13  15
ENDBRANCH  10  13
ENDBRANCH   1  10
BRANCH   6  17
ATOM     17  O   UNL     1       3.089   5.921  20.100  0.00  0.00    +0.000 OA
BRANCH  17  18
ATOM     18  C   UNL     1       3.796   5.573  18.909  0.00  0.00    +0.000 C 
BRANCH  18  19
ATOM     19  C   UNL     1       5.300   5.648  19.147  0.00  0.00    +0.000 C 
BRANCH  19  20
ATOM     20  C   UNL     1       6.029   5.781  17.858  0.00  0.00    +0.000 A 
ATOM     21  N   UNL     1       5.695   4.984  16.780  0.00  0.00    +0.000 NA
ATOM     22  C   UNL     1       6.555   5.327  15.843  0.00  0.00    +0.000 A 
ATOM     23  O   UNL     1       7.445   6.291  16.227  0.00  0.00    +0.000 OA
ATOM     24  C   UNL     1       7.100   6.580  17.520  0.00  0.00    +0.000 A 
ATOM     25  C   UNL     1       7.903   7.602  18.207  0.00  0.00    +0.000 C 
BRANCH  22  26
ATOM     26  C   UNL     1       6.672   4.833  14.472  0.00  0.00    +0.000 A 
ATOM     27  C   UNL     1       7.710   5.297  13.655  0.00  0.00    +0.000 A 
ATOM     28  C   UNL     1       7.859   4.823  12.344  0.00  0.00    +0.000 A 
ATOM     29  C   UNL     1       6.961   3.885  11.856  0.00  0.00    +0.000 A 
ATOM     30  F   UNL     1       7.104   3.426  10.605  0.00  0.00    +0.000 F 
ATOM     31  C   UNL     1       5.915   3.412  12.639  0.00  0.00    +0.000 A 
ATOM     32  C   UNL     1       5.772   3.887  13.949  0.00  0.00    +0.000 A 
ENDBRANCH  22  26
ENDBRANCH  19  20
ENDBRANCH  18  19
ENDBRANCH  17  18
ENDBRANCH   6  17
TORSDOF 9
ENDMDL
MODEL 7
REMARK VINA RESULT:      -7.5      3.968      9.334
REMARK  Name = 
REMARK  11 active torsions:
REMARK  status: ('A' for Active; 'I' for Inactive)
REMARK    1  A    between atoms: C_1  and  C_2
REMARK    2  A    between atoms: C_2  and  C_3
REMARK    3  A    between atoms: C_3  and  C_4
REMARK    4  A    between atoms: C_3  and  C_7
REMARK    5  A    between atoms: C_4  and  O_6
REMARK    6  A    between atoms: C_12  and  O_13
REMARK    7  A    between atoms: O_13  and  C_14
REMARK    8  A    between atoms: C_14  and  C_15
REMARK    9  A    between atoms: C_15  and  C_16
REMARK   10  A    between atoms: C_18  and  C_19
REMARK   11  A    between atoms: C_27  and  C_28
REMARK                            x       y       z     vdW  Elec       q    Type
REMARK                         _______ _______ _______ _____ _____    ______ ____
ROOT
ATOM      1  C   UNL     1       4.343   4.808  17.332  0.00  0.00    +0.000 C 
ATOM      2  C   UNL     1       5.226   5.798  16.511  0.00  0.00    +0.000 C 
ATOM      3  C   UNL     1       4.420   7.083  16.325  0.00  0.00    +0.000 C 
ATOM      4  C   UNL     1       3.575   7.069  17.555  0.00  0.00    +0.000 A 
ATOM      5  C   UNL     1       2.925   8.156  18.126  0.00  0.00    +0.000 A 
ATOM      6  C   UNL     1       2.127   7.952  19.255  0.00  0.00    +0.000 A 
ATOM      7  C   UNL     1       1.937   6.651  19.733  0.00  0.00    +0.000 A 
ATOM      8  C   UNL     1       2.582   5.558  19.137  0.00  0.00    +0.000 A 
ATOM      9  C   UNL     1       3.453   5.780  18.080  0.00  0.00    +0.000 A 
ENDROOT
BRANCH   1  10
ATOM     10  C   UNL     1       5.235   3.818  18.135  0.00  0.00    +0.000 C 
BRANCH  10  12
ATOM     11  C   UNL     1       3.627   1.906  18.683  0.00  0.00    +0.000 C 
ATOM     12  C   UNL     1       4.489   3.039  19.229  0.00  0.00    +0.000 C 
ENDBRANCH  10  12
BRANCH  10  13
ATOM     13  C   UNL     1       6.465   4.519  18.679  0.00  0.00    +0.000 C 
ATOM     14  O   UNL     1       6.493   5.239  19.667  0.00  0.00    +0.000 OA
BRANCH  13  15
ATOM     15  O   UNL     1       7.592   4.169  18.042  0.00  0.00    +0.000 OA
ATOM     16  H   UNL     1       7.536   3.202  17.912  0.00  0.00    +0.000 HD
ENDBRANCH  13  15
ENDBRANCH  10  13
ENDBRANCH   1  10
BRANCH   6  17
ATOM     17  O   UNL     1       1.486   8.936  19.966  0.00  0.00    +0.000 OA
BRANCH  17  18
ATOM     18  C   UNL     1       1.250   8.639  21.344  0.00  0.00    +0.000 C 
BRANCH  18  19
ATOM     19  C   UNL     1       0.435   9.754  21.991  0.00  0.00    +0.000 C 
BRANCH  19  20
ATOM     20  C   UNL     1      -0.319  10.517  20.961  0.00  0.00    +0.000 A 
ATOM     21  N   UNL     1      -0.934   9.860  19.915  0.00  0.00    +0.000 NA
ATOM     22  C   UNL     1      -1.455  10.825  19.184  0.00  0.00    +0.000 A 
ATOM     23  O   UNL     1      -1.218  12.082  19.669  0.00  0.00    +0.000 OA
ATOM     24  C   UNL     1      -0.492  11.877  20.812  0.00  0.00    +0.000 A 
ATOM     25  C   UNL     1      -0.083  13.074  21.561  0.00  0.00    +0.000 C 
BRANCH  22  26
ATOM     26  C   UNL     1      -2.245  10.733  17.958  0.00  0.00    +0.000 A 
ATOM     27  C   UNL     1      -1.827   9.883  16.927  0.00  0.00    +0.000 A 
ATOM     28  C   UNL     1      -2.579   9.759  15.749  0.00  0.00    +0.000 A 
ATOM     29  C   UNL     1      -3.748  10.492  15.611  0.00  0.00    +0.000 A 
ATOM     30  F   UNL     1      -4.471  10.371  14.490  0.00  0.00    +0.000 F 
ATOM     31  C   UNL     1      -4.185  11.351  16.613  0.00  0.00    +0.000 A 
ATOM     32  C   UNL     1      -3.431  11.470  17.788  0.00  0.00    +0.000 A 
ENDBRANCH  22  26
ENDBRANCH  19  20
ENDBRANCH  18  19
ENDBRANCH  17  18
ENDBRANCH   6  17
TORSDOF 9
ENDMDL
MODEL 8
REMARK VINA RESULT:      -7.5      1.893      2.609
REMARK  Name = 
REMARK  11 active torsions:
REMARK  status: ('A' for Active; 'I' for Inactive)
REMARK    1  A    between atoms: C_1  and  C_2
REMARK    2  A    between atoms: C_2  and  C_3
REMARK    3  A    between atoms: C_3  and  C_4
REMARK    4  A    between atoms: C_3  and  C_7
REMARK    5  A    between atoms: C_4  and  O_6
REMARK    6  A    between atoms: C_12  and  O_13
REMARK    7  A    between atoms: O_13  and  C_14
REMARK    8  A    between atoms: C_14  and  C_15
REMARK    9  A    between atoms: C_15  and  C_16
REMARK   10  A    between atoms: C_18  and  C_19
REMARK   11  A    between atoms: C_27  and  C_28
REMARK                            x       y       z     vdW  Elec       q    Type
REMARK                         _______ _______ _______ _____ _____    ______ ____
ROOT
ATOM      1  C   UNL     1       0.544  10.872  20.071  0.00  0.00    +0.000 C 
ATOM      2  C   UNL     1       0.669  11.041  18.526  0.00  0.00    +0.000 C 
ATOM      3  C   UNL     1       1.763  10.087  18.047  0.00  0.00    +0.000 C 
ATOM      4  C   UNL     1       1.657   9.000  19.065  0.00  0.00    +0.000 A 
ATOM      5  C   UNL     1       2.125   7.698  18.938  0.00  0.00    +0.000 A 
ATOM      6  C   UNL     1       1.988   6.821  20.017  0.00  0.00    +0.000 A 
ATOM      7  C   UNL     1       1.458   7.295  21.222  0.00  0.00    +0.000 A 
ATOM      8  C   UNL     1       1.007   8.617  21.346  0.00  0.00    +0.000 A 
ATOM      9  C   UNL     1       1.052   9.454  20.240  0.00  0.00    +0.000 A 
ENDROOT
BRANCH   1  10
ATOM     10  C   UNL     1      -0.893  11.229  20.546  0.00  0.00    +0.000 C 
BRANCH  10  12
ATOM     11  C   UNL     1      -3.093  12.420  20.017  0.00  0.00    +0.000 C 
ATOM     12  C   UNL     1      -1.625  12.235  19.646  0.00  0.00    +0.000 C 
ENDBRANCH  10  12
BRANCH  10  13
ATOM     13  C   UNL     1      -0.887  11.669  21.998  0.00  0.00    +0.000 C 
ATOM     14  O   UNL     1      -1.503  11.130  22.906  0.00  0.00    +0.000 OA
BRANCH  13  15
ATOM     15  O   UNL     1      -0.014  12.658  22.242  0.00  0.00    +0.000 OA
ATOM     16  H   UNL     1       0.081  12.697  23.214  0.00  0.00    +0.000 HD
ENDBRANCH  13  15
ENDBRANCH  10  13
ENDBRANCH   1  10
BRANCH   6  17
ATOM     17  O   UNL     1       2.334   5.493  20.014  0.00  0.00    +0.000 OA
BRANCH  17  18
ATOM     18  C   UNL     1       1.993   4.774  18.828  0.00  0.00    +0.000 C 
BRANCH  18  19
ATOM     19  C   UNL     1       2.971   3.626  18.607  0.00  0.00    +0.000 C 
BRANCH  19  20
ATOM     20  C   UNL     1       4.128   4.074  17.787  0.00  0.00    +0.000 A 
ATOM     21  N   UNL     1       4.196   3.762  16.444  0.00  0.00    +0.000 NA
ATOM     22  C   UNL     1       5.350   4.263  16.051  0.00  0.00    +0.000 A 
ATOM     23  O   UNL     1       6.059   4.878  17.046  0.00  0.00    +0.000 OA
ATOM     24  C   UNL     1       5.268   4.757  18.156  0.00  0.00    +0.000 A 
ATOM     25  C   UNL     1       5.785   5.335  19.405  0.00  0.00    +0.000 C 
BRANCH  22  26
ATOM     26  C   UNL     1       5.954   4.258  14.721  0.00  0.00    +0.000 A 
ATOM     27  C   UNL     1       5.353   3.528  13.689  0.00  0.00    +0.000 A 
ATOM     28  C   UNL     1       5.899   3.525  12.397  0.00  0.00    +0.000 A 
ATOM     29  C   UNL     1       7.052   4.255  12.147  0.00  0.00    +0.000 A 
ATOM     30  F   UNL     1       7.573   4.259  10.913  0.00  0.00    +0.000 F 
ATOM     31  C   UNL     1       7.678   4.983  13.152  0.00  0.00    +0.000 A 
ATOM     32  C   UNL     1       7.127   4.984  14.440  0.00  0.00    +0.000 A 
ENDBRANCH  22  26
ENDBRANCH  19  20
ENDBRANCH  18  19
ENDBRANCH  17  18
ENDBRANCH   6  17
TORSDOF 9
ENDMDL
MODEL 9
REMARK VINA RESULT:      -7.5      5.337      7.289
REMARK  Name = 
REMARK  11 active torsions:
REMARK  status: ('A' for Active; 'I' for Inactive)
REMARK    1  A    between atoms: C_1  and  C_2
REMARK    2  A    between atoms: C_2  and  C_3
REMARK    3  A    between atoms: C_3  and  C_4
REMARK    4  A    between atoms: C_3  and  C_7
REMARK    5  A    between atoms: C_4  and  O_6
REMARK    6  A    between atoms: C_12  and  O_13
REMARK    7  A    between atoms: O_13  and  C_14
REMARK    8  A    between atoms: C_14  and  C_15
REMARK    9  A    between atoms: C_15  and  C_16
REMARK   10  A    between atoms: C_18  and  C_19
REMARK   11  A    between atoms: C_27  and  C_28
REMARK                            x       y       z     vdW  Elec       q    Type
REMARK                         _______ _______ _______ _____ _____    ______ ____
ROOT
ATOM      1  C   UNL     1       9.283  13.872  20.957  0.00  0.00    +0.000 C 
ATOM      2  C   UNL     1       8.628  14.861  19.944  0.00  0.00    +0.000 C 
ATOM      3  C   UNL     1       8.878  14.311  18.540  0.00  0.00    +0.000 C 
ATOM      4  C   UNL     1       8.940  12.845  18.816  0.00  0.00    +0.000 A 
ATOM      5  C   UNL     1       8.767  11.821  17.893  0.00  0.00    +0.000 A 
ATOM      6  C   UNL     1       8.912  10.497  18.316  0.00  0.00    +0.000 A 
ATOM      7  C   UNL     1       9.307  10.238  19.634  0.00  0.00    +0.000 A 
ATOM      8  C   UNL     1       9.500  11.281  20.551  0.00  0.00    +0.000 A 
ATOM      9  C   UNL     1       9.254  12.587  20.152  0.00  0.00    +0.000 A 
ENDROOT
BRANCH   1  10
ATOM     10  C   UNL     1       8.552  13.930  22.328  0.00  0.00    +0.000 C 
BRANCH  10  12
ATOM     11  C   UNL     1       6.191  13.117  22.876  0.00  0.00    +0.000 C 
ATOM     12  C   UNL     1       7.044  14.203  22.231  0.00  0.00    +0.000 C 
ENDBRANCH  10  12
BRANCH  10  13
ATOM     13  C   UNL     1       9.243  14.902  23.266  0.00  0.00    +0.000 C 
ATOM     14  O   UNL     1       9.892  15.879  22.923  0.00  0.00    +0.000 OA
BRANCH  13  15
ATOM     15  O   UNL     1       8.966  14.670  24.558  0.00  0.00    +0.000 OA
ATOM     16  H   UNL     1       9.144  15.509  25.025  0.00  0.00    +0.000 HD
ENDBRANCH  13  15
ENDBRANCH  10  13
ENDBRANCH   1  10
BRANCH   6  17
ATOM     17  O   UNL     1       8.701   9.385  17.541  0.00  0.00    +0.000 OA
BRANCH  17  18
ATOM     18  C   UNL     1       8.128   8.266  18.219  0.00  0.00    +0.000 C 
BRANCH  18  19
ATOM     19  C   UNL     1       7.461   7.328  17.219  0.00  0.00    +0.000 C 
BRANCH  19  20
ATOM     20  C   UNL     1       6.725   6.246  17.925  0.00  0.00    +0.000 A 
ATOM     21  N   UNL     1       5.446   5.900  17.536  0.00  0.00    +0.000 NA
ATOM     22  C   UNL     1       5.087   4.963  18.389  0.00  0.00    +0.000 A 
ATOM     23  O   UNL     1       6.038   4.669  19.327  0.00  0.00    +0.000 OA
ATOM     24  C   UNL     1       7.088   5.493  19.021  0.00  0.00    +0.000 A 
ATOM     25  C   UNL     1       8.277   5.398  19.881  0.00  0.00    +0.000 C 
BRANCH  22  26
ATOM     26  C   UNL     1       3.841   4.203  18.457  0.00  0.00    +0.000 A 
ATOM     27  C   UNL     1       2.656   4.772  17.975  0.00  0.00    +0.000 A 
ATOM     28  C   UNL     1       1.450   4.056  18.009  0.00  0.00    +0.000 A 
ATOM     29  C   UNL     1       1.439   2.771  18.530  0.00  0.00    +0.000 A 
ATOM     30  F   UNL     1       0.290   2.082  18.558  0.00  0.00    +0.000 F 
ATOM     31  C   UNL     1       2.597   2.182  19.025  0.00  0.00    +0.000 A 
ATOM     32  C   UNL     1       3.799   2.901  18.987  0.00  0.00    +0.000 A 
ENDBRANCH  22  26
ENDBRANCH  19  20
ENDBRANCH  18  19
ENDBRANCH  17  18
ENDBRANCH   6  17
TORSDOF 9
ENDMDL
