MODEL 1
REMARK VINA RESULT:      -7.5      0.000      0.000
REMARK  Name = 
REMARK  6 active torsions:
REMARK  status: ('A' for Active; 'I' for Inactive)
REMARK    1  A    between atoms: C_1  and  C_2
REMARK    2  A    between atoms: C_2  and  O_3
REMARK    3  A    between atoms: C_2  and  C_4
REMARK    4  A    between atoms: C_2  and  C_6
REMARK    5  A    between atoms: N_8  and  C_9
REMARK    6  A    between atoms: C_13  and  C_14
REMARK                            x       y       z     vdW  Elec       q    Type
REMARK                         _______ _______ _______ _____ _____    ______ ____
ROOT
ATOM      1  C   UNL     1       2.613   6.872  18.783  0.00  0.00    +0.000 A 
ATOM      2  C   UNL     1       2.253   7.823  17.829  0.00  0.00    +0.000 A 
ATOM      3  C   UNL     1       1.574   8.996  18.178  0.00  0.00    +0.000 A 
ATOM      4  C   UNL     1       1.231   9.265  19.500  0.00  0.00    +0.000 A 
ATOM      5  C   UNL     1       0.566  10.496  19.955  0.00  0.00    +0.000 A 
ATOM      6  C   UNL     1       0.299  10.611  21.268  0.00  0.00    +0.000 A 
ATOM      7  C   UNL     1       0.629   9.589  22.269  0.00  0.00    +0.000 A 
ATOM      8  O   UNL     1       0.354   9.764  23.449  0.00  0.00    +0.000 OA
ATOM      9  O   UNL     1       1.254   8.447  21.808  0.00  0.00    +0.000 OA
ATOM     10  C   UNL     1       1.562   8.281  20.443  0.00  0.00    +0.000 A 
ATOM     11  C   UNL     1       2.226   7.091  20.104  0.00  0.00    +0.000 A 
ENDROOT
BRANCH   1  14
ATOM     12  C   UNL     1       4.637   5.694  17.955  0.00  0.00    +0.000 C 
ATOM     13  O   UNL     1       5.374   6.679  17.891  0.00  0.00    +0.000 OA
ATOM     14  N   UNL     1       3.335   5.708  18.442  0.00  0.00    +0.000 N 
ATOM     15  H   UNL     1       2.896   4.804  18.589  0.00  0.00    +0.000 HD
BRANCH  12  17
ATOM     16  C   UNL     1       4.003   3.474  17.048  0.00  0.00    +0.000 C 
ATOM     17  C   UNL     1       5.179   4.289  17.607  0.00  0.00    +0.000 C 
BRANCH  17  18
ATOM     18  O   UNL     1       5.691   3.656  18.785  0.00  0.00    +0.000 OA
ATOM     19  H   UNL     1       5.308   4.128  19.549  0.00  0.00    +0.000 HD
ENDBRANCH  17  18
BRANCH  17  20
ATOM     20  C   UNL     1       6.309   4.500  16.598  0.00  0.00    +0.000 C 
ATOM     21 BR   UNL     1       5.670   4.446  14.752  0.00  0.00    +0.000 Br
ENDBRANCH  17  20
ENDBRANCH  12  17
ENDBRANCH   1  14
BRANCH   5  22
ATOM     22  C   UNL     1       0.179  11.632  19.051  0.00  0.00    +0.000 C 
ATOM     23  F   UNL     1      -0.683  11.332  18.052  0.00  0.00    +0.000 F 
ATOM     24  F   UNL     1      -0.399  12.638  19.760  0.00  0.00    +0.000 F 
ATOM     25  F   UNL     1       1.277  12.169  18.453  0.00  0.00    +0.000 F 
ENDBRANCH   5  22
TORSDOF 5
ENDMDL
MODEL 2
REMARK VINA RESULT:      -7.4      1.954      2.218
REMARK  Name = 
REMARK  6 active torsions:
REMARK  status: ('A' for Active; 'I' for Inactive)
REMARK    1  A    between atoms: C_1  and  C_2
REMARK    2  A    between atoms: C_2  and  O_3
REMARK    3  A    between atoms: C_2  and  C_4
REMARK    4  A    between atoms: C_2  and  C_6
REMARK    5  A    between atoms: N_8  and  C_9
REMARK    6  A    between atoms: C_13  and  C_14
REMARK                            x       y       z     vdW  Elec       q    Type
REMARK                         _______ _______ _______ _____ _____    ______ ____
ROOT
ATOM      1  C   UNL     1       2.488   7.005  18.848  0.00  0.00    +0.000 A 
ATOM      2  C   UNL     1       2.206   7.978  17.890  0.00  0.00    +0.000 A 
ATOM      3  C   UNL     1       1.558   9.173  18.222  0.00  0.00    +0.000 A 
ATOM      4  C   UNL     1       1.170   9.443  19.532  0.00  0.00    +0.000 A 
ATOM      5  C   UNL     1       0.533  10.695  19.971  0.00  0.00    +0.000 A 
ATOM      6  C   UNL     1       0.215  10.809  21.272  0.00  0.00    +0.000 A 
ATOM      7  C   UNL     1       0.462   9.766  22.276  0.00  0.00    +0.000 A 
ATOM      8  O   UNL     1       0.144   9.940  23.445  0.00  0.00    +0.000 OA
ATOM      9  O   UNL     1       1.062   8.605  21.830  0.00  0.00    +0.000 OA
ATOM     10  C   UNL     1       1.422   8.439  20.477  0.00  0.00    +0.000 A 
ATOM     11  C   UNL     1       2.054   7.227  20.155  0.00  0.00    +0.000 A 
ENDROOT
BRANCH   1  14
ATOM     12  C   UNL     1       2.580   4.642  18.088  0.00  0.00    +0.000 C 
ATOM     13  O   UNL     1       1.389   4.529  17.791  0.00  0.00    +0.000 OA
ATOM     14  N   UNL     1       3.179   5.817  18.526  0.00  0.00    +0.000 N 
ATOM     15  H   UNL     1       4.193   5.815  18.583  0.00  0.00    +0.000 HD
BRANCH  12  17
ATOM     16  C   UNL     1       4.537   3.903  16.756  0.00  0.00    +0.000 C 
ATOM     17  C   UNL     1       3.557   3.468  17.856  0.00  0.00    +0.000 C 
BRANCH  17  18
ATOM     18  O   UNL     1       2.836   2.307  17.431  0.00  0.00    +0.000 OA
ATOM     19  H   UNL     1       1.889   2.492  17.578  0.00  0.00    +0.000 HD
ENDBRANCH  17  18
BRANCH  17  20
ATOM     20  C   UNL     1       4.232   3.197  19.202  0.00  0.00    +0.000 C 
ATOM     21 BR   UNL     1       2.936   2.808  20.612  0.00  0.00    +0.000 Br
ENDBRANCH  17  20
ENDBRANCH  12  17
ENDBRANCH   1  14
BRANCH   5  22
ATOM     22  C   UNL     1       0.229  11.853  19.063  0.00  0.00    +0.000 C 
ATOM     23  F   UNL     1       1.276  12.356  18.369  0.00  0.00    +0.000 F 
ATOM     24  F   UNL     1      -0.707  11.510  18.139  0.00  0.00    +0.000 F 
ATOM     25  F   UNL     1      -0.292  12.895  19.766  0.00  0.00    +0.000 F 
ENDBRANCH   5  22
TORSDOF 5
ENDMDL
MODEL 3
REMARK VINA RESULT:      -7.4      1.149      1.240
REMARK  Name = 
REMARK  6 active torsions:
REMARK  status: ('A' for Active; 'I' for Inactive)
REMARK    1  A    between atoms: C_1  and  C_2
REMARK    2  A    between atoms: C_2  and  O_3
REMARK    3  A    between atoms: C_2  and  C_4
REMARK    4  A    between atoms: C_2  and  C_6
REMARK    5  A    between atoms: N_8  and  C_9
REMARK    6  A    between atoms: C_13  and  C_14
REMARK                            x       y       z     vdW  Elec       q    Type
REMARK                         _______ _______ _______ _____ _____    ______ ____
ROOT
ATOM      1  C   UNL     1       2.635   7.034  18.778  0.00  0.00    +0.000 A 
ATOM      2  C   UNL     1       2.213   7.966  17.830  0.00  0.00    +0.000 A 
ATOM      3  C   UNL     1       1.471   9.097  18.189  0.00  0.00    +0.000 A 
ATOM      4  C   UNL     1       1.124   9.340  19.515  0.00  0.00    +0.000 A 
ATOM      5  C   UNL     1       0.393  10.530  19.981  0.00  0.00    +0.000 A 
ATOM      6  C   UNL     1       0.131  10.625  21.296  0.00  0.00    +0.000 A 
ATOM      7  C   UNL     1       0.527   9.619  22.290  0.00  0.00    +0.000 A 
ATOM      8  O   UNL     1       0.251   9.774  23.473  0.00  0.00    +0.000 OA
ATOM      9  O   UNL     1       1.212   8.517  21.820  0.00  0.00    +0.000 OA
ATOM     10  C   UNL     1       1.518   8.374  20.452  0.00  0.00    +0.000 A 
ATOM     11  C   UNL     1       2.247   7.225  20.103  0.00  0.00    +0.000 A 
ENDROOT
BRANCH   1  14
ATOM     12  C   UNL     1       2.915   4.673  18.056  0.00  0.00    +0.000 C 
ATOM     13  O   UNL     1       1.724   4.432  17.851  0.00  0.00    +0.000 OA
ATOM     14  N   UNL     1       3.420   5.914  18.426  0.00  0.00    +0.000 N 
ATOM     15  H   UNL     1       4.430   6.017  18.406  0.00  0.00    +0.000 HD
BRANCH  12  17
ATOM     16  C   UNL     1       3.275   2.240  17.738  0.00  0.00    +0.000 C 
ATOM     17  C   UNL     1       3.989   3.600  17.773  0.00  0.00    +0.000 C 
BRANCH  17  18
ATOM     18  O   UNL     1       4.972   3.603  18.815  0.00  0.00    +0.000 OA
ATOM     19  H   UNL     1       4.664   2.976  19.496  0.00  0.00    +0.000 HD
ENDBRANCH  17  18
BRANCH  17  20
ATOM     20  C   UNL     1       4.641   3.981  16.443  0.00  0.00    +0.000 C 
ATOM     21 BR   UNL     1       6.494   4.559  16.668  0.00  0.00    +0.000 Br
ENDBRANCH  17  20
ENDBRANCH  12  17
ENDBRANCH   1  14
BRANCH   5  22
ATOM     22  C   UNL     1      -0.065  11.645  19.084  0.00  0.00    +0.000 C 
ATOM     23  F   UNL     1      -0.890  11.295  18.070  0.00  0.00    +0.000 F 
ATOM     24  F   UNL     1      -0.726  12.596  19.797  0.00  0.00    +0.000 F 
ATOM     25  F   UNL     1       0.997  12.269  18.508  0.00  0.00    +0.000 F 
ENDBRANCH   5  22
TORSDOF 5
ENDMDL
MODEL 4
REMARK VINA RESULT:      -7.3      2.304      2.888
REMARK  Name = 
REMARK  6 active torsions:
REMARK  status: ('A' for Active; 'I' for Inactive)
REMARK    1  A    between atoms: C_1  and  C_2
REMARK    2  A    between atoms: C_2  and  O_3
REMARK    3  A    between atoms: C_2  and  C_4
REMARK    4  A    between atoms: C_2  and  C_6
REMARK    5  A    between atoms: N_8  and  C_9
REMARK    6  A    between atoms: C_13  and  C_14
REMARK                            x       y       z     vdW  Elec       q    Type
REMARK                         _______ _______ _______ _____ _____    ______ ____
ROOT
ATOM      1  C   UNL     1       2.571   7.002  18.805  0.00  0.00    +0.000 A 
ATOM      2  C   UNL     1       2.196   6.712  20.116  0.00  0.00    +0.000 A 
ATOM      3  C   UNL     1       1.469   7.622  20.893  0.00  0.00    +0.000 A 
ATOM      4  C   UNL     1       1.085   8.859  20.384  0.00  0.00    +0.000 A 
ATOM      5  C   UNL     1       0.277   9.848  21.116  0.00  0.00    +0.000 A 
ATOM      6  C   UNL     1      -0.015  11.001  20.489  0.00  0.00    +0.000 A 
ATOM      7  C   UNL     1       0.423  11.332  19.127  0.00  0.00    +0.000 A 
ATOM      8  O   UNL     1       0.119  12.405  18.621  0.00  0.00    +0.000 OA
ATOM      9  O   UNL     1       1.178  10.383  18.469  0.00  0.00    +0.000 OA
ATOM     10  C   UNL     1       1.504   9.155  19.079  0.00  0.00    +0.000 A 
ATOM     11  C   UNL     1       2.251   8.260  18.295  0.00  0.00    +0.000 A 
ENDROOT
BRANCH   1  14
ATOM     12  C   UNL     1       4.478   5.479  18.343  0.00  0.00    +0.000 C 
ATOM     13  O   UNL     1       5.026   5.581  19.441  0.00  0.00    +0.000 OA
ATOM     14  N   UNL     1       3.267   6.071  18.004  0.00  0.00    +0.000 N 
ATOM     15  H   UNL     1       2.848   5.778  17.126  0.00  0.00    +0.000 HD
BRANCH  12  17
ATOM     16  C   UNL     1       4.044   3.398  17.065  0.00  0.00    +0.000 C 
ATOM     17  C   UNL     1       5.056   4.535  17.265  0.00  0.00    +0.000 C 
BRANCH  17  18
ATOM     18  O   UNL     1       6.308   3.998  17.705  0.00  0.00    +0.000 OA
ATOM     19  H   UNL     1       6.596   4.538  18.465  0.00  0.00    +0.000 HD
ENDBRANCH  17  18
BRANCH  17  20
ATOM     20  C   UNL     1       5.269   5.389  16.014  0.00  0.00    +0.000 C 
ATOM     21 BR   UNL     1       5.929   4.337  14.505  0.00  0.00    +0.000 Br
ENDBRANCH  17  20
ENDBRANCH  12  17
ENDBRANCH   1  14
BRANCH   5  22
ATOM     22  C   UNL     1      -0.252   9.644  22.507  0.00  0.00    +0.000 C 
ATOM     23  F   UNL     1      -1.020  10.641  23.005  0.00  0.00    +0.000 F 
ATOM     24  F   UNL     1      -1.007   8.516  22.576  0.00  0.00    +0.000 F 
ATOM     25  F   UNL     1       0.767   9.475  23.392  0.00  0.00    +0.000 F 
ENDBRANCH   5  22
TORSDOF 5
ENDMDL
MODEL 5
REMARK VINA RESULT:      -7.3      4.930      7.363
REMARK  Name = 
REMARK  6 active torsions:
REMARK  status: ('A' for Active; 'I' for Inactive)
REMARK    1  A    between atoms: C_1  and  C_2
REMARK    2  A    between atoms: C_2  and  O_3
REMARK    3  A    between atoms: C_2  and  C_4
REMARK    4  A    between atoms: C_2  and  C_6
REMARK    5  A    between atoms: N_8  and  C_9
REMARK    6  A    between atoms: C_13  and  C_14
REMARK                            x       y       z     vdW  Elec       q    Type
REMARK                         _______ _______ _______ _____ _____    ______ ____
ROOT
ATOM      1  C   UNL     1       1.976   7.917  19.326  0.00  0.00    +0.000 A 
ATOM      2  C   UNL     1       2.493   7.431  18.126  0.00  0.00    +0.000 A 
ATOM      3  C   UNL     1       2.817   6.080  17.957  0.00  0.00    +0.000 A 
ATOM      4  C   UNL     1       2.633   5.160  18.986  0.00  0.00    +0.000 A 
ATOM      5  C   UNL     1       2.900   3.718  18.872  0.00  0.00    +0.000 A 
ATOM      6  C   UNL     1       2.673   2.954  19.955  0.00  0.00    +0.000 A 
ATOM      7  C   UNL     1       2.179   3.471  21.238  0.00  0.00    +0.000 A 
ATOM      8  O   UNL     1       1.996   2.714  22.184  0.00  0.00    +0.000 OA
ATOM      9  O   UNL     1       1.938   4.828  21.311  0.00  0.00    +0.000 OA
ATOM     10  C   UNL     1       2.153   5.670  20.201  0.00  0.00    +0.000 A 
ATOM     11  C   UNL     1       1.841   7.027  20.391  0.00  0.00    +0.000 A 
ENDROOT
BRANCH   1  14
ATOM     12  C   UNL     1       0.738   9.963  18.652  0.00  0.00    +0.000 C 
ATOM     13  O   UNL     1       0.072   9.450  17.752  0.00  0.00    +0.000 OA
ATOM     14  N   UNL     1       1.608   9.271  19.487  0.00  0.00    +0.000 N 
ATOM     15  H   UNL     1       1.970   9.780  20.287  0.00  0.00    +0.000 HD
BRANCH  12  17
ATOM     16  C   UNL     1      -0.935  11.789  18.778  0.00  0.00    +0.000 C 
ATOM     17  C   UNL     1       0.544  11.451  19.017  0.00  0.00    +0.000 C 
BRANCH  17  18
ATOM     18  O   UNL     1       1.369  12.272  18.183  0.00  0.00    +0.000 OA
ATOM     19  H   UNL     1       2.087  12.616  18.747  0.00  0.00    +0.000 HD
ENDBRANCH  17  18
BRANCH  17  20
ATOM     20  C   UNL     1       0.975  11.597  20.478  0.00  0.00    +0.000 C 
ATOM     21 BR   UNL     1      -0.529  11.416  21.712  0.00  0.00    +0.000 Br
ENDBRANCH  17  20
ENDBRANCH  12  17
ENDBRANCH   1  14
BRANCH   5  22
ATOM     22  C   UNL     1       3.394   3.045  17.623  0.00  0.00    +0.000 C 
ATOM     23  F   UNL     1       4.597   3.458  17.159  0.00  0.00    +0.000 F 
ATOM     24  F   UNL     1       3.502   1.703  17.808  0.00  0.00    +0.000 F 
ATOM     25  F   UNL     1       2.515   3.220  16.599  0.00  0.00    +0.000 F 
ENDBRANCH   5  22
TORSDOF 5
ENDMDL
MODEL 6
REMARK VINA RESULT:      -7.3      2.409      3.009
REMARK  Name = 
REMARK  6 active torsions:
REMARK  status: ('A' for Active; 'I' for Inactive)
REMARK    1  A    between atoms: C_1  and  C_2
REMARK    2  A    between atoms: C_2  and  O_3
REMARK    3  A    between atoms: C_2  and  C_4
REMARK    4  A    between atoms: C_2  and  C_6
REMARK    5  A    between atoms: N_8  and  C_9
REMARK    6  A    between atoms: C_13  and  C_14
REMARK                            x       y       z     vdW  Elec       q    Type
REMARK                         _______ _______ _______ _____ _____    ______ ____
ROOT
ATOM      1  C   UNL     1       2.655   7.105  18.850  0.00  0.00    +0.000 A 
ATOM      2  C   UNL     1       2.263   6.814  20.157  0.00  0.00    +0.000 A 
ATOM      3  C   UNL     1       1.468   7.694  20.900  0.00  0.00    +0.000 A 
ATOM      4  C   UNL     1       1.030   8.901  20.362  0.00  0.00    +0.000 A 
ATOM      5  C   UNL     1       0.151   9.854  21.058  0.00  0.00    +0.000 A 
ATOM      6  C   UNL     1      -0.187  10.980  20.406  0.00  0.00    +0.000 A 
ATOM      7  C   UNL     1       0.266  11.315  19.050  0.00  0.00    +0.000 A 
ATOM      8  O   UNL     1      -0.083  12.362  18.519  0.00  0.00    +0.000 OA
ATOM      9  O   UNL     1       1.089  10.399  18.425  0.00  0.00    +0.000 OA
ATOM     10  C   UNL     1       1.466   9.200  19.063  0.00  0.00    +0.000 A 
ATOM     11  C   UNL     1       2.279   8.335  18.312  0.00  0.00    +0.000 A 
ENDROOT
BRANCH   1  14
ATOM     12  C   UNL     1       4.556   5.539  18.531  0.00  0.00    +0.000 C 
ATOM     13  O   UNL     1       4.958   5.545  19.696  0.00  0.00    +0.000 OA
ATOM     14  N   UNL     1       3.421   6.202  18.081  0.00  0.00    +0.000 N 
ATOM     15  H   UNL     1       3.112   5.986  17.139  0.00  0.00    +0.000 HD
BRANCH  12  17
ATOM     16  C   UNL     1       4.149   3.777  16.834  0.00  0.00    +0.000 C 
ATOM     17  C   UNL     1       5.242   4.647  17.472  0.00  0.00    +0.000 C 
BRANCH  17  18
ATOM     18  O   UNL     1       6.223   3.811  18.097  0.00  0.00    +0.000 OA
ATOM     19  H   UNL     1       5.911   2.891  18.005  0.00  0.00    +0.000 HD
ENDBRANCH  17  18
BRANCH  17  20
ATOM     20  C   UNL     1       5.921   5.595  16.484  0.00  0.00    +0.000 C 
ATOM     21 BR   UNL     1       7.248   6.738  17.350  0.00  0.00    +0.000 Br
ENDBRANCH  17  20
ENDBRANCH  12  17
ENDBRANCH   1  14
BRANCH   5  22
ATOM     22  C   UNL     1      -0.400   9.642  22.439  0.00  0.00    +0.000 C 
ATOM     23  F   UNL     1       0.504   9.626  23.446  0.00  0.00    +0.000 F 
ATOM     24  F   UNL     1      -1.299  10.613  22.754  0.00  0.00    +0.000 F 
ATOM     25  F   UNL     1      -1.072   8.462  22.516  0.00  0.00    +0.000 F 
ENDBRANCH   5  22
TORSDOF 5
ENDMDL
MODEL 7
REMARK VINA RESULT:      -7.3      4.661      7.384
REMARK  Name = 
REMARK  6 active torsions:
REMARK  status: ('A' for Active; 'I' for Inactive)
REMARK    1  A    between atoms: C_1  and  C_2
REMARK    2  A    between atoms: C_2  and  O_3
REMARK    3  A    between atoms: C_2  and  C_4
REMARK    4  A    between atoms: C_2  and  C_6
REMARK    5  A    between atoms: N_8  and  C_9
REMARK    6  A    between atoms: C_13  and  C_14
REMARK                            x       y       z     vdW  Elec       q    Type
REMARK                         _______ _______ _______ _____ _____    ______ ____
ROOT
ATOM      1  C   UNL     1       2.007   7.764  19.358  0.00  0.00    +0.000 A 
ATOM      2  C   UNL     1       2.494   7.273  18.147  0.00  0.00    +0.000 A 
ATOM      3  C   UNL     1       2.809   5.921  17.973  0.00  0.00    +0.000 A 
ATOM      4  C   UNL     1       2.645   5.004  19.007  0.00  0.00    +0.000 A 
ATOM      5  C   UNL     1       2.903   3.559  18.889  0.00  0.00    +0.000 A 
ATOM      6  C   UNL     1       2.697   2.799  19.978  0.00  0.00    +0.000 A 
ATOM      7  C   UNL     1       2.235   3.319  21.272  0.00  0.00    +0.000 A 
ATOM      8  O   UNL     1       2.071   2.565  22.222  0.00  0.00    +0.000 OA
ATOM      9  O   UNL     1       2.001   4.678  21.347  0.00  0.00    +0.000 OA
ATOM     10  C   UNL     1       2.194   5.517  20.231  0.00  0.00    +0.000 A 
ATOM     11  C   UNL     1       1.892   6.875  20.426  0.00  0.00    +0.000 A 
ENDROOT
BRANCH   1  14
ATOM     12  C   UNL     1       0.580   9.569  20.292  0.00  0.00    +0.000 C 
ATOM     13  O   UNL     1      -0.102   8.859  21.033  0.00  0.00    +0.000 OA
ATOM     14  N   UNL     1       1.647   9.119  19.525  0.00  0.00    +0.000 N 
ATOM     15  H   UNL     1       2.222   9.831  19.085  0.00  0.00    +0.000 HD
BRANCH  12  17
ATOM     16  C   UNL     1       1.347  11.676  19.231  0.00  0.00    +0.000 C 
ATOM     17  C   UNL     1       0.368  11.099  20.265  0.00  0.00    +0.000 C 
BRANCH  17  18
ATOM     18  O   UNL     1       0.644  11.655  21.555  0.00  0.00    +0.000 OA
ATOM     19  H   UNL     1       1.527  12.068  21.503  0.00  0.00    +0.000 HD
ENDBRANCH  17  18
BRANCH  17  20
ATOM     20  C   UNL     1      -1.101  11.326  19.906  0.00  0.00    +0.000 C 
ATOM     21 BR   UNL     1      -1.561  10.568  18.164  0.00  0.00    +0.000 Br
ENDBRANCH  17  20
ENDBRANCH  12  17
ENDBRANCH   1  14
BRANCH   5  22
ATOM     22  C   UNL     1       3.366   2.883  17.630  0.00  0.00    +0.000 C 
ATOM     23  F   UNL     1       4.568   3.277  17.149  0.00  0.00    +0.000 F 
ATOM     24  F   UNL     1       3.454   1.538  17.809  0.00  0.00    +0.000 F 
ATOM     25  F   UNL     1       2.474   3.076  16.621  0.00  0.00    +0.000 F 
ENDBRANCH   5  22
TORSDOF 5
ENDMDL
MODEL 8
REMARK VINA RESULT:      -7.2      4.669      7.223
REMARK  Name = 
REMARK  6 active torsions:
REMARK  status: ('A' for Active; 'I' for Inactive)
REMARK    1  A    between atoms: C_1  and  C_2
REMARK    2  A    between atoms: C_2  and  O_3
REMARK    3  A    between atoms: C_2  and  C_4
REMARK    4  A    between atoms: C_2  and  C_6
REMARK    5  A    between atoms: N_8  and  C_9
REMARK    6  A    between atoms: C_13  and  C_14
REMARK                            x       y       z     vdW  Elec       q    Type
REMARK                         _______ _______ _______ _____ _____    ______ ____
ROOT
ATOM      1  C   UNL     1       1.795   8.229  19.329  0.00  0.00    +0.000 A 
ATOM      2  C   UNL     1       2.362   7.795  18.131  0.00  0.00    +0.000 A 
ATOM      3  C   UNL     1       2.781   6.473  17.951  0.00  0.00    +0.000 A 
ATOM      4  C   UNL     1       2.645   5.529  18.965  0.00  0.00    +0.000 A 
ATOM      5  C   UNL     1       3.012   4.109  18.838  0.00  0.00    +0.000 A 
ATOM      6  C   UNL     1       2.821   3.318  19.907  0.00  0.00    +0.000 A 
ATOM      7  C   UNL     1       2.273   3.781  21.189  0.00  0.00    +0.000 A 
ATOM      8  O   UNL     1       2.128   3.001  22.121  0.00  0.00    +0.000 OA
ATOM      9  O   UNL     1       1.938   5.118  21.274  0.00  0.00    +0.000 OA
ATOM     10  C   UNL     1       2.112   5.987  20.178  0.00  0.00    +0.000 A 
ATOM     11  C   UNL     1       1.704   7.317  20.379  0.00  0.00    +0.000 A 
ENDROOT
BRANCH   1  14
ATOM     12  C   UNL     1       0.394  10.177  18.687  0.00  0.00    +0.000 C 
ATOM     13  O   UNL     1      -0.254   9.617  17.801  0.00  0.00    +0.000 OA
ATOM     14  N   UNL     1       1.331   9.552  19.500  0.00  0.00    +0.000 N 
ATOM     15  H   UNL     1       1.674  10.086  20.292  0.00  0.00    +0.000 HD
BRANCH  12  17
ATOM     16  C   UNL     1      -1.051  11.638  20.076  0.00  0.00    +0.000 C 
ATOM     17  C   UNL     1       0.099  11.648  19.058  0.00  0.00    +0.000 C 
BRANCH  17  18
ATOM     18  O   UNL     1      -0.294  12.379  17.891  0.00  0.00    +0.000 OA
ATOM     19  H   UNL     1      -1.114  12.855  18.119  0.00  0.00    +0.000 HD
ENDBRANCH  17  18
BRANCH  17  20
ATOM     20  C   UNL     1       1.402  12.221  19.616  0.00  0.00    +0.000 C 
ATOM     21 BR   UNL     1       2.521  13.005  18.219  0.00  0.00    +0.000 Br
ENDBRANCH  17  20
ENDBRANCH  12  17
ENDBRANCH   1  14
BRANCH   5  22
ATOM     22  C   UNL     1       3.571   3.489  17.589  0.00  0.00    +0.000 C 
ATOM     23  F   UNL     1       4.699   4.053  17.096  0.00  0.00    +0.000 F 
ATOM     24  F   UNL     1       3.863   2.177  17.790  0.00  0.00    +0.000 F 
ATOM     25  F   UNL     1       2.659   3.527  16.580  0.00  0.00    +0.000 F 
ENDBRANCH   5  22
TORSDOF 5
ENDMDL
MODEL 9
REMARK VINA RESULT:      -7.2      4.924      7.273
REMARK  Name = 
REMARK  6 active torsions:
REMARK  status: ('A' for Active; 'I' for Inactive)
REMARK    1  A    between atoms: C_1  and  C_2
REMARK    2  A    between atoms: C_2  and  O_3
REMARK    3  A    between atoms: C_2  and  C_4
REMARK    4  A    between atoms: C_2  and  C_6
REMARK    5  A    between atoms: N_8  and  C_9
REMARK    6  A    between atoms: C_13  and  C_14
REMARK                            x       y       z     vdW  Elec       q    Type
REMARK                         _______ _______ _______ _____ _____    ______ ____
ROOT
ATOM      1  C   UNL     1       2.068   7.777  19.307  0.00  0.00    +0.000 A 
ATOM      2  C   UNL     1       2.614   7.259  18.134  0.00  0.00    +0.000 A 
ATOM      3  C   UNL     1       2.878   5.893  17.984  0.00  0.00    +0.000 A 
ATOM      4  C   UNL     1       2.600   4.989  19.006  0.00  0.00    +0.000 A 
ATOM      5  C   UNL     1       2.798   3.534  18.909  0.00  0.00    +0.000 A 
ATOM      6  C   UNL     1       2.483   2.789  19.983  0.00  0.00    +0.000 A 
ATOM      7  C   UNL     1       1.957   3.336  21.240  0.00  0.00    +0.000 A 
ATOM      8  O   UNL     1       1.693   2.595  22.178  0.00  0.00    +0.000 OA
ATOM      9  O   UNL     1       1.782   4.705  21.297  0.00  0.00    +0.000 OA
ATOM     10  C   UNL     1       2.090   5.528  20.196  0.00  0.00    +0.000 A 
ATOM     11  C   UNL     1       1.839   6.900  20.367  0.00  0.00    +0.000 A 
ENDROOT
BRANCH   1  14
ATOM     12  C   UNL     1       0.972   9.880  18.567  0.00  0.00    +0.000 C 
ATOM     13  O   UNL     1       0.328   9.398  17.634  0.00  0.00    +0.000 OA
ATOM     14  N   UNL     1       1.761   9.148  19.447  0.00  0.00    +0.000 N 
ATOM     15  H   UNL     1       2.108   9.642  20.263  0.00  0.00    +0.000 HD
BRANCH  12  17
ATOM     16  C   UNL     1       0.650  11.473  20.441  0.00  0.00    +0.000 C 
ATOM     17  C   UNL     1       0.836  11.378  18.919  0.00  0.00    +0.000 C 
BRANCH  17  18
ATOM     18  O   UNL     1      -0.305  11.935  18.256  0.00  0.00    +0.000 OA
ATOM     19  H   UNL     1       0.015  12.696  17.735  0.00  0.00    +0.000 HD
ENDBRANCH  17  18
BRANCH  17  20
ATOM     20  C   UNL     1       2.111  12.057  18.417  0.00  0.00    +0.000 C 
ATOM     21 BR   UNL     1       2.477  13.729  19.360  0.00  0.00    +0.000 Br
ENDBRANCH  17  20
ENDBRANCH  12  17
ENDBRANCH   1  14
BRANCH   5  22
ATOM     22  C   UNL     1       3.316   2.831  17.686  0.00  0.00    +0.000 C 
ATOM     23  F   UNL     1       3.426   1.485  17.775  0.00  0.00    +0.000 F 
ATOM     24  F   UNL     1       2.515   3.074  16.615  0.00  0.00    +0.000 F 
ATOM     25  F   UNL     1       4.552   3.289  17.351  0.00  0.00    +0.000 F 
ENDBRANCH   5  22
TORSDOF 5
ENDMDL
