MODEL 1
REMARK VINA RESULT:      -8.4      0.000      0.000
REMARK  Name = 
REMARK  2 active torsions:
REMARK  status: ('A' for Active; 'I' for Inactive)
REMARK    1  A    between atoms: C_1  and  C_2
REMARK    2  A    between atoms: C_4  and  C_5
REMARK                            x       y       z     vdW  Elec       q    Type
REMARK                         _______ _______ _______ _____ _____    ______ ____
ROOT
ATOM      1  C   UNL     1       4.978   5.138  16.320  0.00  0.00    +0.000 A 
ATOM      2  N   UNL     1       4.361   4.131  16.907  0.00  0.00    +0.000 NA
ATOM      3  C   UNL     1       3.589   4.703  17.902  0.00  0.00    +0.000 A 
ATOM      4  C   UNL     1       3.736   6.083  17.898  0.00  0.00    +0.000 A 
ATOM      5  C   UNL     1       3.067   6.903  18.784  0.00  0.00    +0.000 A 
ATOM      6  N   UNL     1       2.243   6.337  19.698  0.00  0.00    +0.000 NA
ATOM      7  C   UNL     1       2.083   4.999  19.742  0.00  0.00    +0.000 A 
ATOM      8  C   UNL     1       1.243   4.439  20.695  0.00  0.00    +0.000 A 
ATOM      9  C   UNL     1       1.049   3.054  20.788  0.00  0.00    +0.000 A 
ATOM     10  C   UNL     1       1.702   2.194  19.909  0.00  0.00    +0.000 A 
ATOM     11  C   UNL     1       2.548   2.719  18.938  0.00  0.00    +0.000 A 
ATOM     12  C   UNL     1       2.735   4.114  18.860  0.00  0.00    +0.000 A 
ATOM     13  N   UNL     1       4.627   6.335  16.890  0.00  0.00    +0.000 N 
ATOM     14  H   UNL     1       4.982   7.233  16.595  0.00  0.00    +0.000 HD
ENDROOT
BRANCH   1  18
ATOM     15  C   UNL     1       7.387   4.080  11.964  0.00  0.00    +0.000 C 
ATOM     16  C   UNL     1       6.898   4.517  13.283  0.00  0.00    +0.000 A 
ATOM     17  C   UNL     1       5.742   4.309  13.994  0.00  0.00    +0.000 A 
ATOM     18  C   UNL     1       5.938   5.030  15.189  0.00  0.00    +0.000 A 
ATOM     19  N   UNL     1       7.129   5.642  15.210  0.00  0.00    +0.000 NA
ATOM     20  O   UNL     1       7.734   5.310  14.007  0.00  0.00    +0.000 OA
ENDBRANCH   1  18
TORSDOF 1
ENDMDL
MODEL 2
REMARK VINA RESULT:      -8.1      2.660      6.903
REMARK  Name = 
REMARK  2 active torsions:
REMARK  status: ('A' for Active; 'I' for Inactive)
REMARK    1  A    between atoms: C_1  and  C_2
REMARK    2  A    between atoms: C_4  and  C_5
REMARK                            x       y       z     vdW  Elec       q    Type
REMARK                         _______ _______ _______ _____ _____    ______ ____
ROOT
ATOM      1  C   UNL     1       4.321   3.653  17.625  0.00  0.00    +0.000 A 
ATOM      2  N   UNL     1       4.432   3.308  16.356  0.00  0.00    +0.000 NA
ATOM      3  C   UNL     1       5.475   4.068  15.859  0.00  0.00    +0.000 A 
ATOM      4  C   UNL     1       6.010   4.870  16.857  0.00  0.00    +0.000 A 
ATOM      5  C   UNL     1       7.073   5.723  16.634  0.00  0.00    +0.000 A 
ATOM      6  N   UNL     1       7.607   5.783  15.391  0.00  0.00    +0.000 NA
ATOM      7  C   UNL     1       7.109   5.027  14.392  0.00  0.00    +0.000 A 
ATOM      8  C   UNL     1       7.664   5.113  13.123  0.00  0.00    +0.000 A 
ATOM      9  C   UNL     1       7.177   4.356  12.049  0.00  0.00    +0.000 A 
ATOM     10  C   UNL     1       6.110   3.481  12.235  0.00  0.00    +0.000 A 
ATOM     11  C   UNL     1       5.531   3.365  13.494  0.00  0.00    +0.000 A 
ATOM     12  C   UNL     1       6.030   4.136  14.562  0.00  0.00    +0.000 A 
ATOM     13  N   UNL     1       5.257   4.595  17.966  0.00  0.00    +0.000 N 
ATOM     14  H   UNL     1       5.350   4.998  18.887  0.00  0.00    +0.000 HD
ENDROOT
BRANCH   1  18
ATOM     15  C   UNL     1       1.442   2.596  21.686  0.00  0.00    +0.000 C 
ATOM     16  C   UNL     1       2.136   2.727  20.393  0.00  0.00    +0.000 A 
ATOM     17  C   UNL     1       3.178   3.497  19.937  0.00  0.00    +0.000 A 
ATOM     18  C   UNL     1       3.322   3.116  18.588  0.00  0.00    +0.000 A 
ATOM     19  N   UNL     1       2.430   2.181  18.237  0.00  0.00    +0.000 NA
ATOM     20  O   UNL     1       1.687   1.934  19.382  0.00  0.00    +0.000 OA
ENDBRANCH   1  18
TORSDOF 1
ENDMDL
MODEL 3
REMARK VINA RESULT:      -8.1      1.233      2.367
REMARK  Name = 
REMARK  2 active torsions:
REMARK  status: ('A' for Active; 'I' for Inactive)
REMARK    1  A    between atoms: C_1  and  C_2
REMARK    2  A    between atoms: C_4  and  C_5
REMARK                            x       y       z     vdW  Elec       q    Type
REMARK                         _______ _______ _______ _____ _____    ______ ____
ROOT
ATOM      1  C   UNL     1       5.326   4.583  16.372  0.00  0.00    +0.000 A 
ATOM      2  N   UNL     1       4.671   5.568  16.955  0.00  0.00    +0.000 NA
ATOM      3  C   UNL     1       4.015   4.989  18.026  0.00  0.00    +0.000 A 
ATOM      4  C   UNL     1       4.298   3.632  18.094  0.00  0.00    +0.000 A 
ATOM      5  C   UNL     1       3.779   2.814  19.077  0.00  0.00    +0.000 A 
ATOM      6  N   UNL     1       2.956   3.357  20.005  0.00  0.00    +0.000 NA
ATOM      7  C   UNL     1       2.647   4.668  19.968  0.00  0.00    +0.000 A 
ATOM      8  C   UNL     1       1.792   5.201  20.922  0.00  0.00    +0.000 A 
ATOM      9  C   UNL     1       1.433   6.556  20.921  0.00  0.00    +0.000 A 
ATOM     10  C   UNL     1       1.939   7.414  19.948  0.00  0.00    +0.000 A 
ATOM     11  C   UNL     1       2.803   6.917  18.978  0.00  0.00    +0.000 A 
ATOM     12  C   UNL     1       3.151   5.551  18.992  0.00  0.00    +0.000 A 
ATOM     13  N   UNL     1       5.126   3.397  17.030  0.00  0.00    +0.000 N 
ATOM     14  H   UNL     1       5.534   2.515  16.754  0.00  0.00    +0.000 HD
ENDROOT
BRANCH   1  18
ATOM     15  C   UNL     1       7.402   4.242  11.738  0.00  0.00    +0.000 C 
ATOM     16  C   UNL     1       6.997   4.491  13.133  0.00  0.00    +0.000 A 
ATOM     17  C   UNL     1       5.949   4.074  13.916  0.00  0.00    +0.000 A 
ATOM     18  C   UNL     1       6.176   4.701  15.157  0.00  0.00    +0.000 A 
ATOM     19  N   UNL     1       7.284   5.454  15.138  0.00  0.00    +0.000 NA
ATOM     20  O   UNL     1       7.802   5.314  13.859  0.00  0.00    +0.000 OA
ENDBRANCH   1  18
TORSDOF 1
ENDMDL
MODEL 4
REMARK VINA RESULT:      -7.8      1.551      3.080
REMARK  Name = 
REMARK  2 active torsions:
REMARK  status: ('A' for Active; 'I' for Inactive)
REMARK    1  A    between atoms: C_1  and  C_2
REMARK    2  A    between atoms: C_4  and  C_5
REMARK                            x       y       z     vdW  Elec       q    Type
REMARK                         _______ _______ _______ _____ _____    ______ ____
ROOT
ATOM      1  C   UNL     1       5.057   5.607  16.509  0.00  0.00    +0.000 A 
ATOM      2  N   UNL     1       4.361   6.722  16.623  0.00  0.00    +0.000 NA
ATOM      3  C   UNL     1       3.701   6.620  17.834  0.00  0.00    +0.000 A 
ATOM      4  C   UNL     1       4.021   5.426  18.463  0.00  0.00    +0.000 A 
ATOM      5  C   UNL     1       3.506   5.075  19.695  0.00  0.00    +0.000 A 
ATOM      6  N   UNL     1       2.649   5.926  20.307  0.00  0.00    +0.000 NA
ATOM      7  C   UNL     1       2.303   7.091  19.723  0.00  0.00    +0.000 A 
ATOM      8  C   UNL     1       1.414   7.943  20.362  0.00  0.00    +0.000 A 
ATOM      9  C   UNL     1       1.016   9.161  19.793  0.00  0.00    +0.000 A 
ATOM     10  C   UNL     1       1.517   9.552  18.554  0.00  0.00    +0.000 A 
ATOM     11  C   UNL     1       2.415   8.726  17.886  0.00  0.00    +0.000 A 
ATOM     12  C   UNL     1       2.801   7.504  18.471  0.00  0.00    +0.000 A 
ATOM     13  N   UNL     1       4.877   4.797  17.601  0.00  0.00    +0.000 N 
ATOM     14  H   UNL     1       5.316   3.895  17.720  0.00  0.00    +0.000 HD
ENDROOT
BRANCH   1  18
ATOM     15  C   UNL     1       7.062   3.702  12.237  0.00  0.00    +0.000 C 
ATOM     16  C   UNL     1       6.706   4.366  13.503  0.00  0.00    +0.000 A 
ATOM     17  C   UNL     1       5.580   4.391  14.289  0.00  0.00    +0.000 A 
ATOM     18  C   UNL     1       5.927   5.238  15.361  0.00  0.00    +0.000 A 
ATOM     19  N   UNL     1       7.177   5.703  15.241  0.00  0.00    +0.000 NA
ATOM     20  O   UNL     1       7.667   5.146  14.069  0.00  0.00    +0.000 OA
ENDBRANCH   1  18
TORSDOF 1
ENDMDL
MODEL 5
REMARK VINA RESULT:      -7.7      2.364      6.788
REMARK  Name = 
REMARK  2 active torsions:
REMARK  status: ('A' for Active; 'I' for Inactive)
REMARK    1  A    between atoms: C_1  and  C_2
REMARK    2  A    between atoms: C_4  and  C_5
REMARK                            x       y       z     vdW  Elec       q    Type
REMARK                         _______ _______ _______ _____ _____    ______ ____
ROOT
ATOM      1  C   UNL     1       4.122   4.492  17.910  0.00  0.00    +0.000 A 
ATOM      2  N   UNL     1       4.117   3.995  16.688  0.00  0.00    +0.000 NA
ATOM      3  C   UNL     1       5.248   4.505  16.079  0.00  0.00    +0.000 A 
ATOM      4  C   UNL     1       5.954   5.310  16.961  0.00  0.00    +0.000 A 
ATOM      5  C   UNL     1       7.133   5.938  16.612  0.00  0.00    +0.000 A 
ATOM      6  N   UNL     1       7.613   5.767  15.357  0.00  0.00    +0.000 NA
ATOM      7  C   UNL     1       6.950   5.002  14.467  0.00  0.00    +0.000 A 
ATOM      8  C   UNL     1       7.454   4.851  13.182  0.00  0.00    +0.000 A 
ATOM      9  C   UNL     1       6.798   4.074  12.217  0.00  0.00    +0.000 A 
ATOM     10  C   UNL     1       5.609   3.421  12.532  0.00  0.00    +0.000 A 
ATOM     11  C   UNL     1       5.077   3.546  13.811  0.00  0.00    +0.000 A 
ATOM     12  C   UNL     1       5.747   4.334  14.768  0.00  0.00    +0.000 A 
ATOM     13  N   UNL     1       5.217   5.292  18.114  0.00  0.00    +0.000 N 
ATOM     14  H   UNL     1       5.419   5.773  18.979  0.00  0.00    +0.000 HD
ENDROOT
BRANCH   1  18
ATOM     15  C   UNL     1       1.304   2.684  21.743  0.00  0.00    +0.000 C 
ATOM     16  C   UNL     1       1.944   3.388  20.617  0.00  0.00    +0.000 A 
ATOM     17  C   UNL     1       3.081   3.178  19.877  0.00  0.00    +0.000 A 
ATOM     18  C   UNL     1       3.094   4.244  18.956  0.00  0.00    +0.000 A 
ATOM     19  N   UNL     1       2.042   5.056  19.121  0.00  0.00    +0.000 NA
ATOM     20  O   UNL     1       1.315   4.508  20.168  0.00  0.00    +0.000 OA
ENDBRANCH   1  18
TORSDOF 1
ENDMDL
MODEL 6
REMARK VINA RESULT:      -7.4      3.866      7.441
REMARK  Name = 
REMARK  2 active torsions:
REMARK  status: ('A' for Active; 'I' for Inactive)
REMARK    1  A    between atoms: C_1  and  C_2
REMARK    2  A    between atoms: C_4  and  C_5
REMARK                            x       y       z     vdW  Elec       q    Type
REMARK                         _______ _______ _______ _____ _____    ______ ____
ROOT
ATOM      1  C   UNL     1       1.808   7.665  20.112  0.00  0.00    +0.000 A 
ATOM      2  N   UNL     1       2.509   7.721  18.996  0.00  0.00    +0.000 NA
ATOM      3  C   UNL     1       3.057   6.461  18.842  0.00  0.00    +0.000 A 
ATOM      4  C   UNL     1       2.661   5.629  19.879  0.00  0.00    +0.000 A 
ATOM      5  C   UNL     1       3.057   4.309  19.965  0.00  0.00    +0.000 A 
ATOM      6  N   UNL     1       3.870   3.812  19.003  0.00  0.00    +0.000 NA
ATOM      7  C   UNL     1       4.286   4.591  17.985  0.00  0.00    +0.000 A 
ATOM      8  C   UNL     1       5.129   4.064  17.016  0.00  0.00    +0.000 A 
ATOM      9  C   UNL     1       5.596   4.834  15.943  0.00  0.00    +0.000 A 
ATOM     10  C   UNL     1       5.215   6.168  15.819  0.00  0.00    +0.000 A 
ATOM     11  C   UNL     1       4.368   6.729  16.768  0.00  0.00    +0.000 A 
ATOM     12  C   UNL     1       3.910   5.941  17.843  0.00  0.00    +0.000 A 
ATOM     13  N   UNL     1       1.875   6.417  20.676  0.00  0.00    +0.000 N 
ATOM     14  H   UNL     1       1.412   6.154  21.534  0.00  0.00    +0.000 HD
ENDROOT
BRANCH   1  18
ATOM     15  C   UNL     1      -1.014  10.699  23.067  0.00  0.00    +0.000 C 
ATOM     16  C   UNL     1      -0.189  10.017  22.054  0.00  0.00    +0.000 A 
ATOM     17  C   UNL     1       0.358   8.762  21.948  0.00  0.00    +0.000 A 
ATOM     18  C   UNL     1       1.038   8.786  20.714  0.00  0.00    +0.000 A 
ATOM     19  N   UNL     1       0.921   9.973  20.105  0.00  0.00    +0.000 NA
ATOM     20  O   UNL     1       0.141  10.746  20.952  0.00  0.00    +0.000 OA
ENDBRANCH   1  18
TORSDOF 1
ENDMDL
MODEL 7
REMARK VINA RESULT:      -7.4      4.166      7.290
REMARK  Name = 
REMARK  2 active torsions:
REMARK  status: ('A' for Active; 'I' for Inactive)
REMARK    1  A    between atoms: C_1  and  C_2
REMARK    2  A    between atoms: C_4  and  C_5
REMARK                            x       y       z     vdW  Elec       q    Type
REMARK                         _______ _______ _______ _____ _____    ______ ____
ROOT
ATOM      1  C   UNL     1       1.505   7.722  20.666  0.00  0.00    +0.000 A 
ATOM      2  N   UNL     1       1.386   6.412  20.771  0.00  0.00    +0.000 NA
ATOM      3  C   UNL     1       2.081   5.892  19.695  0.00  0.00    +0.000 A 
ATOM      4  C   UNL     1       2.642   6.913  18.940  0.00  0.00    +0.000 A 
ATOM      5  C   UNL     1       3.399   6.671  17.811  0.00  0.00    +0.000 A 
ATOM      6  N   UNL     1       3.594   5.389  17.423  0.00  0.00    +0.000 NA
ATOM      7  C   UNL     1       3.057   4.369  18.123  0.00  0.00    +0.000 A 
ATOM      8  C   UNL     1       3.260   3.063  17.700  0.00  0.00    +0.000 A 
ATOM      9  C   UNL     1       2.715   1.970  18.387  0.00  0.00    +0.000 A 
ATOM     10  C   UNL     1       1.950   2.172  19.532  0.00  0.00    +0.000 A 
ATOM     11  C   UNL     1       1.729   3.467  19.989  0.00  0.00    +0.000 A 
ATOM     12  C   UNL     1       2.280   4.556  19.284  0.00  0.00    +0.000 A 
ATOM     13  N   UNL     1       2.257   8.064  19.572  0.00  0.00    +0.000 N 
ATOM     14  H   UNL     1       2.473   9.013  19.303  0.00  0.00    +0.000 HD
ENDROOT
BRANCH   1  18
ATOM     15  C   UNL     1      -1.438  11.137  23.026  0.00  0.00    +0.000 C 
ATOM     16  C   UNL     1      -0.423  10.190  22.532  0.00  0.00    +0.000 A 
ATOM     17  C   UNL     1      -0.335   9.363  21.439  0.00  0.00    +0.000 A 
ATOM     18  C   UNL     1       0.913   8.727  21.589  0.00  0.00    +0.000 A 
ATOM     19  N   UNL     1       1.547   9.131  22.697  0.00  0.00    +0.000 NA
ATOM     20  O   UNL     1       0.702  10.059  23.287  0.00  0.00    +0.000 OA
ENDBRANCH   1  18
TORSDOF 1
ENDMDL
MODEL 8
REMARK VINA RESULT:      -7.1      3.619      7.148
REMARK  Name = 
REMARK  2 active torsions:
REMARK  status: ('A' for Active; 'I' for Inactive)
REMARK    1  A    between atoms: C_1  and  C_2
REMARK    2  A    between atoms: C_4  and  C_5
REMARK                            x       y       z     vdW  Elec       q    Type
REMARK                         _______ _______ _______ _____ _____    ______ ____
ROOT
ATOM      1  C   UNL     1       2.204   7.391  19.829  0.00  0.00    +0.000 A 
ATOM      2  N   UNL     1       2.840   7.467  18.675  0.00  0.00    +0.000 NA
ATOM      3  C   UNL     1       3.429   6.229  18.497  0.00  0.00    +0.000 A 
ATOM      4  C   UNL     1       3.124   5.389  19.560  0.00  0.00    +0.000 A 
ATOM      5  C   UNL     1       3.578   4.087  19.630  0.00  0.00    +0.000 A 
ATOM      6  N   UNL     1       4.356   3.616  18.627  0.00  0.00    +0.000 NA
ATOM      7  C   UNL     1       4.684   4.403  17.583  0.00  0.00    +0.000 A 
ATOM      8  C   UNL     1       5.493   3.903  16.572  0.00  0.00    +0.000 A 
ATOM      9  C   UNL     1       5.869   4.684  15.471  0.00  0.00    +0.000 A 
ATOM     10  C   UNL     1       5.428   6.000  15.361  0.00  0.00    +0.000 A 
ATOM     11  C   UNL     1       4.612   6.534  16.353  0.00  0.00    +0.000 A 
ATOM     12  C   UNL     1       4.246   5.737  17.456  0.00  0.00    +0.000 A 
ATOM     13  N   UNL     1       2.352   6.151  20.394  0.00  0.00    +0.000 N 
ATOM     14  H   UNL     1       1.949   5.875  21.278  0.00  0.00    +0.000 HD
ENDROOT
BRANCH   1  18
ATOM     15  C   UNL     1      -0.603  11.508  20.862  0.00  0.00    +0.000 C 
ATOM     16  C   UNL     1       0.212  10.281  20.813  0.00  0.00    +0.000 A 
ATOM     17  C   UNL     1       0.789   9.553  19.802  0.00  0.00    +0.000 A 
ATOM     18  C   UNL     1       1.423   8.484  20.466  0.00  0.00    +0.000 A 
ATOM     19  N   UNL     1       1.246   8.548  21.792  0.00  0.00    +0.000 NA
ATOM     20  O   UNL     1       0.486   9.688  22.007  0.00  0.00    +0.000 OA
ENDBRANCH   1  18
TORSDOF 1
ENDMDL
MODEL 9
REMARK VINA RESULT:      -7.0      3.900      5.940
REMARK  Name = 
REMARK  2 active torsions:
REMARK  status: ('A' for Active; 'I' for Inactive)
REMARK    1  A    between atoms: C_1  and  C_2
REMARK    2  A    between atoms: C_4  and  C_5
REMARK                            x       y       z     vdW  Elec       q    Type
REMARK                         _______ _______ _______ _____ _____    ______ ____
ROOT
ATOM      1  C   UNL     1       2.427   6.695  19.370  0.00  0.00    +0.000 A 
ATOM      2  N   UNL     1       1.787   7.070  20.461  0.00  0.00    +0.000 NA
ATOM      3  C   UNL     1       1.377   8.368  20.218  0.00  0.00    +0.000 A 
ATOM      4  C   UNL     1       1.765   8.770  18.948  0.00  0.00    +0.000 A 
ATOM      5  C   UNL     1       1.473  10.022  18.445  0.00  0.00    +0.000 A 
ATOM      6  N   UNL     1       0.788  10.892  19.225  0.00  0.00    +0.000 NA
ATOM      7  C   UNL     1       0.403  10.543  20.469  0.00  0.00    +0.000 A 
ATOM      8  C   UNL     1      -0.287  11.455  21.256  0.00  0.00    +0.000 A 
ATOM      9  C   UNL     1      -0.701  11.144  22.558  0.00  0.00    +0.000 A 
ATOM     10  C   UNL     1      -0.429   9.891  23.099  0.00  0.00    +0.000 A 
ATOM     11  C   UNL     1       0.256   8.949  22.339  0.00  0.00    +0.000 A 
ATOM     12  C   UNL     1       0.669   9.279  21.032  0.00  0.00    +0.000 A 
ATOM     13  N   UNL     1       2.435   7.695  18.432  0.00  0.00    +0.000 N 
ATOM     14  H   UNL     1       2.870   7.621  17.524  0.00  0.00    +0.000 HD
ENDROOT
BRANCH   1  18
ATOM     15  C   UNL     1       3.527   1.864  18.208  0.00  0.00    +0.000 C 
ATOM     16  C   UNL     1       3.449   3.276  18.621  0.00  0.00    +0.000 A 
ATOM     17  C   UNL     1       2.453   4.220  18.624  0.00  0.00    +0.000 A 
ATOM     18  C   UNL     1       3.071   5.372  19.150  0.00  0.00    +0.000 A 
ATOM     19  N   UNL     1       4.359   5.153  19.446  0.00  0.00    +0.000 NA
ATOM     20  O   UNL     1       4.592   3.826  19.116  0.00  0.00    +0.000 OA
ENDBRANCH   1  18
TORSDOF 1
ENDMDL
