MODEL 1
REMARK VINA RESULT:      -7.2      0.000      0.000
REMARK  Name = 
REMARK  5 active torsions:
REMARK  status: ('A' for Active; 'I' for Inactive)
REMARK    1  A    between atoms: C_2  and  C_3
REMARK    2  A    between atoms: C_5  and  C_6
REMARK    3  A    between atoms: C_13  and  C_14
REMARK    4  A    between atoms: C_23  and  O_24
REMARK    5  A    between atoms: O_24  and  C_25
REMARK                            x       y       z     vdW  Elec       q    Type
REMARK                         _______ _______ _______ _____ _____    ______ ____
ROOT
ATOM      1  C   UNL     1       2.147  10.011  18.265  0.00  0.00    +0.000 A 
ATOM      2  C   UNL     1       3.094   9.128  17.739  0.00  0.00    +0.000 A 
ATOM      3  C   UNL     1       3.071   7.746  18.018  0.00  0.00    +0.000 A 
ATOM      4  C   UNL     1       2.071   7.311  18.911  0.00  0.00    +0.000 A 
ATOM      5  N   UNL     1       1.067   8.150  19.310  0.00  0.00    +0.000 NA
ATOM      6  C   UNL     1       1.124   9.474  19.015  0.00  0.00    +0.000 A 
ENDROOT
BRANCH   4   7
ATOM      7  C   UNL     1       1.982   5.972  19.567  0.00  0.00    +0.000 A 
ATOM      8  C   UNL     1       2.385   5.848  20.920  0.00  0.00    +0.000 A 
ATOM      9  C   UNL     1       2.356   4.621  21.592  0.00  0.00    +0.000 A 
ATOM     10  C   UNL     1       1.858   3.495  20.949  0.00  0.00    +0.000 A 
ATOM     11 CL   UNL     1       1.854   1.970  21.739  0.00  0.00    +0.000 Cl
ATOM     12  C   UNL     1       1.426   3.577  19.635  0.00  0.00    +0.000 A 
ATOM     13  C   UNL     1       1.567   4.776  18.929  0.00  0.00    +0.000 A 
ATOM     14 CL   UNL     1       1.319   4.615  17.218  0.00  0.00    +0.000 Cl
ENDBRANCH   4   7
BRANCH   3  15
ATOM     15  C   UNL     1       4.103   6.868  17.411  0.00  0.00    +0.000 A 
ATOM     16  C   UNL     1       4.682   5.819  18.156  0.00  0.00    +0.000 A 
ATOM     17  C   UNL     1       5.547   4.896  17.565  0.00  0.00    +0.000 A 
ATOM     18  C   UNL     1       5.828   4.988  16.206  0.00  0.00    +0.000 A 
ATOM     19 CL   UNL     1       6.852   3.824  15.466  0.00  0.00    +0.000 Cl
ATOM     20  C   UNL     1       5.276   6.008  15.443  0.00  0.00    +0.000 A 
ATOM     21  C   UNL     1       4.462   6.967  16.051  0.00  0.00    +0.000 A 
ENDBRANCH   3  15
BRANCH   1  23
ATOM     22  N   UNL     1       2.391  12.561  17.967  0.00  0.00    +0.000 NA
ATOM     23  C   UNL     1       2.326  11.416  18.057  0.00  0.00    +0.000 C 
ENDBRANCH   1  23
BRANCH   6  24
ATOM     24  O   UNL     1       0.108  10.305  19.495  0.00  0.00    +0.000 OA
BRANCH  24  25
ATOM     25  C   UNL     1      -1.016  10.453  18.705  0.00  0.00    +0.000 A 
ATOM     26  C   UNL     1      -1.176   9.761  17.504  0.00  0.00    +0.000 A 
ATOM     27  C   UNL     1      -2.285   9.995  16.703  0.00  0.00    +0.000 A 
ATOM     28  F   UNL     1      -2.372   9.388  15.515  0.00  0.00    +0.000 F 
ATOM     29  C   UNL     1      -3.292  10.857  17.109  0.00  0.00    +0.000 A 
ATOM     30  C   UNL     1      -3.167  11.484  18.343  0.00  0.00    +0.000 A 
ATOM     31  F   UNL     1      -4.148  12.300  18.759  0.00  0.00    +0.000 F 
ATOM     32  C   UNL     1      -2.045  11.294  19.150  0.00  0.00    +0.000 A 
ENDBRANCH  24  25
ENDBRANCH   6  24
TORSDOF 5
ENDMDL
MODEL 2
REMARK VINA RESULT:      -7.1      0.062      1.451
REMARK  Name = 
REMARK  5 active torsions:
REMARK  status: ('A' for Active; 'I' for Inactive)
REMARK    1  A    between atoms: C_2  and  C_3
REMARK    2  A    between atoms: C_5  and  C_6
REMARK    3  A    between atoms: C_13  and  C_14
REMARK    4  A    between atoms: C_23  and  O_24
REMARK    5  A    between atoms: O_24  and  C_25
REMARK                            x       y       z     vdW  Elec       q    Type
REMARK                         _______ _______ _______ _____ _____    ______ ____
ROOT
ATOM      1  C   UNL     1       2.119  10.018  18.303  0.00  0.00    +0.000 A 
ATOM      2  C   UNL     1       3.061   9.140  17.761  0.00  0.00    +0.000 A 
ATOM      3  C   UNL     1       3.043   7.756  18.032  0.00  0.00    +0.000 A 
ATOM      4  C   UNL     1       2.054   7.314  18.934  0.00  0.00    +0.000 A 
ATOM      5  N   UNL     1       1.054   8.149  19.349  0.00  0.00    +0.000 NA
ATOM      6  C   UNL     1       1.105   9.475  19.061  0.00  0.00    +0.000 A 
ENDROOT
BRANCH   4   7
ATOM      7  C   UNL     1       1.975   5.971  19.584  0.00  0.00    +0.000 A 
ATOM      8  C   UNL     1       2.388   5.842  20.933  0.00  0.00    +0.000 A 
ATOM      9  C   UNL     1       2.368   4.610  21.598  0.00  0.00    +0.000 A 
ATOM     10  C   UNL     1       1.869   3.486  20.952  0.00  0.00    +0.000 A 
ATOM     11 CL   UNL     1       1.876   1.957  21.735  0.00  0.00    +0.000 Cl
ATOM     12  C   UNL     1       1.428   3.574  19.642  0.00  0.00    +0.000 A 
ATOM     13  C   UNL     1       1.559   4.777  18.942  0.00  0.00    +0.000 A 
ATOM     14 CL   UNL     1       1.300   4.624  17.232  0.00  0.00    +0.000 Cl
ENDBRANCH   4   7
BRANCH   3  15
ATOM     15  C   UNL     1       4.071   6.883  17.409  0.00  0.00    +0.000 A 
ATOM     16  C   UNL     1       4.643   5.817  18.135  0.00  0.00    +0.000 A 
ATOM     17  C   UNL     1       5.503   4.901  17.527  0.00  0.00    +0.000 A 
ATOM     18  C   UNL     1       5.784   5.015  16.170  0.00  0.00    +0.000 A 
ATOM     19 CL   UNL     1       6.800   3.859  15.408  0.00  0.00    +0.000 Cl
ATOM     20  C   UNL     1       5.237   6.052  15.425  0.00  0.00    +0.000 A 
ATOM     21  C   UNL     1       4.429   7.004  16.051  0.00  0.00    +0.000 A 
ENDBRANCH   3  15
BRANCH   1  23
ATOM     22  N   UNL     1       2.536  12.542  17.979  0.00  0.00    +0.000 NA
ATOM     23  C   UNL     1       2.293  11.424  18.100  0.00  0.00    +0.000 C 
ENDBRANCH   1  23
BRANCH   6  24
ATOM     24  O   UNL     1       0.093  10.301  19.556  0.00  0.00    +0.000 OA
BRANCH  24  25
ATOM     25  C   UNL     1      -1.020  10.490  18.759  0.00  0.00    +0.000 A 
ATOM     26  C   UNL     1      -2.046  11.366  19.112  0.00  0.00    +0.000 A 
ATOM     27  C   UNL     1      -3.181  11.470  18.322  0.00  0.00    +0.000 A 
ATOM     28  F   UNL     1      -4.191  12.248  18.727  0.00  0.00    +0.000 F 
ATOM     29  C   UNL     1      -3.290  10.770  17.130  0.00  0.00    +0.000 A 
ATOM     30  C   UNL     1      -2.231   9.959  16.741  0.00  0.00    +0.000 A 
ATOM     31  F   UNL     1      -2.312   9.297  15.577  0.00  0.00    +0.000 F 
ATOM     32  C   UNL     1      -1.094   9.809  17.537  0.00  0.00    +0.000 A 
ENDBRANCH  24  25
ENDBRANCH   6  24
TORSDOF 5
ENDMDL
MODEL 3
REMARK VINA RESULT:      -7.1      6.747      9.160
REMARK  Name = 
REMARK  5 active torsions:
REMARK  status: ('A' for Active; 'I' for Inactive)
REMARK    1  A    between atoms: C_2  and  C_3
REMARK    2  A    between atoms: C_5  and  C_6
REMARK    3  A    between atoms: C_13  and  C_14
REMARK    4  A    between atoms: C_23  and  O_24
REMARK    5  A    between atoms: O_24  and  C_25
REMARK                            x       y       z     vdW  Elec       q    Type
REMARK                         _______ _______ _______ _____ _____    ______ ____
ROOT
ATOM      1  C   UNL     1      -5.431  12.413  21.397  0.00  0.00    +0.000 A 
ATOM      2  C   UNL     1      -5.087  12.032  20.098  0.00  0.00    +0.000 A 
ATOM      3  C   UNL     1      -3.750  12.011  19.648  0.00  0.00    +0.000 A 
ATOM      4  C   UNL     1      -2.781  12.457  20.568  0.00  0.00    +0.000 A 
ATOM      5  N   UNL     1      -3.103  12.694  21.876  0.00  0.00    +0.000 NA
ATOM      6  C   UNL     1      -4.403  12.699  22.269  0.00  0.00    +0.000 A 
ENDROOT
BRANCH   4   7
ATOM      7  C   UNL     1      -1.351  12.777  20.273  0.00  0.00    +0.000 A 
ATOM      8  C   UNL     1      -1.047  13.998  19.622  0.00  0.00    +0.000 A 
ATOM      9  C   UNL     1       0.265  14.353  19.289  0.00  0.00    +0.000 A 
ATOM     10  C   UNL     1       1.318  13.525  19.658  0.00  0.00    +0.000 A 
ATOM     11 CL   UNL     1       2.931  13.918  19.220  0.00  0.00    +0.000 Cl
ATOM     12  C   UNL     1       1.068  12.335  20.322  0.00  0.00    +0.000 A 
ATOM     13  C   UNL     1      -0.250  11.927  20.548  0.00  0.00    +0.000 A 
ATOM     14 CL   UNL     1      -0.395  10.272  21.056  0.00  0.00    +0.000 Cl
ENDBRANCH   4   7
BRANCH   3  15
ATOM     15  C   UNL     1      -3.462  11.580  18.256  0.00  0.00    +0.000 A 
ATOM     16  C   UNL     1      -2.353  10.754  17.976  0.00  0.00    +0.000 A 
ATOM     17  C   UNL     1      -2.144  10.223  16.702  0.00  0.00    +0.000 A 
ATOM     18  C   UNL     1      -3.059  10.486  15.687  0.00  0.00    +0.000 A 
ATOM     19 CL   UNL     1      -2.831   9.793  14.132  0.00  0.00    +0.000 Cl
ATOM     20  C   UNL     1      -4.161  11.296  15.929  0.00  0.00    +0.000 A 
ATOM     21  C   UNL     1      -4.331  11.877  17.187  0.00  0.00    +0.000 A 
ENDBRANCH   3  15
BRANCH   1  23
ATOM     22  N   UNL     1      -7.917  12.771  21.980  0.00  0.00    +0.000 NA
ATOM     23  C   UNL     1      -6.816  12.550  21.730  0.00  0.00    +0.000 C 
ENDBRANCH   1  23
BRANCH   6  24
ATOM     24  O   UNL     1      -4.692  13.005  23.602  0.00  0.00    +0.000 OA
BRANCH  24  25
ATOM     25  C   UNL     1      -4.419  14.290  24.031  0.00  0.00    +0.000 A 
ATOM     26  C   UNL     1      -3.260  14.606  24.741  0.00  0.00    +0.000 A 
ATOM     27  C   UNL     1      -3.060  15.892  25.220  0.00  0.00    +0.000 A 
ATOM     28  F   UNL     1      -1.986  16.149  25.974  0.00  0.00    +0.000 F 
ATOM     29  C   UNL     1      -3.962  16.908  24.940  0.00  0.00    +0.000 A 
ATOM     30  C   UNL     1      -5.075  16.608  24.165  0.00  0.00    +0.000 A 
ATOM     31  F   UNL     1      -5.942  17.588  23.865  0.00  0.00    +0.000 F 
ATOM     32  C   UNL     1      -5.318  15.314  23.703  0.00  0.00    +0.000 A 
ENDBRANCH  24  25
ENDBRANCH   6  24
TORSDOF 5
ENDMDL
MODEL 4
REMARK VINA RESULT:      -7.0      5.117      8.102
REMARK  Name = 
REMARK  5 active torsions:
REMARK  status: ('A' for Active; 'I' for Inactive)
REMARK    1  A    between atoms: C_2  and  C_3
REMARK    2  A    between atoms: C_5  and  C_6
REMARK    3  A    between atoms: C_13  and  C_14
REMARK    4  A    between atoms: C_23  and  O_24
REMARK    5  A    between atoms: O_24  and  C_25
REMARK                            x       y       z     vdW  Elec       q    Type
REMARK                         _______ _______ _______ _____ _____    ______ ____
ROOT
ATOM      1  C   UNL     1       1.115  10.598  18.544  0.00  0.00    +0.000 A 
ATOM      2  C   UNL     1       2.073  11.574  18.830  0.00  0.00    +0.000 A 
ATOM      3  C   UNL     1       1.722  12.862  19.287  0.00  0.00    +0.000 A 
ATOM      4  C   UNL     1       0.342  13.132  19.378  0.00  0.00    +0.000 A 
ATOM      5  N   UNL     1      -0.584  12.136  19.233  0.00  0.00    +0.000 NA
ATOM      6  C   UNL     1      -0.204  10.907  18.798  0.00  0.00    +0.000 A 
ENDROOT
BRANCH   4   7
ATOM      7  C   UNL     1      -0.294  14.468  19.581  0.00  0.00    +0.000 A 
ATOM      8  C   UNL     1      -0.110  15.466  18.592  0.00  0.00    +0.000 A 
ATOM      9  C   UNL     1      -0.652  16.750  18.726  0.00  0.00    +0.000 A 
ATOM     10  C   UNL     1      -1.451  17.050  19.822  0.00  0.00    +0.000 A 
ATOM     11 CL   UNL     1      -2.090  18.631  20.028  0.00  0.00    +0.000 Cl
ATOM     12  C   UNL     1      -1.681  16.094  20.799  0.00  0.00    +0.000 A 
ATOM     13  C   UNL     1      -1.042  14.853  20.722  0.00  0.00    +0.000 A 
ATOM     14 CL   UNL     1      -1.147  13.920  22.183  0.00  0.00    +0.000 Cl
ENDBRANCH   4   7
BRANCH   3  15
ATOM     15  C   UNL     1       2.798  13.842  19.584  0.00  0.00    +0.000 A 
ATOM     16  C   UNL     1       3.218  14.066  20.912  0.00  0.00    +0.000 A 
ATOM     17  C   UNL     1       4.319  14.874  21.201  0.00  0.00    +0.000 A 
ATOM     18  C   UNL     1       5.041  15.452  20.163  0.00  0.00    +0.000 A 
ATOM     19 CL   UNL     1       6.426  16.405  20.513  0.00  0.00    +0.000 Cl
ATOM     20  C   UNL     1       4.654  15.253  18.843  0.00  0.00    +0.000 A 
ATOM     21  C   UNL     1       3.514  14.497  18.562  0.00  0.00    +0.000 A 
ENDBRANCH   3  15
BRANCH   1  23
ATOM     22  N   UNL     1       1.779   8.371  17.429  0.00  0.00    +0.000 NA
ATOM     23  C   UNL     1       1.541   9.370  17.946  0.00  0.00    +0.000 C 
ENDBRANCH   1  23
BRANCH   6  24
ATOM     24  O   UNL     1      -1.191   9.937  18.605  0.00  0.00    +0.000 OA
BRANCH  24  25
ATOM     25  C   UNL     1      -2.144  10.184  17.635  0.00  0.00    +0.000 A 
ATOM     26  C   UNL     1      -1.918   9.911  16.286  0.00  0.00    +0.000 A 
ATOM     27  C   UNL     1      -2.872  10.244  15.335  0.00  0.00    +0.000 A 
ATOM     28  F   UNL     1      -2.596  10.055  14.040  0.00  0.00    +0.000 F 
ATOM     29  C   UNL     1      -4.095  10.780  15.706  0.00  0.00    +0.000 A 
ATOM     30  C   UNL     1      -4.348  10.977  17.058  0.00  0.00    +0.000 A 
ATOM     31  F   UNL     1      -5.538  11.472  17.431  0.00  0.00    +0.000 F 
ATOM     32  C   UNL     1      -3.391  10.685  18.031  0.00  0.00    +0.000 A 
ENDBRANCH  24  25
ENDBRANCH   6  24
TORSDOF 5
ENDMDL
MODEL 5
REMARK VINA RESULT:      -7.0      6.506      8.885
REMARK  Name = 
REMARK  5 active torsions:
REMARK  status: ('A' for Active; 'I' for Inactive)
REMARK    1  A    between atoms: C_2  and  C_3
REMARK    2  A    between atoms: C_5  and  C_6
REMARK    3  A    between atoms: C_13  and  C_14
REMARK    4  A    between atoms: C_23  and  O_24
REMARK    5  A    between atoms: O_24  and  C_25
REMARK                            x       y       z     vdW  Elec       q    Type
REMARK                         _______ _______ _______ _____ _____    ______ ____
ROOT
ATOM      1  C   UNL     1      -5.406  12.284  20.844  0.00  0.00    +0.000 A 
ATOM      2  C   UNL     1      -5.025  11.858  19.569  0.00  0.00    +0.000 A 
ATOM      3  C   UNL     1      -3.677  11.834  19.155  0.00  0.00    +0.000 A 
ATOM      4  C   UNL     1      -2.736  12.325  20.083  0.00  0.00    +0.000 A 
ATOM      5  N   UNL     1      -3.096  12.608  21.371  0.00  0.00    +0.000 NA
ATOM      6  C   UNL     1      -4.405  12.614  21.730  0.00  0.00    +0.000 A 
ENDROOT
BRANCH   4   7
ATOM      7  C   UNL     1      -1.302  12.649  19.813  0.00  0.00    +0.000 A 
ATOM      8  C   UNL     1      -0.993  13.853  19.134  0.00  0.00    +0.000 A 
ATOM      9  C   UNL     1       0.325  14.209  18.822  0.00  0.00    +0.000 A 
ATOM     10  C   UNL     1       1.374  13.402  19.241  0.00  0.00    +0.000 A 
ATOM     11 CL   UNL     1       2.995  13.796  18.831  0.00  0.00    +0.000 Cl
ATOM     12  C   UNL     1       1.118  12.229  19.934  0.00  0.00    +0.000 A 
ATOM     13  C   UNL     1      -0.202  11.817  20.140  0.00  0.00    +0.000 A 
ATOM     14 CL   UNL     1      -0.345  10.177  20.693  0.00  0.00    +0.000 Cl
ENDBRANCH   4   7
BRANCH   3  15
ATOM     15  C   UNL     1      -3.347  11.354  17.789  0.00  0.00    +0.000 A 
ATOM     16  C   UNL     1      -2.326  10.401  17.590  0.00  0.00    +0.000 A 
ATOM     17  C   UNL     1      -2.095   9.833  16.336  0.00  0.00    +0.000 A 
ATOM     18  C   UNL     1      -2.902  10.186  15.260  0.00  0.00    +0.000 A 
ATOM     19 CL   UNL     1      -2.653   9.450  13.728  0.00  0.00    +0.000 Cl
ATOM     20  C   UNL     1      -3.916  11.122  15.421  0.00  0.00    +0.000 A 
ATOM     21  C   UNL     1      -4.102  11.735  16.662  0.00  0.00    +0.000 A 
ENDBRANCH   3  15
BRANCH   1  23
ATOM     22  N   UNL     1      -7.916  12.429  21.420  0.00  0.00    +0.000 NA
ATOM     23  C   UNL     1      -6.801  12.420  21.135  0.00  0.00    +0.000 C 
ENDBRANCH   1  23
BRANCH   6  24
ATOM     24  O   UNL     1      -4.732  12.968  23.042  0.00  0.00    +0.000 OA
BRANCH  24  25
ATOM     25  C   UNL     1      -4.174  14.127  23.545  0.00  0.00    +0.000 A 
ATOM     26  C   UNL     1      -4.492  15.386  23.035  0.00  0.00    +0.000 A 
ATOM     27  C   UNL     1      -3.853  16.519  23.517  0.00  0.00    +0.000 A 
ATOM     28  F   UNL     1      -4.108  17.704  22.951  0.00  0.00    +0.000 F 
ATOM     29  C   UNL     1      -2.946  16.439  24.563  0.00  0.00    +0.000 A 
ATOM     30  C   UNL     1      -2.691  15.193  25.122  0.00  0.00    +0.000 A 
ATOM     31  F   UNL     1      -1.836  15.106  26.152  0.00  0.00    +0.000 F 
ATOM     32  C   UNL     1      -3.293  14.034  24.631  0.00  0.00    +0.000 A 
ENDBRANCH  24  25
ENDBRANCH   6  24
TORSDOF 5
ENDMDL
MODEL 6
REMARK VINA RESULT:      -7.0      5.100      7.674
REMARK  Name = 
REMARK  5 active torsions:
REMARK  status: ('A' for Active; 'I' for Inactive)
REMARK    1  A    between atoms: C_2  and  C_3
REMARK    2  A    between atoms: C_5  and  C_6
REMARK    3  A    between atoms: C_13  and  C_14
REMARK    4  A    between atoms: C_23  and  O_24
REMARK    5  A    between atoms: O_24  and  C_25
REMARK                            x       y       z     vdW  Elec       q    Type
REMARK                         _______ _______ _______ _____ _____    ______ ____
ROOT
ATOM      1  C   UNL     1      -1.689  13.751  23.210  0.00  0.00    +0.000 A 
ATOM      2  C   UNL     1      -0.615  14.222  22.449  0.00  0.00    +0.000 A 
ATOM      3  C   UNL     1       0.025  13.425  21.477  0.00  0.00    +0.000 A 
ATOM      4  C   UNL     1      -0.442  12.100  21.358  0.00  0.00    +0.000 A 
ATOM      5  N   UNL     1      -1.577  11.690  22.000  0.00  0.00    +0.000 NA
ATOM      6  C   UNL     1      -2.166  12.491  22.925  0.00  0.00    +0.000 A 
ENDROOT
BRANCH   4   7
ATOM      7  C   UNL     1       0.214  10.987  20.606  0.00  0.00    +0.000 A 
ATOM      8  C   UNL     1       0.326  11.091  19.198  0.00  0.00    +0.000 A 
ATOM      9  C   UNL     1       0.903  10.077  18.424  0.00  0.00    +0.000 A 
ATOM     10  C   UNL     1       1.445   8.960  19.047  0.00  0.00    +0.000 A 
ATOM     11 CL   UNL     1       2.118   7.684  18.115  0.00  0.00    +0.000 Cl
ATOM     12  C   UNL     1       1.383   8.831  20.425  0.00  0.00    +0.000 A 
ATOM     13  C   UNL     1       0.702   9.788  21.183  0.00  0.00    +0.000 A 
ATOM     14 CL   UNL     1       0.407   9.301  22.824  0.00  0.00    +0.000 Cl
ENDBRANCH   4   7
BRANCH   3  15
ATOM     15  C   UNL     1       1.152  13.999  20.698  0.00  0.00    +0.000 A 
ATOM     16  C   UNL     1       0.905  14.817  19.575  0.00  0.00    +0.000 A 
ATOM     17  C   UNL     1       1.941  15.479  18.915  0.00  0.00    +0.000 A 
ATOM     18  C   UNL     1       3.244  15.360  19.385  0.00  0.00    +0.000 A 
ATOM     19 CL   UNL     1       4.514  16.216  18.605  0.00  0.00    +0.000 Cl
ATOM     20  C   UNL     1       3.523  14.563  20.487  0.00  0.00    +0.000 A 
ATOM     21  C   UNL     1       2.493  13.851  21.105  0.00  0.00    +0.000 A 
ENDBRANCH   3  15
BRANCH   1  23
ATOM     22  N   UNL     1      -2.560  15.138  25.201  0.00  0.00    +0.000 NA
ATOM     23  C   UNL     1      -2.186  14.567  24.276  0.00  0.00    +0.000 C 
ENDBRANCH   1  23
BRANCH   6  24
ATOM     24  O   UNL     1      -3.290  12.008  23.601  0.00  0.00    +0.000 OA
BRANCH  24  25
ATOM     25  C   UNL     1      -4.522  12.505  23.221  0.00  0.00    +0.000 A 
ATOM     26  C   UNL     1      -4.840  12.761  21.886  0.00  0.00    +0.000 A 
ATOM     27  C   UNL     1      -6.060  13.330  21.554  0.00  0.00    +0.000 A 
ATOM     28  F   UNL     1      -6.306  13.649  20.278  0.00  0.00    +0.000 F 
ATOM     29  C   UNL     1      -7.019  13.586  22.522  0.00  0.00    +0.000 A 
ATOM     30  C   UNL     1      -6.730  13.256  23.841  0.00  0.00    +0.000 A 
ATOM     31  F   UNL     1      -7.659  13.474  24.784  0.00  0.00    +0.000 F 
ATOM     32  C   UNL     1      -5.496  12.717  24.206  0.00  0.00    +0.000 A 
ENDBRANCH  24  25
ENDBRANCH   6  24
TORSDOF 5
ENDMDL
MODEL 7
REMARK VINA RESULT:      -7.0      4.913      7.511
REMARK  Name = 
REMARK  5 active torsions:
REMARK  status: ('A' for Active; 'I' for Inactive)
REMARK    1  A    between atoms: C_2  and  C_3
REMARK    2  A    between atoms: C_5  and  C_6
REMARK    3  A    between atoms: C_13  and  C_14
REMARK    4  A    between atoms: C_23  and  O_24
REMARK    5  A    between atoms: O_24  and  C_25
REMARK                            x       y       z     vdW  Elec       q    Type
REMARK                         _______ _______ _______ _____ _____    ______ ____
ROOT
ATOM      1  C   UNL     1       2.178  14.354  20.605  0.00  0.00    +0.000 A 
ATOM      2  C   UNL     1       2.211  12.974  20.391  0.00  0.00    +0.000 A 
ATOM      3  C   UNL     1       1.134  12.277  19.804  0.00  0.00    +0.000 A 
ATOM      4  C   UNL     1      -0.009  13.046  19.501  0.00  0.00    +0.000 A 
ATOM      5  N   UNL     1       0.016  14.410  19.582  0.00  0.00    +0.000 NA
ATOM      6  C   UNL     1       1.076  15.043  20.148  0.00  0.00    +0.000 A 
ENDROOT
BRANCH   4   7
ATOM      7  C   UNL     1      -1.358  12.527  19.123  0.00  0.00    +0.000 A 
ATOM      8  C   UNL     1      -1.529  11.948  17.841  0.00  0.00    +0.000 A 
ATOM      9  C   UNL     1      -2.769  11.466  17.406  0.00  0.00    +0.000 A 
ATOM     10  C   UNL     1      -3.858  11.489  18.268  0.00  0.00    +0.000 A 
ATOM     11 CL   UNL     1      -5.399  10.944  17.740  0.00  0.00    +0.000 Cl
ATOM     12  C   UNL     1      -3.728  12.020  19.541  0.00  0.00    +0.000 A 
ATOM     13  C   UNL     1      -2.520  12.608  19.930  0.00  0.00    +0.000 A 
ATOM     14 CL   UNL     1      -2.632  13.534  21.395  0.00  0.00    +0.000 Cl
ENDBRANCH   4   7
BRANCH   3  15
ATOM     15  C   UNL     1       1.247  10.811  19.596  0.00  0.00    +0.000 A 
ATOM     16  C   UNL     1       1.686  10.294  18.359  0.00  0.00    +0.000 A 
ATOM     17  C   UNL     1       1.935   8.931  18.187  0.00  0.00    +0.000 A 
ATOM     18  C   UNL     1       1.778   8.061  19.260  0.00  0.00    +0.000 A 
ATOM     19 CL   UNL     1       2.132   6.391  19.065  0.00  0.00    +0.000 Cl
ATOM     20  C   UNL     1       1.347   8.537  20.492  0.00  0.00    +0.000 A 
ATOM     21  C   UNL     1       1.037   9.890  20.642  0.00  0.00    +0.000 A 
ENDBRANCH   3  15
BRANCH   1  23
ATOM     22  N   UNL     1       4.148  15.482  21.829  0.00  0.00    +0.000 NA
ATOM     23  C   UNL     1       3.247  14.962  21.338  0.00  0.00    +0.000 C 
ENDBRANCH   1  23
BRANCH   6  24
ATOM     24  O   UNL     1       1.033  16.435  20.264  0.00  0.00    +0.000 OA
BRANCH  24  25
ATOM     25  C   UNL     1       0.478  17.143  19.216  0.00  0.00    +0.000 A 
ATOM     26  C   UNL     1      -0.835  17.614  19.251  0.00  0.00    +0.000 A 
ATOM     27  C   UNL     1      -1.379  18.254  18.147  0.00  0.00    +0.000 A 
ATOM     28  F   UNL     1      -2.667  18.616  18.171  0.00  0.00    +0.000 F 
ATOM     29  C   UNL     1      -0.614  18.511  17.020  0.00  0.00    +0.000 A 
ATOM     30  C   UNL     1       0.716  18.112  17.019  0.00  0.00    +0.000 A 
ATOM     31  F   UNL     1       1.474  18.378  15.944  0.00  0.00    +0.000 F 
ATOM     32  C   UNL     1       1.277  17.433  18.102  0.00  0.00    +0.000 A 
ENDBRANCH  24  25
ENDBRANCH   6  24
TORSDOF 5
ENDMDL
MODEL 8
REMARK VINA RESULT:      -6.9      5.407      8.461
REMARK  Name = 
REMARK  5 active torsions:
REMARK  status: ('A' for Active; 'I' for Inactive)
REMARK    1  A    between atoms: C_2  and  C_3
REMARK    2  A    between atoms: C_5  and  C_6
REMARK    3  A    between atoms: C_13  and  C_14
REMARK    4  A    between atoms: C_23  and  O_24
REMARK    5  A    between atoms: O_24  and  C_25
REMARK                            x       y       z     vdW  Elec       q    Type
REMARK                         _______ _______ _______ _____ _____    ______ ____
ROOT
ATOM      1  C   UNL     1       0.942  10.938  18.741  0.00  0.00    +0.000 A 
ATOM      2  C   UNL     1       1.871  11.929  19.070  0.00  0.00    +0.000 A 
ATOM      3  C   UNL     1       1.490  13.151  19.662  0.00  0.00    +0.000 A 
ATOM      4  C   UNL     1       0.106  13.343  19.849  0.00  0.00    +0.000 A 
ATOM      5  N   UNL     1      -0.782  12.321  19.657  0.00  0.00    +0.000 NA
ATOM      6  C   UNL     1      -0.373  11.158  19.090  0.00  0.00    +0.000 A 
ENDROOT
BRANCH   4   7
ATOM      7  C   UNL     1      -0.576  14.623  20.208  0.00  0.00    +0.000 A 
ATOM      8  C   UNL     1      -0.662  15.645  19.231  0.00  0.00    +0.000 A 
ATOM      9  C   UNL     1      -1.262  16.881  19.504  0.00  0.00    +0.000 A 
ATOM     10  C   UNL     1      -1.852  17.102  20.742  0.00  0.00    +0.000 A 
ATOM     11 CL   UNL     1      -2.553  18.626  21.113  0.00  0.00    +0.000 Cl
ATOM     12  C   UNL     1      -1.815  16.119  21.717  0.00  0.00    +0.000 A 
ATOM     13  C   UNL     1      -1.113  14.933  21.483  0.00  0.00    +0.000 A 
ATOM     14 CL   UNL     1      -0.862  13.975  22.910  0.00  0.00    +0.000 Cl
ENDBRANCH   4   7
BRANCH   3  15
ATOM     15  C   UNL     1       2.536  14.151  19.995  0.00  0.00    +0.000 A 
ATOM     16  C   UNL     1       2.993  15.064  19.021  0.00  0.00    +0.000 A 
ATOM     17  C   UNL     1       3.869  16.100  19.348  0.00  0.00    +0.000 A 
ATOM     18  C   UNL     1       4.284  16.262  20.665  0.00  0.00    +0.000 A 
ATOM     19 CL   UNL     1       5.322  17.566  21.079  0.00  0.00    +0.000 Cl
ATOM     20  C   UNL     1       3.854  15.380  21.649  0.00  0.00    +0.000 A 
ATOM     21  C   UNL     1       3.029  14.307  21.306  0.00  0.00    +0.000 A 
ENDBRANCH   3  15
BRANCH   1  23
ATOM     22  N   UNL     1       1.692   8.809  17.495  0.00  0.00    +0.000 NA
ATOM     23  C   UNL     1       1.388   9.792  18.009  0.00  0.00    +0.000 C 
ENDBRANCH   1  23
BRANCH   6  24
ATOM     24  O   UNL     1      -1.325  10.162  18.857  0.00  0.00    +0.000 OA
BRANCH  24  25
ATOM     25  C   UNL     1      -2.226  10.372  17.830  0.00  0.00    +0.000 A 
ATOM     26  C   UNL     1      -1.969   9.961  16.522  0.00  0.00    +0.000 A 
ATOM     27  C   UNL     1      -2.866  10.258  15.505  0.00  0.00    +0.000 A 
ATOM     28  F   UNL     1      -2.556   9.933  14.246  0.00  0.00    +0.000 F 
ATOM     29  C   UNL     1      -4.066  10.898  15.775  0.00  0.00    +0.000 A 
ATOM     30  C   UNL     1      -4.354  11.235  17.091  0.00  0.00    +0.000 A 
ATOM     31  F   UNL     1      -5.524  11.831  17.368  0.00  0.00    +0.000 F 
ATOM     32  C   UNL     1      -3.453  10.980  18.126  0.00  0.00    +0.000 A 
ENDBRANCH  24  25
ENDBRANCH   6  24
TORSDOF 5
ENDMDL
MODEL 9
REMARK VINA RESULT:      -6.9      5.323      7.935
REMARK  Name = 
REMARK  5 active torsions:
REMARK  status: ('A' for Active; 'I' for Inactive)
REMARK    1  A    between atoms: C_2  and  C_3
REMARK    2  A    between atoms: C_5  and  C_6
REMARK    3  A    between atoms: C_13  and  C_14
REMARK    4  A    between atoms: C_23  and  O_24
REMARK    5  A    between atoms: O_24  and  C_25
REMARK                            x       y       z     vdW  Elec       q    Type
REMARK                         _______ _______ _______ _____ _____    ______ ____
ROOT
ATOM      1  C   UNL     1      -1.544  13.971  23.487  0.00  0.00    +0.000 A 
ATOM      2  C   UNL     1      -0.494  14.462  22.707  0.00  0.00    +0.000 A 
ATOM      3  C   UNL     1       0.030  13.744  21.612  0.00  0.00    +0.000 A 
ATOM      4  C   UNL     1      -0.526  12.468  21.386  0.00  0.00    +0.000 A 
ATOM      5  N   UNL     1      -1.641  12.054  22.060  0.00  0.00    +0.000 NA
ATOM      6  C   UNL     1      -2.117  12.779  23.105  0.00  0.00    +0.000 A 
ENDROOT
BRANCH   4   7
ATOM      7  C   UNL     1       0.008  11.411  20.474  0.00  0.00    +0.000 A 
ATOM      8  C   UNL     1       0.800  10.374  21.026  0.00  0.00    +0.000 A 
ATOM      9  C   UNL     1       1.357   9.366  20.231  0.00  0.00    +0.000 A 
ATOM     10  C   UNL     1       1.081   9.329  18.871  0.00  0.00    +0.000 A 
ATOM     11 CL   UNL     1       1.790   8.127  17.869  0.00  0.00    +0.000 Cl
ATOM     12  C   UNL     1       0.287  10.308  18.294  0.00  0.00    +0.000 A 
ATOM     13  C   UNL     1      -0.169  11.379  19.069  0.00  0.00    +0.000 A 
ATOM     14 CL   UNL     1      -0.834  12.684  18.135  0.00  0.00    +0.000 Cl
ENDBRANCH   4   7
BRANCH   3  15
ATOM     15  C   UNL     1       1.137  14.337  20.820  0.00  0.00    +0.000 A 
ATOM     16  C   UNL     1       0.876  15.329  19.851  0.00  0.00    +0.000 A 
ATOM     17  C   UNL     1       1.911  15.999  19.197  0.00  0.00    +0.000 A 
ATOM     18  C   UNL     1       3.232  15.711  19.522  0.00  0.00    +0.000 A 
ATOM     19 CL   UNL     1       4.507  16.570  18.756  0.00  0.00    +0.000 Cl
ATOM     20  C   UNL     1       3.525  14.740  20.471  0.00  0.00    +0.000 A 
ATOM     21  C   UNL     1       2.488  14.026  21.076  0.00  0.00    +0.000 A 
ENDBRANCH   3  15
BRANCH   1  23
ATOM     22  N   UNL     1      -2.321  15.223  25.603  0.00  0.00    +0.000 NA
ATOM     23  C   UNL     1      -1.918  14.690  24.667  0.00  0.00    +0.000 C 
ENDBRANCH   1  23
BRANCH   6  24
ATOM     24  O   UNL     1      -3.223  12.287  23.804  0.00  0.00    +0.000 OA
BRANCH  24  25
ATOM     25  C   UNL     1      -4.475  12.669  23.362  0.00  0.00    +0.000 A 
ATOM     26  C   UNL     1      -4.758  12.865  22.010  0.00  0.00    +0.000 A 
ATOM     27  C   UNL     1      -6.006  13.322  21.615  0.00  0.00    +0.000 A 
ATOM     28  F   UNL     1      -6.225  13.588  20.322  0.00  0.00    +0.000 F 
ATOM     29  C   UNL     1      -7.021  13.519  22.538  0.00  0.00    +0.000 A 
ATOM     30  C   UNL     1      -6.761  13.247  23.875  0.00  0.00    +0.000 A 
ATOM     31  F   UNL     1      -7.743  13.410  24.775  0.00  0.00    +0.000 F 
ATOM     32  C   UNL     1      -5.502  12.823  24.303  0.00  0.00    +0.000 A 
ENDBRANCH  24  25
ENDBRANCH   6  24
TORSDOF 5
ENDMDL
