MODEL 1
REMARK VINA RESULT:      -8.4      0.000      0.000
REMARK  Name = 
REMARK  9 active torsions:
REMARK  status: ('A' for Active; 'I' for Inactive)
REMARK    1  A    between atoms: C_2  and  O_3
REMARK    2  A    between atoms: C_2  and  C_4
REMARK    3  A    between atoms: C_4  and  C_5
REMARK    4  A    between atoms: C_5  and  C_6
REMARK    5  A    between atoms: C_5  and  C_24
REMARK    6  A    between atoms: C_6  and  C_7
REMARK    7  A    between atoms: N_9  and  C_10
REMARK    8  A    between atoms: C_13  and  O_14
REMARK    9  A    between atoms: O_14  and  C_15
REMARK                            x       y       z     vdW  Elec       q    Type
REMARK                         _______ _______ _______ _____ _____    ______ ____
ROOT
ATOM      1  C   UNL     1       2.912   5.351  17.886  0.00  0.00    +0.000 C 
ATOM      2  O   UNL     1       1.746   5.013  17.669  0.00  0.00    +0.000 OA
ATOM      3  N   UNL     1       3.352   6.569  18.359  0.00  0.00    +0.000 N 
ATOM      4  H   UNL     1       4.346   6.753  18.335  0.00  0.00    +0.000 HD
ENDROOT
BRANCH   3   5
ATOM      5  C   UNL     1       2.524   7.638  18.769  0.00  0.00    +0.000 A 
ATOM      6  C   UNL     1       1.938   7.704  20.034  0.00  0.00    +0.000 A 
ATOM      7  C   UNL     1       1.115   8.778  20.382  0.00  0.00    +0.000 A 
ATOM      8  C   UNL     1       0.866   9.799  19.470  0.00  0.00    +0.000 A 
ATOM      9  C   UNL     1       1.428   9.730  18.193  0.00  0.00    +0.000 A 
ATOM     10  C   UNL     1       2.290   8.677  17.860  0.00  0.00    +0.000 A 
BRANCH   8  11
ATOM     11  O   UNL     1      -0.001  10.775  19.902  0.00  0.00    +0.000 OA
BRANCH  11  12
ATOM     12  C   UNL     1      -1.218  10.952  19.290  0.00  0.00    +0.000 A 
ATOM     13  C   UNL     1      -1.553   9.995  18.328  0.00  0.00    +0.000 A 
ATOM     14  C   UNL     1      -2.768  10.080  17.645  0.00  0.00    +0.000 A 
ATOM     15  C   UNL     1      -3.645  11.125  17.925  0.00  0.00    +0.000 A 
ATOM     16 CL   UNL     1      -5.123  11.261  17.058  0.00  0.00    +0.000 Cl
ATOM     17  C   UNL     1      -3.334  12.064  18.911  0.00  0.00    +0.000 A 
ATOM     18  C   UNL     1      -2.132  11.957  19.613  0.00  0.00    +0.000 A 
ENDBRANCH  11  12
ENDBRANCH   8  11
ENDBRANCH   3   5
BRANCH   1  19
ATOM     19  C   UNL     1       4.000   4.328  17.656  0.00  0.00    +0.000 C 
BRANCH  19  20
ATOM     20  C   UNL     1       5.030   4.812  16.616  0.00  0.00    +0.000 C 
BRANCH  20  21
ATOM     21  C   UNL     1       6.136   5.605  17.313  0.00  0.00    +0.000 A 
ATOM     22  C   UNL     1       6.790   5.046  18.424  0.00  0.00    +0.000 A 
ATOM     23  C   UNL     1       7.784   5.757  19.101  0.00  0.00    +0.000 A 
ATOM     24  C   UNL     1       8.139   7.036  18.681  0.00  0.00    +0.000 A 
ATOM     25  C   UNL     1       7.518   7.595  17.570  0.00  0.00    +0.000 A 
ATOM     26  C   UNL     1       6.534   6.882  16.884  0.00  0.00    +0.000 A 
ENDBRANCH  20  21
BRANCH  20  27
ATOM     27  C   UNL     1       5.596   3.714  15.683  0.00  0.00    +0.000 C 
BRANCH  27  29
ATOM     28  O   UNL     1       5.183   4.022  13.333  0.00  0.00    +0.000 OA
ATOM     29  C   UNL     1       5.934   4.174  14.284  0.00  0.00    +0.000 C 
BRANCH  29  30
ATOM     30  O   UNL     1       7.122   4.797  14.174  0.00  0.00    +0.000 OA
ATOM     31  H   UNL     1       7.702   4.478  13.440  0.00  0.00    +0.000 HD
ENDBRANCH  29  30
ENDBRANCH  27  29
ENDBRANCH  20  27
ENDBRANCH  19  20
ENDBRANCH   1  19
TORSDOF 9
ENDMDL
MODEL 2
REMARK VINA RESULT:      -8.3      2.145      2.874
REMARK  Name = 
REMARK  9 active torsions:
REMARK  status: ('A' for Active; 'I' for Inactive)
REMARK    1  A    between atoms: C_2  and  O_3
REMARK    2  A    between atoms: C_2  and  C_4
REMARK    3  A    between atoms: C_4  and  C_5
REMARK    4  A    between atoms: C_5  and  C_6
REMARK    5  A    between atoms: C_5  and  C_24
REMARK    6  A    between atoms: C_6  and  C_7
REMARK    7  A    between atoms: N_9  and  C_10
REMARK    8  A    between atoms: C_13  and  O_14
REMARK    9  A    between atoms: O_14  and  C_15
REMARK                            x       y       z     vdW  Elec       q    Type
REMARK                         _______ _______ _______ _____ _____    ______ ____
ROOT
ATOM      1  C   UNL     1       2.420   5.994  19.456  0.00  0.00    +0.000 C 
ATOM      2  O   UNL     1       1.657   5.647  18.551  0.00  0.00    +0.000 OA
ATOM      3  N   UNL     1       2.485   7.231  20.062  0.00  0.00    +0.000 N 
ATOM      4  H   UNL     1       3.267   7.414  20.677  0.00  0.00    +0.000 HD
ENDROOT
BRANCH   3   5
ATOM      5  C   UNL     1       1.615   8.316  19.809  0.00  0.00    +0.000 A 
ATOM      6  C   UNL     1       1.632   9.041  18.618  0.00  0.00    +0.000 A 
ATOM      7  C   UNL     1       0.760  10.116  18.426  0.00  0.00    +0.000 A 
ATOM      8  C   UNL     1      -0.140  10.479  19.424  0.00  0.00    +0.000 A 
ATOM      9  C   UNL     1      -0.147   9.775  20.630  0.00  0.00    +0.000 A 
ATOM     10  C   UNL     1       0.696   8.670  20.804  0.00  0.00    +0.000 A 
BRANCH   8  11
ATOM     11  O   UNL     1      -0.910  11.584  19.147  0.00  0.00    +0.000 OA
BRANCH  11  12
ATOM     12  C   UNL     1      -2.242  11.450  18.840  0.00  0.00    +0.000 A 
ATOM     13  C   UNL     1      -3.109  12.293  19.542  0.00  0.00    +0.000 A 
ATOM     14  C   UNL     1      -4.485  12.240  19.308  0.00  0.00    +0.000 A 
ATOM     15  C   UNL     1      -4.991  11.341  18.372  0.00  0.00    +0.000 A 
ATOM     16 CL   UNL     1      -6.686  11.239  18.110  0.00  0.00    +0.000 Cl
ATOM     17  C   UNL     1      -4.128  10.522  17.640  0.00  0.00    +0.000 A 
ATOM     18  C   UNL     1      -2.751  10.600  17.855  0.00  0.00    +0.000 A 
ENDBRANCH  11  12
ENDBRANCH   8  11
ENDBRANCH   3   5
BRANCH   1  19
ATOM     19  C   UNL     1       3.374   4.963  20.012  0.00  0.00    +0.000 C 
BRANCH  19  20
ATOM     20  C   UNL     1       4.228   4.316  18.904  0.00  0.00    +0.000 C 
BRANCH  20  21
ATOM     21  C   UNL     1       5.415   5.221  18.572  0.00  0.00    +0.000 A 
ATOM     22  C   UNL     1       5.321   6.116  17.492  0.00  0.00    +0.000 A 
ATOM     23  C   UNL     1       6.398   6.934  17.145  0.00  0.00    +0.000 A 
ATOM     24  C   UNL     1       7.585   6.872  17.870  0.00  0.00    +0.000 A 
ATOM     25  C   UNL     1       7.688   6.010  18.955  0.00  0.00    +0.000 A 
ATOM     26  C   UNL     1       6.609   5.200  19.312  0.00  0.00    +0.000 A 
ENDBRANCH  20  21
BRANCH  20  27
ATOM     27  C   UNL     1       4.663   2.854  19.170  0.00  0.00    +0.000 C 
BRANCH  27  29
ATOM     28  O   UNL     1       2.664   2.039  18.108  0.00  0.00    +0.000 OA
ATOM     29  C   UNL     1       3.781   1.801  18.542  0.00  0.00    +0.000 C 
BRANCH  29  30
ATOM     30  O   UNL     1       4.339   0.578  18.470  0.00  0.00    +0.000 OA
ATOM     31  H   UNL     1       3.787  -0.162  18.827  0.00  0.00    +0.000 HD
ENDBRANCH  29  30
ENDBRANCH  27  29
ENDBRANCH  20  27
ENDBRANCH  19  20
ENDBRANCH   1  19
TORSDOF 9
ENDMDL
MODEL 3
REMARK VINA RESULT:      -8.3      1.881      3.476
REMARK  Name = 
REMARK  9 active torsions:
REMARK  status: ('A' for Active; 'I' for Inactive)
REMARK    1  A    between atoms: C_2  and  O_3
REMARK    2  A    between atoms: C_2  and  C_4
REMARK    3  A    between atoms: C_4  and  C_5
REMARK    4  A    between atoms: C_5  and  C_6
REMARK    5  A    between atoms: C_5  and  C_24
REMARK    6  A    between atoms: C_6  and  C_7
REMARK    7  A    between atoms: N_9  and  C_10
REMARK    8  A    between atoms: C_13  and  O_14
REMARK    9  A    between atoms: O_14  and  C_15
REMARK                            x       y       z     vdW  Elec       q    Type
REMARK                         _______ _______ _______ _____ _____    ______ ____
ROOT
ATOM      1  C   UNL     1       4.555   6.226  18.455  0.00  0.00    +0.000 C 
ATOM      2  O   UNL     1       5.104   6.982  17.649  0.00  0.00    +0.000 OA
ATOM      3  N   UNL     1       3.383   6.454  19.146  0.00  0.00    +0.000 N 
ATOM      4  H   UNL     1       3.142   5.814  19.890  0.00  0.00    +0.000 HD
ENDROOT
BRANCH   3   5
ATOM      5  C   UNL     1       2.541   7.578  18.986  0.00  0.00    +0.000 A 
ATOM      6  C   UNL     1       2.423   8.274  17.782  0.00  0.00    +0.000 A 
ATOM      7  C   UNL     1       1.587   9.389  17.684  0.00  0.00    +0.000 A 
ATOM      8  C   UNL     1       0.858   9.822  18.787  0.00  0.00    +0.000 A 
ATOM      9  C   UNL     1       0.988   9.147  20.003  0.00  0.00    +0.000 A 
ATOM     10  C   UNL     1       1.792   8.003  20.090  0.00  0.00    +0.000 A 
BRANCH   8  11
ATOM     11  O   UNL     1       0.111  10.960  18.589  0.00  0.00    +0.000 OA
BRANCH  11  12
ATOM     12  C   UNL     1      -1.242  10.880  18.370  0.00  0.00    +0.000 A 
ATOM     13  C   UNL     1      -2.014  11.857  19.006  0.00  0.00    +0.000 A 
ATOM     14  C   UNL     1      -3.401  11.868  18.852  0.00  0.00    +0.000 A 
ATOM     15  C   UNL     1      -4.016  10.901  18.061  0.00  0.00    +0.000 A 
ATOM     16 CL   UNL     1      -5.726  10.882  17.900  0.00  0.00    +0.000 Cl
ATOM     17  C   UNL     1      -3.249   9.944  17.392  0.00  0.00    +0.000 A 
ATOM     18  C   UNL     1      -1.860   9.955  17.525  0.00  0.00    +0.000 A 
ENDBRANCH  11  12
ENDBRANCH   8  11
ENDBRANCH   3   5
BRANCH   1  19
ATOM     19  C   UNL     1       5.189   4.879  18.708  0.00  0.00    +0.000 C 
BRANCH  19  20
ATOM     20  C   UNL     1       4.445   3.748  17.969  0.00  0.00    +0.000 C 
BRANCH  20  21
ATOM     21  C   UNL     1       3.199   3.347  18.760  0.00  0.00    +0.000 A 
ATOM     22  C   UNL     1       3.314   3.064  20.132  0.00  0.00    +0.000 A 
ATOM     23  C   UNL     1       2.201   2.666  20.876  0.00  0.00    +0.000 A 
ATOM     24  C   UNL     1       0.958   2.543  20.263  0.00  0.00    +0.000 A 
ATOM     25  C   UNL     1       0.821   2.840  18.912  0.00  0.00    +0.000 A 
ATOM     26  C   UNL     1       1.929   3.250  18.169  0.00  0.00    +0.000 A 
ENDBRANCH  20  21
BRANCH  20  27
ATOM     27  C   UNL     1       4.128   4.025  16.479  0.00  0.00    +0.000 C 
BRANCH  27  29
ATOM     28  O   UNL     1       5.547   5.080  14.849  0.00  0.00    +0.000 OA
ATOM     29  C   UNL     1       5.335   4.123  15.576  0.00  0.00    +0.000 C 
BRANCH  29  30
ATOM     30  O   UNL     1       6.179   3.077  15.660  0.00  0.00    +0.000 OA
ATOM     31  H   UNL     1       7.011   3.244  16.167  0.00  0.00    +0.000 HD
ENDBRANCH  29  30
ENDBRANCH  27  29
ENDBRANCH  20  27
ENDBRANCH  19  20
ENDBRANCH   1  19
TORSDOF 9
ENDMDL
MODEL 4
REMARK VINA RESULT:      -8.1      2.213      3.387
REMARK  Name = 
REMARK  9 active torsions:
REMARK  status: ('A' for Active; 'I' for Inactive)
REMARK    1  A    between atoms: C_2  and  O_3
REMARK    2  A    between atoms: C_2  and  C_4
REMARK    3  A    between atoms: C_4  and  C_5
REMARK    4  A    between atoms: C_5  and  C_6
REMARK    5  A    between atoms: C_5  and  C_24
REMARK    6  A    between atoms: C_6  and  C_7
REMARK    7  A    between atoms: N_9  and  C_10
REMARK    8  A    between atoms: C_13  and  O_14
REMARK    9  A    between atoms: O_14  and  C_15
REMARK                            x       y       z     vdW  Elec       q    Type
REMARK                         _______ _______ _______ _____ _____    ______ ____
ROOT
ATOM      1  C   UNL     1       2.598   6.843  19.126  0.00  0.00    +0.000 C 
ATOM      2  O   UNL     1       2.379   6.953  17.917  0.00  0.00    +0.000 OA
ATOM      3  N   UNL     1       2.160   7.679  20.131  0.00  0.00    +0.000 N 
ATOM      4  H   UNL     1       2.552   7.552  21.054  0.00  0.00    +0.000 HD
ENDROOT
BRANCH   3   5
ATOM      5  C   UNL     1       1.293   8.782  19.962  0.00  0.00    +0.000 A 
ATOM      6  C   UNL     1       1.362   9.642  18.865  0.00  0.00    +0.000 A 
ATOM      7  C   UNL     1       0.490  10.728  18.756  0.00  0.00    +0.000 A 
ATOM      8  C   UNL     1      -0.463  10.968  19.742  0.00  0.00    +0.000 A 
ATOM      9  C   UNL     1      -0.523  10.128  20.856  0.00  0.00    +0.000 A 
ATOM     10  C   UNL     1       0.321   9.014  20.943  0.00  0.00    +0.000 A 
BRANCH   8  11
ATOM     11  O   UNL     1      -1.230  12.094  19.557  0.00  0.00    +0.000 OA
BRANCH  11  12
ATOM     12  C   UNL     1      -2.544  11.991  19.173  0.00  0.00    +0.000 A 
ATOM     13  C   UNL     1      -3.473  12.566  20.045  0.00  0.00    +0.000 A 
ATOM     14  C   UNL     1      -4.837  12.518  19.752  0.00  0.00    +0.000 A 
ATOM     15  C   UNL     1      -5.271  11.893  18.585  0.00  0.00    +0.000 A 
ATOM     16 CL   UNL     1      -6.950  11.792  18.237  0.00  0.00    +0.000 Cl
ATOM     17  C   UNL     1      -4.346  11.349  17.690  0.00  0.00    +0.000 A 
ATOM     18  C   UNL     1      -2.982  11.427  17.972  0.00  0.00    +0.000 A 
ENDBRANCH  11  12
ENDBRANCH   8  11
ENDBRANCH   3   5
BRANCH   1  19
ATOM     19  C   UNL     1       3.400   5.652  19.595  0.00  0.00    +0.000 C 
BRANCH  19  20
ATOM     20  C   UNL     1       3.475   4.552  18.517  0.00  0.00    +0.000 C 
BRANCH  20  21
ATOM     21  C   UNL     1       4.846   4.585  17.840  0.00  0.00    +0.000 A 
ATOM     22  C   UNL     1       4.938   4.361  16.455  0.00  0.00    +0.000 A 
ATOM     23  C   UNL     1       6.178   4.355  15.813  0.00  0.00    +0.000 A 
ATOM     24  C   UNL     1       7.344   4.571  16.541  0.00  0.00    +0.000 A 
ATOM     25  C   UNL     1       7.270   4.816  17.907  0.00  0.00    +0.000 A 
ATOM     26  C   UNL     1       6.032   4.835  18.550  0.00  0.00    +0.000 A 
ENDBRANCH  20  21
BRANCH  20  27
ATOM     27  C   UNL     1       3.091   3.130  18.993  0.00  0.00    +0.000 C 
BRANCH  27  29
ATOM     28  O   UNL     1       0.954   3.347  17.911  0.00  0.00    +0.000 OA
ATOM     29  C   UNL     1       1.735   2.647  18.536  0.00  0.00    +0.000 C 
BRANCH  29  30
ATOM     30  O   UNL     1       1.466   1.365  18.847  0.00  0.00    +0.000 OA
ATOM     31  H   UNL     1       0.608   1.015  18.499  0.00  0.00    +0.000 HD
ENDBRANCH  29  30
ENDBRANCH  27  29
ENDBRANCH  20  27
ENDBRANCH  19  20
ENDBRANCH   1  19
TORSDOF 9
ENDMDL
MODEL 5
REMARK VINA RESULT:      -8.0      2.975      4.718
REMARK  Name = 
REMARK  9 active torsions:
REMARK  status: ('A' for Active; 'I' for Inactive)
REMARK    1  A    between atoms: C_2  and  O_3
REMARK    2  A    between atoms: C_2  and  C_4
REMARK    3  A    between atoms: C_4  and  C_5
REMARK    4  A    between atoms: C_5  and  C_6
REMARK    5  A    between atoms: C_5  and  C_24
REMARK    6  A    between atoms: C_6  and  C_7
REMARK    7  A    between atoms: N_9  and  C_10
REMARK    8  A    between atoms: C_13  and  O_14
REMARK    9  A    between atoms: O_14  and  C_15
REMARK                            x       y       z     vdW  Elec       q    Type
REMARK                         _______ _______ _______ _____ _____    ______ ____
ROOT
ATOM      1  C   UNL     1       2.264   8.093  18.288  0.00  0.00    +0.000 C 
ATOM      2  O   UNL     1       2.255   8.950  17.401  0.00  0.00    +0.000 OA
ATOM      3  N   UNL     1       1.771   8.216  19.570  0.00  0.00    +0.000 N 
ATOM      4  H   UNL     1       1.993   7.485  20.233  0.00  0.00    +0.000 HD
ENDROOT
BRANCH   3   5
ATOM      5  C   UNL     1       1.077   9.338  20.079  0.00  0.00    +0.000 A 
ATOM      6  C   UNL     1       0.994  10.553  19.399  0.00  0.00    +0.000 A 
ATOM      7  C   UNL     1       0.308  11.635  19.956  0.00  0.00    +0.000 A 
ATOM      8  C   UNL     1      -0.304  11.516  21.200  0.00  0.00    +0.000 A 
ATOM      9  C   UNL     1      -0.206  10.311  21.900  0.00  0.00    +0.000 A 
ATOM     10  C   UNL     1       0.444   9.213  21.322  0.00  0.00    +0.000 A 
BRANCH   8  11
ATOM     11  O   UNL     1      -0.904  12.659  21.673  0.00  0.00    +0.000 OA
BRANCH  11  12
ATOM     12  C   UNL     1      -2.257  12.697  21.904  0.00  0.00    +0.000 A 
ATOM     13  C   UNL     1      -2.638  12.706  23.249  0.00  0.00    +0.000 A 
ATOM     14  C   UNL     1      -3.990  12.743  23.596  0.00  0.00    +0.000 A 
ATOM     15  C   UNL     1      -4.959  12.770  22.597  0.00  0.00    +0.000 A 
ATOM     16 CL   UNL     1      -6.626  12.772  23.016  0.00  0.00    +0.000 Cl
ATOM     17  C   UNL     1      -4.586  12.799  21.251  0.00  0.00    +0.000 A 
ATOM     18  C   UNL     1      -3.233  12.793  20.908  0.00  0.00    +0.000 A 
ENDBRANCH  11  12
ENDBRANCH   8  11
ENDBRANCH   3   5
BRANCH   1  19
ATOM     19  C   UNL     1       2.835   6.736  17.955  0.00  0.00    +0.000 C 
BRANCH  19  20
ATOM     20  C   UNL     1       3.271   5.971  19.221  0.00  0.00    +0.000 C 
BRANCH  20  21
ATOM     21  C   UNL     1       2.352   4.768  19.440  0.00  0.00    +0.000 A 
ATOM     22  C   UNL     1       2.147   4.284  20.743  0.00  0.00    +0.000 A 
ATOM     23  C   UNL     1       1.338   3.169  20.973  0.00  0.00    +0.000 A 
ATOM     24  C   UNL     1       0.722   2.520  19.907  0.00  0.00    +0.000 A 
ATOM     25  C   UNL     1       0.895   2.999  18.613  0.00  0.00    +0.000 A 
ATOM     26  C   UNL     1       1.693   4.120  18.382  0.00  0.00    +0.000 A 
ENDBRANCH  20  21
BRANCH  20  27
ATOM     27  C   UNL     1       4.768   5.582  19.278  0.00  0.00    +0.000 C 
BRANCH  27  29
ATOM     28  O   UNL     1       5.145   4.219  17.333  0.00  0.00    +0.000 OA
ATOM     29  C   UNL     1       5.127   4.308  18.551  0.00  0.00    +0.000 C 
BRANCH  29  30
ATOM     30  O   UNL     1       5.456   3.281  19.356  0.00  0.00    +0.000 OA
ATOM     31  H   UNL     1       6.427   3.142  19.490  0.00  0.00    +0.000 HD
ENDBRANCH  29  30
ENDBRANCH  27  29
ENDBRANCH  20  27
ENDBRANCH  19  20
ENDBRANCH   1  19
TORSDOF 9
ENDMDL
MODEL 6
REMARK VINA RESULT:      -8.0      2.955      3.697
REMARK  Name = 
REMARK  9 active torsions:
REMARK  status: ('A' for Active; 'I' for Inactive)
REMARK    1  A    between atoms: C_2  and  O_3
REMARK    2  A    between atoms: C_2  and  C_4
REMARK    3  A    between atoms: C_4  and  C_5
REMARK    4  A    between atoms: C_5  and  C_6
REMARK    5  A    between atoms: C_5  and  C_24
REMARK    6  A    between atoms: C_6  and  C_7
REMARK    7  A    between atoms: N_9  and  C_10
REMARK    8  A    between atoms: C_13  and  O_14
REMARK    9  A    between atoms: O_14  and  C_15
REMARK                            x       y       z     vdW  Elec       q    Type
REMARK                         _______ _______ _______ _____ _____    ______ ____
ROOT
ATOM      1  C   UNL     1       2.342   5.914  20.088  0.00  0.00    +0.000 C 
ATOM      2  O   UNL     1       1.312   5.370  20.493  0.00  0.00    +0.000 OA
ATOM      3  N   UNL     1       2.514   7.247  19.782  0.00  0.00    +0.000 N 
ATOM      4  H   UNL     1       3.366   7.517  19.310  0.00  0.00    +0.000 HD
ENDROOT
BRANCH   3   5
ATOM      5  C   UNL     1       1.548   8.263  19.964  0.00  0.00    +0.000 A 
ATOM      6  C   UNL     1       0.832   8.428  21.150  0.00  0.00    +0.000 A 
ATOM      7  C   UNL     1      -0.123   9.440  21.271  0.00  0.00    +0.000 A 
ATOM      8  C   UNL     1      -0.376  10.300  20.206  0.00  0.00    +0.000 A 
ATOM      9  C   UNL     1       0.317  10.128  19.006  0.00  0.00    +0.000 A 
ATOM     10  C   UNL     1       1.307   9.142  18.901  0.00  0.00    +0.000 A 
BRANCH   8  11
ATOM     11  O   UNL     1      -1.373  11.222  20.419  0.00  0.00    +0.000 OA
BRANCH  11  12
ATOM     12  C   UNL     1      -1.238  12.191  21.383  0.00  0.00    +0.000 A 
ATOM     13  C   UNL     1      -2.169  12.138  22.425  0.00  0.00    +0.000 A 
ATOM     14  C   UNL     1      -2.123  13.077  23.457  0.00  0.00    +0.000 A 
ATOM     15  C   UNL     1      -1.145  14.068  23.446  0.00  0.00    +0.000 A 
ATOM     16 CL   UNL     1      -1.108  15.252  24.690  0.00  0.00    +0.000 Cl
ATOM     17  C   UNL     1      -0.188  14.105  22.429  0.00  0.00    +0.000 A 
ATOM     18  C   UNL     1      -0.219  13.146  21.415  0.00  0.00    +0.000 A 
ENDBRANCH  11  12
ENDBRANCH   8  11
ENDBRANCH   3   5
BRANCH   1  19
ATOM     19  C   UNL     1       3.580   5.062  19.935  0.00  0.00    +0.000 C 
BRANCH  19  20
ATOM     20  C   UNL     1       4.052   4.996  18.470  0.00  0.00    +0.000 C 
BRANCH  20  21
ATOM     21  C   UNL     1       5.409   5.689  18.332  0.00  0.00    +0.000 A 
ATOM     22  C   UNL     1       6.463   5.320  19.185  0.00  0.00    +0.000 A 
ATOM     23  C   UNL     1       7.704   5.954  19.105  0.00  0.00    +0.000 A 
ATOM     24  C   UNL     1       7.913   6.966  18.172  0.00  0.00    +0.000 A 
ATOM     25  C   UNL     1       6.889   7.328  17.304  0.00  0.00    +0.000 A 
ATOM     26  C   UNL     1       5.651   6.688  17.374  0.00  0.00    +0.000 A 
ENDBRANCH  20  21
BRANCH  20  27
ATOM     27  C   UNL     1       4.050   3.583  17.835  0.00  0.00    +0.000 C 
BRANCH  27  29
ATOM     28  O   UNL     1       2.473   1.792  18.133  0.00  0.00    +0.000 OA
ATOM     29  C   UNL     1       2.692   2.927  17.741  0.00  0.00    +0.000 C 
BRANCH  29  30
ATOM     30  O   UNL     1       1.730   3.709  17.217  0.00  0.00    +0.000 OA
ATOM     31  H   UNL     1       1.829   3.914  16.254  0.00  0.00    +0.000 HD
ENDBRANCH  29  30
ENDBRANCH  27  29
ENDBRANCH  20  27
ENDBRANCH  19  20
ENDBRANCH   1  19
TORSDOF 9
ENDMDL
MODEL 7
REMARK VINA RESULT:      -8.0      2.709      3.629
REMARK  Name = 
REMARK  9 active torsions:
REMARK  status: ('A' for Active; 'I' for Inactive)
REMARK    1  A    between atoms: C_2  and  O_3
REMARK    2  A    between atoms: C_2  and  C_4
REMARK    3  A    between atoms: C_4  and  C_5
REMARK    4  A    between atoms: C_5  and  C_6
REMARK    5  A    between atoms: C_5  and  C_24
REMARK    6  A    between atoms: C_6  and  C_7
REMARK    7  A    between atoms: N_9  and  C_10
REMARK    8  A    between atoms: C_13  and  O_14
REMARK    9  A    between atoms: O_14  and  C_15
REMARK                            x       y       z     vdW  Elec       q    Type
REMARK                         _______ _______ _______ _____ _____    ______ ____
ROOT
ATOM      1  C   UNL     1       2.222   6.604  19.866  0.00  0.00    +0.000 C 
ATOM      2  O   UNL     1       1.400   6.253  20.715  0.00  0.00    +0.000 OA
ATOM      3  N   UNL     1       2.243   7.794  19.169  0.00  0.00    +0.000 N 
ATOM      4  H   UNL     1       2.884   7.874  18.391  0.00  0.00    +0.000 HD
ENDROOT
BRANCH   3   5
ATOM      5  C   UNL     1       1.360   8.880  19.371  0.00  0.00    +0.000 A 
ATOM      6  C   UNL     1       0.729   9.130  20.590  0.00  0.00    +0.000 A 
ATOM      7  C   UNL     1      -0.147  10.209  20.730  0.00  0.00    +0.000 A 
ATOM      8  C   UNL     1      -0.403  11.052  19.653  0.00  0.00    +0.000 A 
ATOM      9  C   UNL     1       0.205  10.796  18.422  0.00  0.00    +0.000 A 
ATOM     10  C   UNL     1       1.117   9.741  18.294  0.00  0.00    +0.000 A 
BRANCH   8  11
ATOM     11  O   UNL     1      -1.321  12.048  19.891  0.00  0.00    +0.000 OA
BRANCH  11  12
ATOM     12  C   UNL     1      -2.586  11.976  19.359  0.00  0.00    +0.000 A 
ATOM     13  C   UNL     1      -3.594  12.575  20.121  0.00  0.00    +0.000 A 
ATOM     14  C   UNL     1      -4.916  12.560  19.674  0.00  0.00    +0.000 A 
ATOM     15  C   UNL     1      -5.229  11.944  18.465  0.00  0.00    +0.000 A 
ATOM     16 CL   UNL     1      -6.860  11.883  17.928  0.00  0.00    +0.000 Cl
ATOM     17  C   UNL     1      -4.222  11.376  17.680  0.00  0.00    +0.000 A 
ATOM     18  C   UNL     1      -2.897  11.420  18.116  0.00  0.00    +0.000 A 
ENDBRANCH  11  12
ENDBRANCH   8  11
ENDBRANCH   3   5
BRANCH   1  19
ATOM     19  C   UNL     1       3.366   5.668  19.557  0.00  0.00    +0.000 C 
BRANCH  19  20
ATOM     20  C   UNL     1       3.018   4.695  18.413  0.00  0.00    +0.000 C 
BRANCH  20  21
ATOM     21  C   UNL     1       4.091   4.769  17.327  0.00  0.00    +0.000 A 
ATOM     22  C   UNL     1       4.492   6.024  16.837  0.00  0.00    +0.000 A 
ATOM     23  C   UNL     1       5.449   6.124  15.824  0.00  0.00    +0.000 A 
ATOM     24  C   UNL     1       6.020   4.975  15.285  0.00  0.00    +0.000 A 
ATOM     25  C   UNL     1       5.652   3.726  15.774  0.00  0.00    +0.000 A 
ATOM     26  C   UNL     1       4.705   3.624  16.794  0.00  0.00    +0.000 A 
ENDBRANCH  20  21
BRANCH  20  27
ATOM     27  C   UNL     1       2.724   3.238  18.847  0.00  0.00    +0.000 C 
BRANCH  27  29
ATOM     28  O   UNL     1       0.548   2.332  18.367  0.00  0.00    +0.000 OA
ATOM     29  C   UNL     1       1.272   2.939  19.140  0.00  0.00    +0.000 C 
BRANCH  29  30
ATOM     30  O   UNL     1       0.847   3.369  20.342  0.00  0.00    +0.000 OA
ATOM     31  H   UNL     1       0.717   4.347  20.422  0.00  0.00    +0.000 HD
ENDBRANCH  29  30
ENDBRANCH  27  29
ENDBRANCH  20  27
ENDBRANCH  19  20
ENDBRANCH   1  19
TORSDOF 9
ENDMDL
MODEL 8
REMARK VINA RESULT:      -8.0      2.644      3.615
REMARK  Name = 
REMARK  9 active torsions:
REMARK  status: ('A' for Active; 'I' for Inactive)
REMARK    1  A    between atoms: C_2  and  O_3
REMARK    2  A    between atoms: C_2  and  C_4
REMARK    3  A    between atoms: C_4  and  C_5
REMARK    4  A    between atoms: C_5  and  C_6
REMARK    5  A    between atoms: C_5  and  C_24
REMARK    6  A    between atoms: C_6  and  C_7
REMARK    7  A    between atoms: N_9  and  C_10
REMARK    8  A    between atoms: C_13  and  O_14
REMARK    9  A    between atoms: O_14  and  C_15
REMARK                            x       y       z     vdW  Elec       q    Type
REMARK                         _______ _______ _______ _____ _____    ______ ____
ROOT
ATOM      1  C   UNL     1       2.831   6.521  19.185  0.00  0.00    +0.000 C 
ATOM      2  O   UNL     1       3.216   7.256  18.273  0.00  0.00    +0.000 OA
ATOM      3  N   UNL     1       2.082   6.882  20.285  0.00  0.00    +0.000 N 
ATOM      4  H   UNL     1       1.980   6.204  21.029  0.00  0.00    +0.000 HD
ENDROOT
BRANCH   3   5
ATOM      5  C   UNL     1       1.537   8.164  20.523  0.00  0.00    +0.000 A 
ATOM      6  C   UNL     1       1.207   9.052  19.499  0.00  0.00    +0.000 A 
ATOM      7  C   UNL     1       0.686  10.314  19.791  0.00  0.00    +0.000 A 
ATOM      8  C   UNL     1       0.488  10.706  21.112  0.00  0.00    +0.000 A 
ATOM      9  C   UNL     1       0.838   9.834  22.146  0.00  0.00    +0.000 A 
ATOM     10  C   UNL     1       1.319   8.551  21.851  0.00  0.00    +0.000 A 
BRANCH   8  11
ATOM     11  O   UNL     1       0.021  11.988  21.282  0.00  0.00    +0.000 OA
BRANCH  11  12
ATOM     12  C   UNL     1      -1.312  12.224  21.509  0.00  0.00    +0.000 A 
ATOM     13  C   UNL     1      -1.716  12.165  22.845  0.00  0.00    +0.000 A 
ATOM     14  C   UNL     1      -3.051  12.388  23.188  0.00  0.00    +0.000 A 
ATOM     15  C   UNL     1      -3.981  12.671  22.191  0.00  0.00    +0.000 A 
ATOM     16 CL   UNL     1      -5.634  12.905  22.600  0.00  0.00    +0.000 Cl
ATOM     17  C   UNL     1      -3.579  12.768  20.857  0.00  0.00    +0.000 A 
ATOM     18  C   UNL     1      -2.238  12.574  20.522  0.00  0.00    +0.000 A 
ENDBRANCH  11  12
ENDBRANCH   8  11
ENDBRANCH   3   5
BRANCH   1  19
ATOM     19  C   UNL     1       3.168   5.051  19.101  0.00  0.00    +0.000 C 
BRANCH  19  20
ATOM     20  C   UNL     1       3.222   4.559  17.641  0.00  0.00    +0.000 C 
BRANCH  20  21
ATOM     21  C   UNL     1       4.673   4.520  17.161  0.00  0.00    +0.000 A 
ATOM     22  C   UNL     1       5.713   4.652  18.097  0.00  0.00    +0.000 A 
ATOM     23  C   UNL     1       7.049   4.651  17.687  0.00  0.00    +0.000 A 
ATOM     24  C   UNL     1       7.366   4.519  16.338  0.00  0.00    +0.000 A 
ATOM     25  C   UNL     1       6.351   4.366  15.401  0.00  0.00    +0.000 A 
ATOM     26  C   UNL     1       5.016   4.354  15.809  0.00  0.00    +0.000 A 
ENDBRANCH  20  21
BRANCH  20  27
ATOM     27  C   UNL     1       2.477   3.230  17.361  0.00  0.00    +0.000 C 
BRANCH  27  29
ATOM     28  O   UNL     1       2.031   1.835  19.269  0.00  0.00    +0.000 OA
ATOM     29  C   UNL     1       2.770   2.116  18.338  0.00  0.00    +0.000 C 
BRANCH  29  30
ATOM     30  O   UNL     1       3.900   1.432  18.081  0.00  0.00    +0.000 OA
ATOM     31  H   UNL     1       3.896   0.484  18.364  0.00  0.00    +0.000 HD
ENDBRANCH  29  30
ENDBRANCH  27  29
ENDBRANCH  20  27
ENDBRANCH  19  20
ENDBRANCH   1  19
TORSDOF 9
ENDMDL
MODEL 9
REMARK VINA RESULT:      -8.0      2.187      2.935
REMARK  Name = 
REMARK  9 active torsions:
REMARK  status: ('A' for Active; 'I' for Inactive)
REMARK    1  A    between atoms: C_2  and  O_3
REMARK    2  A    between atoms: C_2  and  C_4
REMARK    3  A    between atoms: C_4  and  C_5
REMARK    4  A    between atoms: C_5  and  C_6
REMARK    5  A    between atoms: C_5  and  C_24
REMARK    6  A    between atoms: C_6  and  C_7
REMARK    7  A    between atoms: N_9  and  C_10
REMARK    8  A    between atoms: C_13  and  O_14
REMARK    9  A    between atoms: O_14  and  C_15
REMARK                            x       y       z     vdW  Elec       q    Type
REMARK                         _______ _______ _______ _____ _____    ______ ____
ROOT
ATOM      1  C   UNL     1       2.388   6.272  19.328  0.00  0.00    +0.000 C 
ATOM      2  O   UNL     1       1.905   6.072  18.211  0.00  0.00    +0.000 OA
ATOM      3  N   UNL     1       2.266   7.410  20.097  0.00  0.00    +0.000 N 
ATOM      4  H   UNL     1       2.849   7.488  20.919  0.00  0.00    +0.000 HD
ENDROOT
BRANCH   3   5
ATOM      5  C   UNL     1       1.481   8.540  19.773  0.00  0.00    +0.000 A 
ATOM      6  C   UNL     1       1.668   9.287  18.610  0.00  0.00    +0.000 A 
ATOM      7  C   UNL     1       0.873  10.405  18.347  0.00  0.00    +0.000 A 
ATOM      8  C   UNL     1      -0.120  10.790  19.243  0.00  0.00    +0.000 A 
ATOM      9  C   UNL     1      -0.299  10.063  20.422  0.00  0.00    +0.000 A 
ATOM     10  C   UNL     1       0.469   8.916  20.664  0.00  0.00    +0.000 A 
BRANCH   8  11
ATOM     11  O   UNL     1      -0.804  11.935  18.907  0.00  0.00    +0.000 OA
BRANCH  11  12
ATOM     12  C   UNL     1      -2.148  12.048  19.162  0.00  0.00    +0.000 A 
ATOM     13  C   UNL     1      -2.484  12.728  20.337  0.00  0.00    +0.000 A 
ATOM     14  C   UNL     1      -3.823  12.899  20.692  0.00  0.00    +0.000 A 
ATOM     15  C   UNL     1      -4.826  12.390  19.871  0.00  0.00    +0.000 A 
ATOM     16 CL   UNL     1      -6.475  12.560  20.323  0.00  0.00    +0.000 Cl
ATOM     17  C   UNL     1      -4.500  11.743  18.677  0.00  0.00    +0.000 A 
ATOM     18  C   UNL     1      -3.161  11.600  18.310  0.00  0.00    +0.000 A 
ENDBRANCH  11  12
ENDBRANCH   8  11
ENDBRANCH   3   5
BRANCH   1  19
ATOM     19  C   UNL     1       3.171   5.152  19.971  0.00  0.00    +0.000 C 
BRANCH  19  20
ATOM     20  C   UNL     1       3.917   4.301  18.924  0.00  0.00    +0.000 C 
BRANCH  20  21
ATOM     21  C   UNL     1       5.168   5.042  18.451  0.00  0.00    +0.000 A 
ATOM     22  C   UNL     1       6.271   5.157  19.315  0.00  0.00    +0.000 A 
ATOM     23  C   UNL     1       7.417   5.854  18.923  0.00  0.00    +0.000 A 
ATOM     24  C   UNL     1       7.479   6.446  17.665  0.00  0.00    +0.000 A 
ATOM     25  C   UNL     1       6.407   6.323  16.790  0.00  0.00    +0.000 A 
ATOM     26  C   UNL     1       5.266   5.617  17.173  0.00  0.00    +0.000 A 
ENDBRANCH  20  21
BRANCH  20  27
ATOM     27  C   UNL     1       4.227   2.845  19.352  0.00  0.00    +0.000 C 
BRANCH  27  29
ATOM     28  O   UNL     1       2.673   1.947  17.751  0.00  0.00    +0.000 OA
ATOM     29  C   UNL     1       3.665   1.778  18.442  0.00  0.00    +0.000 C 
BRANCH  29  30
ATOM     30  O   UNL     1       4.366   0.629  18.431  0.00  0.00    +0.000 OA
ATOM     31  H   UNL     1       4.324   0.115  17.587  0.00  0.00    +0.000 HD
ENDBRANCH  29  30
ENDBRANCH  27  29
ENDBRANCH  20  27
ENDBRANCH  19  20
ENDBRANCH   1  19
TORSDOF 9
ENDMDL
