MODEL 1
REMARK VINA RESULT:      -6.2      0.000      0.000
REMARK  Name = 
REMARK  11 active torsions:
REMARK  status: ('A' for Active; 'I' for Inactive)
REMARK    1  A    between atoms: C_1  and  C_2
REMARK    2  A    between atoms: C_2  and  C_3
REMARK    3  A    between atoms: C_3  and  S_4
REMARK    4  A    between atoms: S_4  and  C_7
REMARK    5  A    between atoms: C_8  and  S_9
REMARK    6  A    between atoms: S_9  and  C_12
REMARK    7  A    between atoms: C_12  and  C_13
REMARK    8  A    between atoms: C_13  and  C_14
REMARK    9  A    between atoms: C_21  and  C_22
REMARK   10  A    between atoms: C_22  and  O_24
REMARK   11  A    between atoms: O_24  and  C_25
REMARK                            x       y       z     vdW  Elec       q    Type
REMARK                         _______ _______ _______ _____ _____    ______ ____
ROOT
ATOM      1  C   UNL     1       3.894   5.150  18.844  0.00  0.00    +0.000 A 
ATOM      2  C   UNL     1       4.168   6.166  17.870  0.00  0.00    +0.000 A 
ATOM      3  C   UNL     1       3.297   7.216  18.131  0.00  0.00    +0.000 A 
ATOM      4  C   UNL     1       3.066   8.501  17.535  0.00  0.00    +0.000 A 
ATOM      5  C   UNL     1       2.110   9.317  18.010  0.00  0.00    +0.000 A 
ATOM      6  C   UNL     1       1.287   8.934  19.131  0.00  0.00    +0.000 A 
ATOM      7  C   UNL     1       1.494   7.738  19.704  0.00  0.00    +0.000 A 
ATOM      8  N   UNL     1       2.498   6.877  19.228  0.00  0.00    +0.000 N 
ATOM      9  C   UNL     1       2.861   5.611  19.681  0.00  0.00    +0.000 A 
ENDROOT
BRANCH   1  10
ATOM     10  S   UNL     1       4.671   3.591  19.008  0.00  0.00    +0.000 S 
ATOM     11  O   UNL     1       4.119   2.980  20.194  0.00  0.00    +0.000 OA
ATOM     12  O   UNL     1       6.082   3.899  18.953  0.00  0.00    +0.000 OA
BRANCH  10  13
ATOM     13  C   UNL     1       4.135   2.629  17.607  0.00  0.00    +0.000 C 
BRANCH  13  15
ATOM     14  C   UNL     1       1.758   3.341  17.232  0.00  0.00    +0.000 C 
ATOM     15  C   UNL     1       2.668   2.241  17.749  0.00  0.00    +0.000 C 
ENDBRANCH  13  15
ENDBRANCH  10  13
ENDBRANCH   1  10
BRANCH   2  16
ATOM     16  S   UNL     1       5.407   6.146  16.634  0.00  0.00    +0.000 S 
ATOM     17  O   UNL     1       5.028   7.184  15.696  0.00  0.00    +0.000 OA
ATOM     18  O   UNL     1       6.639   6.271  17.383  0.00  0.00    +0.000 OA
BRANCH  16  19
ATOM     19  C   UNL     1       5.248   4.589  15.766  0.00  0.00    +0.000 C 
BRANCH  19  20
ATOM     20  C   UNL     1       6.511   4.268  14.975  0.00  0.00    +0.000 C 
ATOM     21  C   UNL     1       6.177   3.859  13.550  0.00  0.00    +0.000 C 
ENDBRANCH  19  20
ENDBRANCH  16  19
ENDBRANCH   2  16
BRANCH   9  22
ATOM     22  C   UNL     1       2.250   4.900  20.792  0.00  0.00    +0.000 C 
ATOM     23  O   UNL     1       2.662   4.892  21.943  0.00  0.00    +0.000 OA
BRANCH  22  24
ATOM     24  O   UNL     1       1.085   4.301  20.428  0.00  0.00    +0.000 OA
ATOM     25  C   UNL     1       0.941   2.963  20.913  0.00  0.00    +0.000 C 
ENDBRANCH  22  24
ENDBRANCH   9  22
TORSDOF 8
ENDMDL
MODEL 2
REMARK VINA RESULT:      -5.8      7.816     10.805
REMARK  Name = 
REMARK  11 active torsions:
REMARK  status: ('A' for Active; 'I' for Inactive)
REMARK    1  A    between atoms: C_1  and  C_2
REMARK    2  A    between atoms: C_2  and  C_3
REMARK    3  A    between atoms: C_3  and  S_4
REMARK    4  A    between atoms: S_4  and  C_7
REMARK    5  A    between atoms: C_8  and  S_9
REMARK    6  A    between atoms: S_9  and  C_12
REMARK    7  A    between atoms: C_12  and  C_13
REMARK    8  A    between atoms: C_13  and  C_14
REMARK    9  A    between atoms: C_21  and  C_22
REMARK   10  A    between atoms: C_22  and  O_24
REMARK   11  A    between atoms: O_24  and  C_25
REMARK                            x       y       z     vdW  Elec       q    Type
REMARK                         _______ _______ _______ _____ _____    ______ ____
ROOT
ATOM      1  C   UNL     1      -2.185  12.516  20.171  0.00  0.00    +0.000 A 
ATOM      2  C   UNL     1      -3.584  12.550  19.857  0.00  0.00    +0.000 A 
ATOM      3  C   UNL     1      -3.727  11.969  18.604  0.00  0.00    +0.000 A 
ATOM      4  C   UNL     1      -4.843  11.701  17.742  0.00  0.00    +0.000 A 
ATOM      5  C   UNL     1      -4.662  11.127  16.541  0.00  0.00    +0.000 A 
ATOM      6  C   UNL     1      -3.346  10.757  16.078  0.00  0.00    +0.000 A 
ATOM      7  C   UNL     1      -2.293  10.994  16.873  0.00  0.00    +0.000 A 
ATOM      8  N   UNL     1      -2.465  11.583  18.139  0.00  0.00    +0.000 N 
ATOM      9  C   UNL     1      -1.509  11.908  19.098  0.00  0.00    +0.000 A 
ENDROOT
BRANCH   1  10
ATOM     10  S   UNL     1      -1.401  13.115  21.616  0.00  0.00    +0.000 S 
ATOM     11  O   UNL     1      -2.431  13.243  22.619  0.00  0.00    +0.000 OA
ATOM     12  O   UNL     1      -0.692  14.290  21.164  0.00  0.00    +0.000 OA
BRANCH  10  13
ATOM     13  C   UNL     1      -0.295  11.820  22.143  0.00  0.00    +0.000 C 
BRANCH  13  15
ATOM     14  C   UNL     1      -0.144   9.572  23.248  0.00  0.00    +0.000 C 
ATOM     15  C   UNL     1      -1.059  10.725  22.877  0.00  0.00    +0.000 C 
ENDBRANCH  13  15
ENDBRANCH  10  13
ENDBRANCH   1  10
BRANCH   2  16
ATOM     16  S   UNL     1      -4.886  13.130  20.872  0.00  0.00    +0.000 S 
ATOM     17  O   UNL     1      -4.863  12.281  22.046  0.00  0.00    +0.000 OA
ATOM     18  O   UNL     1      -4.612  14.546  21.005  0.00  0.00    +0.000 OA
BRANCH  16  19
ATOM     19  C   UNL     1      -6.413  12.771  20.010  0.00  0.00    +0.000 C 
BRANCH  19  20
ATOM     20  C   UNL     1      -7.253  11.757  20.779  0.00  0.00    +0.000 C 
ATOM     21  C   UNL     1      -7.225  10.396  20.103  0.00  0.00    +0.000 C 
ENDBRANCH  19  20
ENDBRANCH  16  19
ENDBRANCH   2  16
BRANCH   9  22
ATOM     22  C   UNL     1      -0.077  11.684  18.978  0.00  0.00    +0.000 C 
ATOM     23  O   UNL     1       0.485  10.605  19.091  0.00  0.00    +0.000 OA
BRANCH  22  24
ATOM     24  O   UNL     1       0.583  12.819  18.625  0.00  0.00    +0.000 OA
ATOM     25  C   UNL     1       2.000  12.659  18.517  0.00  0.00    +0.000 C 
ENDBRANCH  22  24
ENDBRANCH   9  22
TORSDOF 8
ENDMDL
MODEL 3
REMARK VINA RESULT:      -5.8      1.307      1.756
REMARK  Name = 
REMARK  11 active torsions:
REMARK  status: ('A' for Active; 'I' for Inactive)
REMARK    1  A    between atoms: C_1  and  C_2
REMARK    2  A    between atoms: C_2  and  C_3
REMARK    3  A    between atoms: C_3  and  S_4
REMARK    4  A    between atoms: S_4  and  C_7
REMARK    5  A    between atoms: C_8  and  S_9
REMARK    6  A    between atoms: S_9  and  C_12
REMARK    7  A    between atoms: C_12  and  C_13
REMARK    8  A    between atoms: C_13  and  C_14
REMARK    9  A    between atoms: C_21  and  C_22
REMARK   10  A    between atoms: C_22  and  O_24
REMARK   11  A    between atoms: O_24  and  C_25
REMARK                            x       y       z     vdW  Elec       q    Type
REMARK                         _______ _______ _______ _____ _____    ______ ____
ROOT
ATOM      1  C   UNL     1       3.890   5.004  18.768  0.00  0.00    +0.000 A 
ATOM      2  C   UNL     1       4.128   5.983  17.748  0.00  0.00    +0.000 A 
ATOM      3  C   UNL     1       3.311   7.069  18.037  0.00  0.00    +0.000 A 
ATOM      4  C   UNL     1       3.080   8.344  17.421  0.00  0.00    +0.000 A 
ATOM      5  C   UNL     1       2.184   9.204  17.935  0.00  0.00    +0.000 A 
ATOM      6  C   UNL     1       1.429   8.878  19.121  0.00  0.00    +0.000 A 
ATOM      7  C   UNL     1       1.637   7.693  19.713  0.00  0.00    +0.000 A 
ATOM      8  N   UNL     1       2.579   6.786  19.196  0.00  0.00    +0.000 N 
ATOM      9  C   UNL     1       2.933   5.522  19.659  0.00  0.00    +0.000 A 
ENDROOT
BRANCH   1  10
ATOM     10  S   UNL     1       4.628   3.425  18.924  0.00  0.00    +0.000 S 
ATOM     11  O   UNL     1       4.197   2.895  20.195  0.00  0.00    +0.000 OA
ATOM     12  O   UNL     1       6.032   3.674  18.692  0.00  0.00    +0.000 OA
BRANCH  10  13
ATOM     13  C   UNL     1       3.900   2.418  17.646  0.00  0.00    +0.000 C 
BRANCH  13  15
ATOM     14  C   UNL     1       1.405   2.403  17.921  0.00  0.00    +0.000 C 
ATOM     15  C   UNL     1       2.698   1.651  18.184  0.00  0.00    +0.000 C 
ENDBRANCH  13  15
ENDBRANCH  10  13
ENDBRANCH   1  10
BRANCH   2  16
ATOM     16  S   UNL     1       5.277   5.889  16.432  0.00  0.00    +0.000 S 
ATOM     17  O   UNL     1       5.052   4.595  15.819  0.00  0.00    +0.000 OA
ATOM     18  O   UNL     1       5.027   7.096  15.671  0.00  0.00    +0.000 OA
BRANCH  16  19
ATOM     19  C   UNL     1       6.906   5.829  17.170  0.00  0.00    +0.000 C 
BRANCH  19  20
ATOM     20  C   UNL     1       7.095   6.958  18.178  0.00  0.00    +0.000 C 
ATOM     21  C   UNL     1       7.841   8.128  17.559  0.00  0.00    +0.000 C 
ENDBRANCH  19  20
ENDBRANCH  16  19
ENDBRANCH   2  16
BRANCH   9  22
ATOM     22  C   UNL     1       2.378   4.862  20.829  0.00  0.00    +0.000 C 
ATOM     23  O   UNL     1       2.771   5.003  21.978  0.00  0.00    +0.000 OA
BRANCH  22  24
ATOM     24  O   UNL     1       1.283   4.118  20.517  0.00  0.00    +0.000 OA
ATOM     25  C   UNL     1       1.125   2.947  21.323  0.00  0.00    +0.000 C 
ENDBRANCH  22  24
ENDBRANCH   9  22
TORSDOF 8
ENDMDL
MODEL 4
REMARK VINA RESULT:      -5.8      7.401     10.512
REMARK  Name = 
REMARK  11 active torsions:
REMARK  status: ('A' for Active; 'I' for Inactive)
REMARK    1  A    between atoms: C_1  and  C_2
REMARK    2  A    between atoms: C_2  and  C_3
REMARK    3  A    between atoms: C_3  and  S_4
REMARK    4  A    between atoms: S_4  and  C_7
REMARK    5  A    between atoms: C_8  and  S_9
REMARK    6  A    between atoms: S_9  and  C_12
REMARK    7  A    between atoms: C_12  and  C_13
REMARK    8  A    between atoms: C_13  and  C_14
REMARK    9  A    between atoms: C_21  and  C_22
REMARK   10  A    between atoms: C_22  and  O_24
REMARK   11  A    between atoms: O_24  and  C_25
REMARK                            x       y       z     vdW  Elec       q    Type
REMARK                         _______ _______ _______ _____ _____    ______ ____
ROOT
ATOM      1  C   UNL     1      -1.933  12.306  20.292  0.00  0.00    +0.000 A 
ATOM      2  C   UNL     1      -3.335  12.460  20.033  0.00  0.00    +0.000 A 
ATOM      3  C   UNL     1      -3.562  11.968  18.754  0.00  0.00    +0.000 A 
ATOM      4  C   UNL     1      -4.722  11.836  17.920  0.00  0.00    +0.000 A 
ATOM      5  C   UNL     1      -4.624  11.324  16.681  0.00  0.00    +0.000 A 
ATOM      6  C   UNL     1      -3.355  10.889  16.150  0.00  0.00    +0.000 A 
ATOM      7  C   UNL     1      -2.261  11.001  16.918  0.00  0.00    +0.000 A 
ATOM      8  N   UNL     1      -2.348  11.522  18.221  0.00  0.00    +0.000 N 
ATOM      9  C   UNL     1      -1.340  11.717  19.161  0.00  0.00    +0.000 A 
ENDROOT
BRANCH   1  10
ATOM     10  S   UNL     1      -1.060  12.757  21.740  0.00  0.00    +0.000 S 
ATOM     11  O   UNL     1      -1.753  13.893  22.300  0.00  0.00    +0.000 OA
ATOM     12  O   UNL     1       0.305  12.903  21.291  0.00  0.00    +0.000 OA
BRANCH  10  13
ATOM     13  C   UNL     1      -1.257  11.395  22.873  0.00  0.00    +0.000 C 
BRANCH  13  15
ATOM     14  C   UNL     1      -0.644   9.005  22.410  0.00  0.00    +0.000 C 
ATOM     15  C   UNL     1      -0.117  10.396  22.717  0.00  0.00    +0.000 C 
ENDBRANCH  13  15
ENDBRANCH  10  13
ENDBRANCH   1  10
BRANCH   2  16
ATOM     16  S   UNL     1      -4.557  13.069  21.128  0.00  0.00    +0.000 S 
ATOM     17  O   UNL     1      -4.464  12.234  22.308  0.00  0.00    +0.000 OA
ATOM     18  O   UNL     1      -4.256  14.483  21.224  0.00  0.00    +0.000 OA
BRANCH  16  19
ATOM     19  C   UNL     1      -6.144  12.721  20.377  0.00  0.00    +0.000 C 
BRANCH  19  20
ATOM     20  C   UNL     1      -7.024  11.896  21.310  0.00  0.00    +0.000 C 
ATOM     21  C   UNL     1      -7.616  10.696  20.587  0.00  0.00    +0.000 C 
ENDBRANCH  19  20
ENDBRANCH  16  19
ENDBRANCH   2  16
BRANCH   9  22
ATOM     22  C   UNL     1       0.067  11.398  18.976  0.00  0.00    +0.000 C 
ATOM     23  O   UNL     1       0.934  12.186  18.626  0.00  0.00    +0.000 OA
BRANCH  22  24
ATOM     24  O   UNL     1       0.344  10.115  19.330  0.00  0.00    +0.000 OA
ATOM     25  C   UNL     1       1.228   9.440  18.430  0.00  0.00    +0.000 C 
ENDBRANCH  22  24
ENDBRANCH   9  22
TORSDOF 8
ENDMDL
MODEL 5
REMARK VINA RESULT:      -5.7      2.263      4.618
REMARK  Name = 
REMARK  11 active torsions:
REMARK  status: ('A' for Active; 'I' for Inactive)
REMARK    1  A    between atoms: C_1  and  C_2
REMARK    2  A    between atoms: C_2  and  C_3
REMARK    3  A    between atoms: C_3  and  S_4
REMARK    4  A    between atoms: S_4  and  C_7
REMARK    5  A    between atoms: C_8  and  S_9
REMARK    6  A    between atoms: S_9  and  C_12
REMARK    7  A    between atoms: C_12  and  C_13
REMARK    8  A    between atoms: C_13  and  C_14
REMARK    9  A    between atoms: C_21  and  C_22
REMARK   10  A    between atoms: C_22  and  O_24
REMARK   11  A    between atoms: O_24  and  C_25
REMARK                            x       y       z     vdW  Elec       q    Type
REMARK                         _______ _______ _______ _____ _____    ______ ____
ROOT
ATOM      1  C   UNL     1       4.174   5.762  17.377  0.00  0.00    +0.000 A 
ATOM      2  C   UNL     1       4.382   4.386  17.029  0.00  0.00    +0.000 A 
ATOM      3  C   UNL     1       3.338   3.668  17.597  0.00  0.00    +0.000 A 
ATOM      4  C   UNL     1       2.968   2.281  17.621  0.00  0.00    +0.000 A 
ATOM      5  C   UNL     1       1.878   1.871  18.291  0.00  0.00    +0.000 A 
ATOM      6  C   UNL     1       1.043   2.806  19.005  0.00  0.00    +0.000 A 
ATOM      7  C   UNL     1       1.370   4.107  18.988  0.00  0.00    +0.000 A 
ATOM      8  N   UNL     1       2.500   4.555  18.281  0.00  0.00    +0.000 N 
ATOM      9  C   UNL     1       3.000   5.847  18.146  0.00  0.00    +0.000 A 
ENDROOT
BRANCH   1  10
ATOM     10  S   UNL     1       5.174   7.132  16.950  0.00  0.00    +0.000 S 
ATOM     11  O   UNL     1       4.528   8.299  17.503  0.00  0.00    +0.000 OA
ATOM     12  O   UNL     1       5.334   7.014  15.519  0.00  0.00    +0.000 OA
BRANCH  10  13
ATOM     13  C   UNL     1       6.712   6.905  17.823  0.00  0.00    +0.000 C 
BRANCH  13  15
ATOM     14  C   UNL     1       8.179   8.924  18.082  0.00  0.00    +0.000 C 
ATOM     15  C   UNL     1       7.817   7.746  17.196  0.00  0.00    +0.000 C 
ENDBRANCH  13  15
ENDBRANCH  10  13
ENDBRANCH   1  10
BRANCH   2  16
ATOM     16  S   UNL     1       5.651   3.724  16.021  0.00  0.00    +0.000 S 
ATOM     17  O   UNL     1       6.883   4.285  16.540  0.00  0.00    +0.000 OA
ATOM     18  O   UNL     1       5.429   2.295  16.087  0.00  0.00    +0.000 OA
BRANCH  16  19
ATOM     19  C   UNL     1       5.424   4.413  14.385  0.00  0.00    +0.000 C 
BRANCH  19  20
ATOM     20  C   UNL     1       6.385   3.781  13.384  0.00  0.00    +0.000 C 
ATOM     21  C   UNL     1       5.638   3.218  12.186  0.00  0.00    +0.000 C 
ENDBRANCH  19  20
ENDBRANCH  16  19
ENDBRANCH   2  16
BRANCH   9  22
ATOM     22  C   UNL     1       2.421   7.046  18.731  0.00  0.00    +0.000 C 
ATOM     23  O   UNL     1       2.543   7.399  19.895  0.00  0.00    +0.000 OA
BRANCH  22  24
ATOM     24  O   UNL     1       1.786   7.805  17.799  0.00  0.00    +0.000 OA
ATOM     25  C   UNL     1       1.431   9.114  18.256  0.00  0.00    +0.000 C 
ENDBRANCH  22  24
ENDBRANCH   9  22
TORSDOF 8
ENDMDL
MODEL 6
REMARK VINA RESULT:      -5.7      6.927      9.575
REMARK  Name = 
REMARK  11 active torsions:
REMARK  status: ('A' for Active; 'I' for Inactive)
REMARK    1  A    between atoms: C_1  and  C_2
REMARK    2  A    between atoms: C_2  and  C_3
REMARK    3  A    between atoms: C_3  and  S_4
REMARK    4  A    between atoms: S_4  and  C_7
REMARK    5  A    between atoms: C_8  and  S_9
REMARK    6  A    between atoms: S_9  and  C_12
REMARK    7  A    between atoms: C_12  and  C_13
REMARK    8  A    between atoms: C_13  and  C_14
REMARK    9  A    between atoms: C_21  and  C_22
REMARK   10  A    between atoms: C_22  and  O_24
REMARK   11  A    between atoms: O_24  and  C_25
REMARK                            x       y       z     vdW  Elec       q    Type
REMARK                         _______ _______ _______ _____ _____    ______ ____
ROOT
ATOM      1  C   UNL     1      -1.511  12.256  20.852  0.00  0.00    +0.000 A 
ATOM      2  C   UNL     1      -0.805  11.410  19.935  0.00  0.00    +0.000 A 
ATOM      3  C   UNL     1      -1.693  11.097  18.914  0.00  0.00    +0.000 A 
ATOM      4  C   UNL     1      -1.611  10.310  17.717  0.00  0.00    +0.000 A 
ATOM      5  C   UNL     1      -2.676  10.171  16.910  0.00  0.00    +0.000 A 
ATOM      6  C   UNL     1      -3.934  10.808  17.216  0.00  0.00    +0.000 A 
ATOM      7  C   UNL     1      -4.027  11.553  18.328  0.00  0.00    +0.000 A 
ATOM      8  N   UNL     1      -2.919  11.719  19.177  0.00  0.00    +0.000 N 
ATOM      9  C   UNL     1      -2.817  12.441  20.363  0.00  0.00    +0.000 A 
ENDROOT
BRANCH   1  10
ATOM     10  S   UNL     1      -0.908  12.959  22.337  0.00  0.00    +0.000 S 
ATOM     11  O   UNL     1       0.436  13.410  22.061  0.00  0.00    +0.000 OA
ATOM     12  O   UNL     1      -1.127  11.926  23.324  0.00  0.00    +0.000 OA
BRANCH  10  13
ATOM     13  C   UNL     1      -1.909  14.402  22.635  0.00  0.00    +0.000 C 
BRANCH  13  15
ATOM     14  C   UNL     1      -1.987  15.739  24.758  0.00  0.00    +0.000 C 
ATOM     15  C   UNL     1      -2.384  14.438  24.083  0.00  0.00    +0.000 C 
ENDBRANCH  13  15
ENDBRANCH  10  13
ENDBRANCH   1  10
BRANCH   2  16
ATOM     16  S   UNL     1       0.873  10.920  20.018  0.00  0.00    +0.000 S 
ATOM     17  O   UNL     1       1.602  11.920  19.264  0.00  0.00    +0.000 OA
ATOM     18  O   UNL     1       1.116  10.774  21.438  0.00  0.00    +0.000 OA
BRANCH  16  19
ATOM     19  C   UNL     1       1.011   9.388  19.104  0.00  0.00    +0.000 C 
BRANCH  19  20
ATOM     20  C   UNL     1       2.005   9.521  17.955  0.00  0.00    +0.000 C 
ATOM     21  C   UNL     1       2.708   8.201  17.681  0.00  0.00    +0.000 C 
ENDBRANCH  19  20
ENDBRANCH  16  19
ENDBRANCH   2  16
BRANCH   9  22
ATOM     22  C   UNL     1      -3.884  13.209  20.982  0.00  0.00    +0.000 C 
ATOM     23  O   UNL     1      -4.229  14.336  20.657  0.00  0.00    +0.000 OA
BRANCH  22  24
ATOM     24  O   UNL     1      -4.540  12.488  21.930  0.00  0.00    +0.000 OA
ATOM     25  C   UNL     1      -5.929  12.810  22.050  0.00  0.00    +0.000 C 
ENDBRANCH  22  24
ENDBRANCH   9  22
TORSDOF 8
ENDMDL
MODEL 7
REMARK VINA RESULT:      -5.7      7.424     10.061
REMARK  Name = 
REMARK  11 active torsions:
REMARK  status: ('A' for Active; 'I' for Inactive)
REMARK    1  A    between atoms: C_1  and  C_2
REMARK    2  A    between atoms: C_2  and  C_3
REMARK    3  A    between atoms: C_3  and  S_4
REMARK    4  A    between atoms: S_4  and  C_7
REMARK    5  A    between atoms: C_8  and  S_9
REMARK    6  A    between atoms: S_9  and  C_12
REMARK    7  A    between atoms: C_12  and  C_13
REMARK    8  A    between atoms: C_13  and  C_14
REMARK    9  A    between atoms: C_21  and  C_22
REMARK   10  A    between atoms: C_22  and  O_24
REMARK   11  A    between atoms: O_24  and  C_25
REMARK                            x       y       z     vdW  Elec       q    Type
REMARK                         _______ _______ _______ _____ _____    ______ ____
ROOT
ATOM      1  C   UNL     1      -2.344  12.475  20.551  0.00  0.00    +0.000 A 
ATOM      2  C   UNL     1      -1.426  11.778  19.697  0.00  0.00    +0.000 A 
ATOM      3  C   UNL     1      -2.148  11.364  18.586  0.00  0.00    +0.000 A 
ATOM      4  C   UNL     1      -1.825  10.638  17.391  0.00  0.00    +0.000 A 
ATOM      5  C   UNL     1      -2.771  10.363  16.476  0.00  0.00    +0.000 A 
ATOM      6  C   UNL     1      -4.137  10.788  16.661  0.00  0.00    +0.000 A 
ATOM      7  C   UNL     1      -4.455  11.473  17.769  0.00  0.00    +0.000 A 
ATOM      8  N   UNL     1      -3.476  11.781  18.731  0.00  0.00    +0.000 N 
ATOM      9  C   UNL     1      -3.607  12.472  19.932  0.00  0.00    +0.000 A 
ENDROOT
BRANCH   1  10
ATOM     10  S   UNL     1      -2.008  13.214  22.101  0.00  0.00    +0.000 S 
ATOM     11  O   UNL     1      -2.696  14.483  22.108  0.00  0.00    +0.000 OA
ATOM     12  O   UNL     1      -0.566  13.182  22.196  0.00  0.00    +0.000 OA
BRANCH  10  13
ATOM     13  C   UNL     1      -2.788  12.171  23.317  0.00  0.00    +0.000 C 
BRANCH  13  15
ATOM     14  C   UNL     1      -4.838  12.254  24.763  0.00  0.00    +0.000 C 
ATOM     15  C   UNL     1      -3.603  13.005  24.298  0.00  0.00    +0.000 C 
ENDBRANCH  13  15
ENDBRANCH  10  13
ENDBRANCH   1  10
BRANCH   2  16
ATOM     16  S   UNL     1       0.292  11.550  19.945  0.00  0.00    +0.000 S 
ATOM     17  O   UNL     1       0.731  10.722  18.839  0.00  0.00    +0.000 OA
ATOM     18  O   UNL     1       0.800  12.899  20.077  0.00  0.00    +0.000 OA
BRANCH  16  19
ATOM     19  C   UNL     1       0.475  10.564  21.427  0.00  0.00    +0.000 C 
BRANCH  19  20
ATOM     20  C   UNL     1      -0.048   9.147  21.214  0.00  0.00    +0.000 C 
ATOM     21  C   UNL     1       1.086   8.135  21.230  0.00  0.00    +0.000 C 
ENDBRANCH  19  20
ENDBRANCH  16  19
ENDBRANCH   2  16
BRANCH   9  22
ATOM     22  C   UNL     1      -4.838  13.046  20.451  0.00  0.00    +0.000 C 
ATOM     23  O   UNL     1      -5.288  14.144  20.157  0.00  0.00    +0.000 OA
BRANCH  22  24
ATOM     24  O   UNL     1      -5.504  12.172  21.251  0.00  0.00    +0.000 OA
ATOM     25  C   UNL     1      -6.813  11.834  20.784  0.00  0.00    +0.000 C 
ENDBRANCH  22  24
ENDBRANCH   9  22
TORSDOF 8
ENDMDL
MODEL 8
REMARK VINA RESULT:      -5.7      1.817      4.983
REMARK  Name = 
REMARK  11 active torsions:
REMARK  status: ('A' for Active; 'I' for Inactive)
REMARK    1  A    between atoms: C_1  and  C_2
REMARK    2  A    between atoms: C_2  and  C_3
REMARK    3  A    between atoms: C_3  and  S_4
REMARK    4  A    between atoms: S_4  and  C_7
REMARK    5  A    between atoms: C_8  and  S_9
REMARK    6  A    between atoms: S_9  and  C_12
REMARK    7  A    between atoms: C_12  and  C_13
REMARK    8  A    between atoms: C_13  and  C_14
REMARK    9  A    between atoms: C_21  and  C_22
REMARK   10  A    between atoms: C_22  and  O_24
REMARK   11  A    between atoms: O_24  and  C_25
REMARK                            x       y       z     vdW  Elec       q    Type
REMARK                         _______ _______ _______ _____ _____    ______ ____
ROOT
ATOM      1  C   UNL     1       4.742   4.707  17.282  0.00  0.00    +0.000 A 
ATOM      2  C   UNL     1       3.974   4.299  18.423  0.00  0.00    +0.000 A 
ATOM      3  C   UNL     1       3.278   5.420  18.858  0.00  0.00    +0.000 A 
ATOM      4  C   UNL     1       2.355   5.677  19.926  0.00  0.00    +0.000 A 
ATOM      5  C   UNL     1       1.847   6.906  20.116  0.00  0.00    +0.000 A 
ATOM      6  C   UNL     1       2.206   8.006  19.253  0.00  0.00    +0.000 A 
ATOM      7  C   UNL     1       3.063   7.782  18.246  0.00  0.00    +0.000 A 
ATOM      8  N   UNL     1       3.595   6.499  18.026  0.00  0.00    +0.000 N 
ATOM      9  C   UNL     1       4.489   6.071  17.048  0.00  0.00    +0.000 A 
ENDROOT
BRANCH   1  10
ATOM     10  S   UNL     1       5.822   3.726  16.318  0.00  0.00    +0.000 S 
ATOM     11  O   UNL     1       5.420   2.354  16.518  0.00  0.00    +0.000 OA
ATOM     12  O   UNL     1       7.140   4.153  16.730  0.00  0.00    +0.000 OA
BRANCH  10  13
ATOM     13  C   UNL     1       5.477   4.145  14.620  0.00  0.00    +0.000 C 
BRANCH  13  15
ATOM     14  C   UNL     1       6.632   3.708  12.436  0.00  0.00    +0.000 C 
ATOM     15  C   UNL     1       6.770   4.296  13.828  0.00  0.00    +0.000 C 
ENDBRANCH  13  15
ENDBRANCH  10  13
ENDBRANCH   1  10
BRANCH   2  16
ATOM     16  S   UNL     1       3.856   2.692  19.105  0.00  0.00    +0.000 S 
ATOM     17  O   UNL     1       3.464   1.837  18.002  0.00  0.00    +0.000 OA
ATOM     18  O   UNL     1       5.141   2.496  19.743  0.00  0.00    +0.000 OA
BRANCH  16  19
ATOM     19  C   UNL     1       2.480   2.714  20.249  0.00  0.00    +0.000 C 
BRANCH  19  20
ATOM     20  C   UNL     1       1.288   1.944  19.691  0.00  0.00    +0.000 C 
ATOM     21  C   UNL     1       0.422   2.833  18.814  0.00  0.00    +0.000 C 
ENDBRANCH  19  20
ENDBRANCH  16  19
ENDBRANCH   2  16
BRANCH   9  22
ATOM     22  C   UNL     1       5.070   6.903  16.007  0.00  0.00    +0.000 C 
ATOM     23  O   UNL     1       4.450   7.452  15.107  0.00  0.00    +0.000 OA
BRANCH  22  24
ATOM     24  O   UNL     1       6.403   7.089  16.196  0.00  0.00    +0.000 OA
ATOM     25  C   UNL     1       6.738   7.668  17.460  0.00  0.00    +0.000 C 
ENDBRANCH  22  24
ENDBRANCH   9  22
TORSDOF 8
ENDMDL
MODEL 9
REMARK VINA RESULT:      -5.7      7.786     10.064
REMARK  Name = 
REMARK  11 active torsions:
REMARK  status: ('A' for Active; 'I' for Inactive)
REMARK    1  A    between atoms: C_1  and  C_2
REMARK    2  A    between atoms: C_2  and  C_3
REMARK    3  A    between atoms: C_3  and  S_4
REMARK    4  A    between atoms: S_4  and  C_7
REMARK    5  A    between atoms: C_8  and  S_9
REMARK    6  A    between atoms: S_9  and  C_12
REMARK    7  A    between atoms: C_12  and  C_13
REMARK    8  A    between atoms: C_13  and  C_14
REMARK    9  A    between atoms: C_21  and  C_22
REMARK   10  A    between atoms: C_22  and  O_24
REMARK   11  A    between atoms: O_24  and  C_25
REMARK                            x       y       z     vdW  Elec       q    Type
REMARK                         _______ _______ _______ _____ _____    ______ ____
ROOT
ATOM      1  C   UNL     1      -2.948  12.196  19.923  0.00  0.00    +0.000 A 
ATOM      2  C   UNL     1      -3.454  11.697  18.678  0.00  0.00    +0.000 A 
ATOM      3  C   UNL     1      -4.825  11.924  18.683  0.00  0.00    +0.000 A 
ATOM      4  C   UNL     1      -5.889  11.666  17.756  0.00  0.00    +0.000 A 
ATOM      5  C   UNL     1      -7.158  11.990  18.058  0.00  0.00    +0.000 A 
ATOM      6  C   UNL     1      -7.493  12.608  19.319  0.00  0.00    +0.000 A 
ATOM      7  C   UNL     1      -6.509  12.861  20.195  0.00  0.00    +0.000 A 
ATOM      8  N   UNL     1      -5.174  12.540  19.890  0.00  0.00    +0.000 N 
ATOM      9  C   UNL     1      -4.027  12.720  20.657  0.00  0.00    +0.000 A 
ENDROOT
BRANCH   1  10
ATOM     10  S   UNL     1      -1.291  12.178  20.485  0.00  0.00    +0.000 S 
ATOM     11  O   UNL     1      -1.340  12.381  21.914  0.00  0.00    +0.000 OA
ATOM     12  O   UNL     1      -0.630  13.151  19.647  0.00  0.00    +0.000 OA
BRANCH  10  13
ATOM     13  C   UNL     1      -0.697  10.523  20.197  0.00  0.00    +0.000 C 
BRANCH  13  15
ATOM     14  C   UNL     1       1.153  10.008  18.581  0.00  0.00    +0.000 C 
ATOM     15  C   UNL     1       0.810  10.524  19.967  0.00  0.00    +0.000 C 
ENDBRANCH  13  15
ENDBRANCH  10  13
ENDBRANCH   1  10
BRANCH   2  16
ATOM     16  S   UNL     1      -2.536  11.008  17.357  0.00  0.00    +0.000 S 
ATOM     17  O   UNL     1      -1.456  11.944  17.113  0.00  0.00    +0.000 OA
ATOM     18  O   UNL     1      -2.234   9.668  17.813  0.00  0.00    +0.000 OA
BRANCH  16  19
ATOM     19  C   UNL     1      -3.591  11.055  15.912  0.00  0.00    +0.000 C 
BRANCH  19  20
ATOM     20  C   UNL     1      -2.947  10.329  14.737  0.00  0.00    +0.000 C 
ATOM     21  C   UNL     1      -3.985   9.935  13.699  0.00  0.00    +0.000 C 
ENDBRANCH  19  20
ENDBRANCH  16  19
ENDBRANCH   2  16
BRANCH   9  22
ATOM     22  C   UNL     1      -3.979  13.310  21.985  0.00  0.00    +0.000 C 
ATOM     23  O   UNL     1      -3.757  14.487  22.232  0.00  0.00    +0.000 OA
BRANCH  22  24
ATOM     24  O   UNL     1      -4.306  12.409  22.950  0.00  0.00    +0.000 OA
ATOM     25  C   UNL     1      -5.043  12.967  24.042  0.00  0.00    +0.000 C 
ENDBRANCH  22  24
ENDBRANCH   9  22
TORSDOF 8
ENDMDL
