MODEL 1
REMARK VINA RESULT:      -7.8      0.000      0.000
REMARK  Name = 
REMARK  13 active torsions:
REMARK  status: ('A' for Active; 'I' for Inactive)
REMARK    1  A    between atoms: C_1  and  O_2
REMARK    2  A    between atoms: O_2  and  C_3
REMARK    3  A    between atoms: C_6  and  C_7
REMARK    4  A    between atoms: C_7  and  C_8
REMARK    5  A    between atoms: C_8  and  N_9
REMARK    6  A    between atoms: C_10  and  C_12
REMARK    7  A    between atoms: N_16  and  C_17
REMARK    8  A    between atoms: C_20  and  C_21
REMARK    9  A    between atoms: C_21  and  C_22
REMARK   10  A    between atoms: C_21  and  C_23
REMARK   11  A    between atoms: C_21  and  C_24
REMARK   12  A    between atoms: C_29  and  O_30
REMARK   13  A    between atoms: O_30  and  C_31
REMARK                            x       y       z     vdW  Elec       q    Type
REMARK                         _______ _______ _______ _____ _____    ______ ____
ROOT
ATOM      1  N   UNL     1      -3.305  11.137  18.173  0.00  0.00    +0.000 N 
ATOM      2  C   UNL     1      -2.081  11.740  18.350  0.00  0.00    +0.000 C 
ATOM      3  O   UNL     1      -1.546  12.438  17.497  0.00  0.00    +0.000 OA
ATOM      4  H   UNL     1      -3.793  10.727  18.960  0.00  0.00    +0.000 HD
ENDROOT
BRANCH   2   5
ATOM      5  C   UNL     1      -1.407  11.513  19.695  0.00  0.00    +0.000 C 
ATOM      6  C   UNL     1      -0.235  12.443  19.932  0.00  0.00    +0.000 C 
ATOM      7  C   UNL     1       0.960  11.630  19.498  0.00  0.00    +0.000 C 
ATOM      8  O   UNL     1       2.055  12.137  19.290  0.00  0.00    +0.000 OA
ATOM      9  N   UNL     1       0.557  10.288  19.380  0.00  0.00    +0.000 N 
ATOM     10  C   UNL     1      -0.827  10.122  19.772  0.00  0.00    +0.000 C 
BRANCH   9  11
ATOM     11  C   UNL     1       1.396   9.179  19.090  0.00  0.00    +0.000 A 
ATOM     12  C   UNL     1       1.625   8.184  20.036  0.00  0.00    +0.000 A 
ATOM     13  C   UNL     1       2.394   7.054  19.734  0.00  0.00    +0.000 A 
ATOM     14  C   UNL     1       2.981   6.874  18.475  0.00  0.00    +0.000 A 
ATOM     15  C   UNL     1       2.796   7.904  17.540  0.00  0.00    +0.000 A 
ATOM     16  C   UNL     1       2.010   9.029  17.838  0.00  0.00    +0.000 A 
BRANCH  14  17
ATOM     17  C   UNL     1       3.750   5.594  18.112  0.00  0.00    +0.000 C 
ATOM     18  C   UNL     1       4.683   5.111  19.247  0.00  0.00    +0.000 C 
ATOM     19  C   UNL     1       2.746   4.457  17.825  0.00  0.00    +0.000 C 
ATOM     20  C   UNL     1       4.624   5.817  16.863  0.00  0.00    +0.000 C 
ENDBRANCH  14  17
ENDBRANCH   9  11
ENDBRANCH   2   5
BRANCH   1  21
ATOM     21  C   UNL     1      -4.060  11.311  16.946  0.00  0.00    +0.000 C 
BRANCH  21  22
ATOM     22  C   UNL     1      -5.390  12.025  17.181  0.00  0.00    +0.000 C 
BRANCH  22  26
ATOM     23  C   UNL     1      -6.825  11.874  21.249  0.00  0.00    +0.000 A 
ATOM     24  C   UNL     1      -5.948  12.891  20.833  0.00  0.00    +0.000 A 
ATOM     25  C   UNL     1      -5.477  12.944  19.522  0.00  0.00    +0.000 A 
ATOM     26  C   UNL     1      -5.832  11.946  18.615  0.00  0.00    +0.000 A 
ATOM     27  C   UNL     1      -6.611  10.876  19.059  0.00  0.00    +0.000 A 
ATOM     28  C   UNL     1      -7.118  10.824  20.366  0.00  0.00    +0.000 A 
BRANCH  23  30
ATOM     29  C   UNL     1      -6.753  12.775  23.438  0.00  0.00    +0.000 C 
ATOM     30  O   UNL     1      -7.382  11.895  22.502  0.00  0.00    +0.000 OA
ENDBRANCH  23  30
BRANCH  28  31
ATOM     31  O   UNL     1      -7.883   9.707  20.553  0.00  0.00    +0.000 OA
ATOM     32  C   UNL     1      -7.351   8.428  20.262  0.00  0.00    +0.000 C 
ENDBRANCH  28  31
ENDBRANCH  22  26
ENDBRANCH  21  22
ENDBRANCH   1  21
TORSDOF 8
ENDMDL
MODEL 2
REMARK VINA RESULT:      -7.7      5.778     11.864
REMARK  Name = 
REMARK  13 active torsions:
REMARK  status: ('A' for Active; 'I' for Inactive)
REMARK    1  A    between atoms: C_1  and  O_2
REMARK    2  A    between atoms: O_2  and  C_3
REMARK    3  A    between atoms: C_6  and  C_7
REMARK    4  A    between atoms: C_7  and  C_8
REMARK    5  A    between atoms: C_8  and  N_9
REMARK    6  A    between atoms: C_10  and  C_12
REMARK    7  A    between atoms: N_16  and  C_17
REMARK    8  A    between atoms: C_20  and  C_21
REMARK    9  A    between atoms: C_21  and  C_22
REMARK   10  A    between atoms: C_21  and  C_23
REMARK   11  A    between atoms: C_21  and  C_24
REMARK   12  A    between atoms: C_29  and  O_30
REMARK   13  A    between atoms: O_30  and  C_31
REMARK                            x       y       z     vdW  Elec       q    Type
REMARK                         _______ _______ _______ _____ _____    ______ ____
ROOT
ATOM      1  N   UNL     1       7.436   6.947  18.333  0.00  0.00    +0.000 N 
ATOM      2  C   UNL     1       7.403   5.715  18.944  0.00  0.00    +0.000 C 
ATOM      3  O   UNL     1       8.278   5.316  19.702  0.00  0.00    +0.000 OA
ATOM      4  H   UNL     1       6.614   7.310  17.866  0.00  0.00    +0.000 HD
ENDROOT
BRANCH   2   5
ATOM      5  C   UNL     1       6.188   4.848  18.644  0.00  0.00    +0.000 C 
ATOM      6  C   UNL     1       5.886   4.750  17.162  0.00  0.00    +0.000 C 
ATOM      7  C   UNL     1       4.844   5.819  16.939  0.00  0.00    +0.000 C 
ATOM      8  O   UNL     1       4.550   6.222  15.821  0.00  0.00    +0.000 OA
ATOM      9  N   UNL     1       4.351   6.218  18.194  0.00  0.00    +0.000 N 
ATOM     10  C   UNL     1       4.945   5.441  19.260  0.00  0.00    +0.000 C 
BRANCH   9  11
ATOM     11  C   UNL     1       3.288   7.132  18.428  0.00  0.00    +0.000 A 
ATOM     12  C   UNL     1       2.538   7.076  19.599  0.00  0.00    +0.000 A 
ATOM     13  C   UNL     1       1.537   8.016  19.869  0.00  0.00    +0.000 A 
ATOM     14  C   UNL     1       1.230   9.048  18.973  0.00  0.00    +0.000 A 
ATOM     15  C   UNL     1       1.949   9.070  17.768  0.00  0.00    +0.000 A 
ATOM     16  C   UNL     1       2.965   8.138  17.506  0.00  0.00    +0.000 A 
BRANCH  14  17
ATOM     17  C   UNL     1       0.194  10.133  19.305  0.00  0.00    +0.000 C 
ATOM     18  C   UNL     1      -0.446   9.946  20.701  0.00  0.00    +0.000 C 
ATOM     19  C   UNL     1       0.880  11.516  19.295  0.00  0.00    +0.000 C 
ATOM     20  C   UNL     1      -0.949  10.132  18.273  0.00  0.00    +0.000 C 
ENDBRANCH  14  17
ENDBRANCH   9  11
ENDBRANCH   2   5
BRANCH   1  21
ATOM     21  C   UNL     1       8.525   7.876  18.570  0.00  0.00    +0.000 C 
BRANCH  21  22
ATOM     22  C   UNL     1       8.322   9.204  17.842  0.00  0.00    +0.000 C 
BRANCH  22  26
ATOM     23  C   UNL     1      10.412  12.427  19.812  0.00  0.00    +0.000 A 
ATOM     24  C   UNL     1       9.964  11.309  20.538  0.00  0.00    +0.000 A 
ATOM     25  C   UNL     1       9.284  10.267  19.910  0.00  0.00    +0.000 A 
ATOM     26  C   UNL     1       8.991  10.348  18.549  0.00  0.00    +0.000 A 
ATOM     27  C   UNL     1       9.337  11.508  17.852  0.00  0.00    +0.000 A 
ATOM     28  C   UNL     1      10.047  12.552  18.462  0.00  0.00    +0.000 A 
BRANCH  23  30
ATOM     29  C   UNL     1      10.463  14.440  21.056  0.00  0.00    +0.000 C 
ATOM     30  O   UNL     1      11.184  13.389  20.408  0.00  0.00    +0.000 OA
ENDBRANCH  23  30
BRANCH  28  31
ATOM     31  O   UNL     1      10.306  13.557  17.573  0.00  0.00    +0.000 OA
ATOM     32  C   UNL     1      11.410  13.454  16.693  0.00  0.00    +0.000 C 
ENDBRANCH  28  31
ENDBRANCH  22  26
ENDBRANCH  21  22
ENDBRANCH   1  21
TORSDOF 8
ENDMDL
MODEL 3
REMARK VINA RESULT:      -7.4      3.418     10.869
REMARK  Name = 
REMARK  13 active torsions:
REMARK  status: ('A' for Active; 'I' for Inactive)
REMARK    1  A    between atoms: C_1  and  O_2
REMARK    2  A    between atoms: O_2  and  C_3
REMARK    3  A    between atoms: C_6  and  C_7
REMARK    4  A    between atoms: C_7  and  C_8
REMARK    5  A    between atoms: C_8  and  N_9
REMARK    6  A    between atoms: C_10  and  C_12
REMARK    7  A    between atoms: N_16  and  C_17
REMARK    8  A    between atoms: C_20  and  C_21
REMARK    9  A    between atoms: C_21  and  C_22
REMARK   10  A    between atoms: C_21  and  C_23
REMARK   11  A    between atoms: C_21  and  C_24
REMARK   12  A    between atoms: C_29  and  O_30
REMARK   13  A    between atoms: O_30  and  C_31
REMARK                            x       y       z     vdW  Elec       q    Type
REMARK                         _______ _______ _______ _____ _____    ______ ____
ROOT
ATOM      1  N   UNL     1       2.480   7.367  18.565  0.00  0.00    +0.000 N 
ATOM      2  C   UNL     1       1.760   8.365  19.180  0.00  0.00    +0.000 C 
ATOM      3  O   UNL     1       1.644   8.459  20.396  0.00  0.00    +0.000 OA
ATOM      4  H   UNL     1       2.703   7.430  17.578  0.00  0.00    +0.000 HD
ENDROOT
BRANCH   2   5
ATOM      5  C   UNL     1       1.106   9.387  18.262  0.00  0.00    +0.000 C 
ATOM      6  C   UNL     1       1.907  10.668  18.142  0.00  0.00    +0.000 C 
ATOM      7  C   UNL     1       1.276  11.581  19.164  0.00  0.00    +0.000 C 
ATOM      8  O   UNL     1       1.820  12.609  19.547  0.00  0.00    +0.000 OA
ATOM      9  N   UNL     1       0.045  11.021  19.551  0.00  0.00    +0.000 N 
ATOM     10  C   UNL     1      -0.235   9.813  18.806  0.00  0.00    +0.000 C 
BRANCH   9  11
ATOM     11  C   UNL     1      -0.911  11.610  20.421  0.00  0.00    +0.000 A 
ATOM     12  C   UNL     1      -1.975  12.355  19.920  0.00  0.00    +0.000 A 
ATOM     13  C   UNL     1      -2.959  12.879  20.766  0.00  0.00    +0.000 A 
ATOM     14  C   UNL     1      -2.918  12.693  22.153  0.00  0.00    +0.000 A 
ATOM     15  C   UNL     1      -1.815  11.990  22.662  0.00  0.00    +0.000 A 
ATOM     16  C   UNL     1      -0.838  11.449  21.812  0.00  0.00    +0.000 A 
BRANCH  14  17
ATOM     17  C   UNL     1      -4.043  13.190  23.074  0.00  0.00    +0.000 C 
ATOM     18  C   UNL     1      -5.446  13.053  22.438  0.00  0.00    +0.000 C 
ATOM     19  C   UNL     1      -4.044  12.359  24.375  0.00  0.00    +0.000 C 
ATOM     20  C   UNL     1      -3.843  14.676  23.430  0.00  0.00    +0.000 C 
ENDBRANCH  14  17
ENDBRANCH   9  11
ENDBRANCH   2   5
BRANCH   1  21
ATOM     21  C   UNL     1       3.177   6.356  19.336  0.00  0.00    +0.000 C 
BRANCH  21  22
ATOM     22  C   UNL     1       3.286   5.029  18.587  0.00  0.00    +0.000 C 
BRANCH  22  26
ATOM     23  C   UNL     1       6.262   5.258  15.470  0.00  0.00    +0.000 A 
ATOM     24  C   UNL     1       5.262   4.271  15.438  0.00  0.00    +0.000 A 
ATOM     25  C   UNL     1       4.300   4.187  16.444  0.00  0.00    +0.000 A 
ATOM     26  C   UNL     1       4.354   5.058  17.531  0.00  0.00    +0.000 A 
ATOM     27  C   UNL     1       5.413   5.964  17.619  0.00  0.00    +0.000 A 
ATOM     28  C   UNL     1       6.371   6.081  16.601  0.00  0.00    +0.000 A 
BRANCH  23  30
ATOM     29  C   UNL     1       7.093   4.377  13.435  0.00  0.00    +0.000 C 
ATOM     30  O   UNL     1       7.130   5.413  14.420  0.00  0.00    +0.000 OA
ENDBRANCH  23  30
BRANCH  28  31
ATOM     31  O   UNL     1       7.280   7.060  16.890  0.00  0.00    +0.000 OA
ATOM     32  C   UNL     1       7.904   7.091  18.160  0.00  0.00    +0.000 C 
ENDBRANCH  28  31
ENDBRANCH  22  26
ENDBRANCH  21  22
ENDBRANCH   1  21
TORSDOF 8
ENDMDL
MODEL 4
REMARK VINA RESULT:      -7.4      3.499     10.848
REMARK  Name = 
REMARK  13 active torsions:
REMARK  status: ('A' for Active; 'I' for Inactive)
REMARK    1  A    between atoms: C_1  and  O_2
REMARK    2  A    between atoms: O_2  and  C_3
REMARK    3  A    between atoms: C_6  and  C_7
REMARK    4  A    between atoms: C_7  and  C_8
REMARK    5  A    between atoms: C_8  and  N_9
REMARK    6  A    between atoms: C_10  and  C_12
REMARK    7  A    between atoms: N_16  and  C_17
REMARK    8  A    between atoms: C_20  and  C_21
REMARK    9  A    between atoms: C_21  and  C_22
REMARK   10  A    between atoms: C_21  and  C_23
REMARK   11  A    between atoms: C_21  and  C_24
REMARK   12  A    between atoms: C_29  and  O_30
REMARK   13  A    between atoms: O_30  and  C_31
REMARK                            x       y       z     vdW  Elec       q    Type
REMARK                         _______ _______ _______ _____ _____    ______ ____
ROOT
ATOM      1  N   UNL     1       1.824   7.737  18.068  0.00  0.00    +0.000 N 
ATOM      2  C   UNL     1       1.448   8.699  18.976  0.00  0.00    +0.000 C 
ATOM      3  O   UNL     1       1.402   8.501  20.184  0.00  0.00    +0.000 OA
ATOM      4  H   UNL     1       2.026   7.990  17.107  0.00  0.00    +0.000 HD
ENDROOT
BRANCH   2   5
ATOM      5  C   UNL     1       1.098  10.064  18.404  0.00  0.00    +0.000 C 
ATOM      6  C   UNL     1       2.011  11.165  18.905  0.00  0.00    +0.000 C 
ATOM      7  C   UNL     1       1.253  11.756  20.069  0.00  0.00    +0.000 C 
ATOM      8  O   UNL     1       1.786  12.489  20.892  0.00  0.00    +0.000 OA
ATOM      9  N   UNL     1      -0.075  11.297  20.005  0.00  0.00    +0.000 N 
ATOM     10  C   UNL     1      -0.289  10.480  18.830  0.00  0.00    +0.000 C 
BRANCH   9  11
ATOM     11  C   UNL     1      -1.143  11.692  20.854  0.00  0.00    +0.000 A 
ATOM     12  C   UNL     1      -1.129  11.391  22.213  0.00  0.00    +0.000 A 
ATOM     13  C   UNL     1      -2.143  11.838  23.069  0.00  0.00    +0.000 A 
ATOM     14  C   UNL     1      -3.225  12.594  22.602  0.00  0.00    +0.000 A 
ATOM     15  C   UNL     1      -3.267  12.849  21.222  0.00  0.00    +0.000 A 
ATOM     16  C   UNL     1      -2.241  12.416  20.368  0.00  0.00    +0.000 A 
BRANCH  14  17
ATOM     17  C   UNL     1      -4.292  13.160  23.551  0.00  0.00    +0.000 C 
ATOM     18  C   UNL     1      -4.480  12.303  24.825  0.00  0.00    +0.000 C 
ATOM     19  C   UNL     1      -3.874  14.575  24.006  0.00  0.00    +0.000 C 
ATOM     20  C   UNL     1      -5.661  13.244  22.849  0.00  0.00    +0.000 C 
ENDBRANCH  14  17
ENDBRANCH   9  11
ENDBRANCH   2   5
BRANCH   1  21
ATOM     21  C   UNL     1       2.216   6.407  18.496  0.00  0.00    +0.000 C 
BRANCH  21  22
ATOM     22  C   UNL     1       3.660   6.361  18.992  0.00  0.00    +0.000 C 
BRANCH  22  26
ATOM     23  C   UNL     1       6.310   5.036  15.853  0.00  0.00    +0.000 A 
ATOM     24  C   UNL     1       5.144   4.313  16.164  0.00  0.00    +0.000 A 
ATOM     25  C   UNL     1       4.287   4.732  17.180  0.00  0.00    +0.000 A 
ATOM     26  C   UNL     1       4.607   5.855  17.941  0.00  0.00    +0.000 A 
ATOM     27  C   UNL     1       5.819   6.507  17.706  0.00  0.00    +0.000 A 
ATOM     28  C   UNL     1       6.679   6.116  16.669  0.00  0.00    +0.000 A 
BRANCH  23  30
ATOM     29  C   UNL     1       6.406   3.987  13.732  0.00  0.00    +0.000 C 
ATOM     30  O   UNL     1       7.085   4.691  14.776  0.00  0.00    +0.000 OA
ENDBRANCH  23  30
BRANCH  28  31
ATOM     31  O   UNL     1       7.778   6.926  16.609  0.00  0.00    +0.000 OA
ATOM     32  C   UNL     1       7.917   7.998  17.523  0.00  0.00    +0.000 C 
ENDBRANCH  28  31
ENDBRANCH  22  26
ENDBRANCH  21  22
ENDBRANCH   1  21
TORSDOF 8
ENDMDL
MODEL 5
REMARK VINA RESULT:      -7.3      2.797      9.012
REMARK  Name = 
REMARK  13 active torsions:
REMARK  status: ('A' for Active; 'I' for Inactive)
REMARK    1  A    between atoms: C_1  and  O_2
REMARK    2  A    between atoms: O_2  and  C_3
REMARK    3  A    between atoms: C_6  and  C_7
REMARK    4  A    between atoms: C_7  and  C_8
REMARK    5  A    between atoms: C_8  and  N_9
REMARK    6  A    between atoms: C_10  and  C_12
REMARK    7  A    between atoms: N_16  and  C_17
REMARK    8  A    between atoms: C_20  and  C_21
REMARK    9  A    between atoms: C_21  and  C_22
REMARK   10  A    between atoms: C_21  and  C_23
REMARK   11  A    between atoms: C_21  and  C_24
REMARK   12  A    between atoms: C_29  and  O_30
REMARK   13  A    between atoms: O_30  and  C_31
REMARK                            x       y       z     vdW  Elec       q    Type
REMARK                         _______ _______ _______ _____ _____    ______ ____
ROOT
ATOM      1  N   UNL     1       1.429   9.979  18.526  0.00  0.00    +0.000 N 
ATOM      2  C   UNL     1       1.900  11.260  18.347  0.00  0.00    +0.000 C 
ATOM      3  O   UNL     1       2.638  11.582  17.424  0.00  0.00    +0.000 OA
ATOM      4  H   UNL     1       0.681   9.796  19.185  0.00  0.00    +0.000 HD
ENDROOT
BRANCH   2   5
ATOM      5  C   UNL     1       1.438  12.295  19.363  0.00  0.00    +0.000 C 
ATOM      6  C   UNL     1       1.247  11.715  20.750  0.00  0.00    +0.000 C 
ATOM      7  C   UNL     1      -0.226  11.396  20.805  0.00  0.00    +0.000 C 
ATOM      8  O   UNL     1      -0.706  10.669  21.665  0.00  0.00    +0.000 OA
ATOM      9  N   UNL     1      -0.856  12.050  19.730  0.00  0.00    +0.000 N 
ATOM     10  C   UNL     1       0.088  12.851  18.981  0.00  0.00    +0.000 C 
BRANCH   9  11
ATOM     11  C   UNL     1      -2.253  12.092  19.473  0.00  0.00    +0.000 A 
ATOM     12  C   UNL     1      -2.790  11.513  18.327  0.00  0.00    +0.000 A 
ATOM     13  C   UNL     1      -4.171  11.489  18.102  0.00  0.00    +0.000 A 
ATOM     14  C   UNL     1      -5.078  12.056  19.007  0.00  0.00    +0.000 A 
ATOM     15  C   UNL     1      -4.532  12.688  20.134  0.00  0.00    +0.000 A 
ATOM     16  C   UNL     1      -3.147  12.696  20.368  0.00  0.00    +0.000 A 
BRANCH  14  17
ATOM     17  C   UNL     1      -6.598  11.953  18.807  0.00  0.00    +0.000 C 
ATOM     18  C   UNL     1      -7.401  12.639  19.937  0.00  0.00    +0.000 C 
ATOM     19  C   UNL     1      -6.988  12.642  17.481  0.00  0.00    +0.000 C 
ATOM     20  C   UNL     1      -7.045  10.480  18.756  0.00  0.00    +0.000 C 
ENDBRANCH  14  17
ENDBRANCH   9  11
ENDBRANCH   2   5
BRANCH   1  21
ATOM     21  C   UNL     1       1.771   8.914  17.602  0.00  0.00    +0.000 C 
BRANCH  21  22
ATOM     22  C   UNL     1       2.944   8.072  18.098  0.00  0.00    +0.000 C 
BRANCH  22  26
ATOM     23  C   UNL     1       1.469   4.555  20.121  0.00  0.00    +0.000 A 
ATOM     24  C   UNL     1       1.594   5.779  20.802  0.00  0.00    +0.000 A 
ATOM     25  C   UNL     1       2.074   6.917  20.157  0.00  0.00    +0.000 A 
ATOM     26  C   UNL     1       2.491   6.840  18.829  0.00  0.00    +0.000 A 
ATOM     27  C   UNL     1       2.473   5.600  18.187  0.00  0.00    +0.000 A 
ATOM     28  C   UNL     1       1.965   4.451  18.812  0.00  0.00    +0.000 A 
BRANCH  23  30
ATOM     29  C   UNL     1       1.759   2.664  21.515  0.00  0.00    +0.000 C 
ATOM     30  O   UNL     1       0.884   3.471  20.722  0.00  0.00    +0.000 OA
ENDBRANCH  23  30
BRANCH  28  31
ATOM     31  O   UNL     1       2.013   3.373  17.974  0.00  0.00    +0.000 OA
ATOM     32  C   UNL     1       3.197   3.092  17.252  0.00  0.00    +0.000 C 
ENDBRANCH  28  31
ENDBRANCH  22  26
ENDBRANCH  21  22
ENDBRANCH   1  21
TORSDOF 8
ENDMDL
MODEL 6
REMARK VINA RESULT:      -7.3      3.082     10.892
REMARK  Name = 
REMARK  13 active torsions:
REMARK  status: ('A' for Active; 'I' for Inactive)
REMARK    1  A    between atoms: C_1  and  O_2
REMARK    2  A    between atoms: O_2  and  C_3
REMARK    3  A    between atoms: C_6  and  C_7
REMARK    4  A    between atoms: C_7  and  C_8
REMARK    5  A    between atoms: C_8  and  N_9
REMARK    6  A    between atoms: C_10  and  C_12
REMARK    7  A    between atoms: N_16  and  C_17
REMARK    8  A    between atoms: C_20  and  C_21
REMARK    9  A    between atoms: C_21  and  C_22
REMARK   10  A    between atoms: C_21  and  C_23
REMARK   11  A    between atoms: C_21  and  C_24
REMARK   12  A    between atoms: C_29  and  O_30
REMARK   13  A    between atoms: O_30  and  C_31
REMARK                            x       y       z     vdW  Elec       q    Type
REMARK                         _______ _______ _______ _____ _____    ______ ____
ROOT
ATOM      1  N   UNL     1       2.358   7.696  18.940  0.00  0.00    +0.000 N 
ATOM      2  C   UNL     1       2.043   8.908  18.372  0.00  0.00    +0.000 C 
ATOM      3  O   UNL     1       1.907   9.071  17.166  0.00  0.00    +0.000 OA
ATOM      4  H   UNL     1       2.280   7.563  19.942  0.00  0.00    +0.000 HD
ENDROOT
BRANCH   2   5
ATOM      5  C   UNL     1       1.848  10.072  19.334  0.00  0.00    +0.000 C 
ATOM      6  C   UNL     1       1.414   9.627  20.716  0.00  0.00    +0.000 C 
ATOM      7  C   UNL     1      -0.089   9.756  20.678  0.00  0.00    +0.000 C 
ATOM      8  O   UNL     1      -0.811   9.236  21.517  0.00  0.00    +0.000 OA
ATOM      9  N   UNL     1      -0.433  10.524  19.551  0.00  0.00    +0.000 N 
ATOM     10  C   UNL     1       0.747  10.984  18.851  0.00  0.00    +0.000 C 
BRANCH   9  11
ATOM     11  C   UNL     1      -1.738  10.964  19.199  0.00  0.00    +0.000 A 
ATOM     12  C   UNL     1      -2.463  10.330  18.195  0.00  0.00    +0.000 A 
ATOM     13  C   UNL     1      -3.775  10.712  17.891  0.00  0.00    +0.000 A 
ATOM     14  C   UNL     1      -4.417  11.756  18.570  0.00  0.00    +0.000 A 
ATOM     15  C   UNL     1      -3.665  12.431  19.543  0.00  0.00    +0.000 A 
ATOM     16  C   UNL     1      -2.356  12.035  19.860  0.00  0.00    +0.000 A 
BRANCH  14  17
ATOM     17  C   UNL     1      -5.885  12.119  18.300  0.00  0.00    +0.000 C 
ATOM     18  C   UNL     1      -6.421  13.208  19.260  0.00  0.00    +0.000 C 
ATOM     19  C   UNL     1      -6.023  12.664  16.862  0.00  0.00    +0.000 C 
ATOM     20  C   UNL     1      -6.793  10.884  18.457  0.00  0.00    +0.000 C 
ENDBRANCH  14  17
ENDBRANCH   9  11
ENDBRANCH   2   5
BRANCH   1  21
ATOM     21  C   UNL     1       2.533   6.506  18.128  0.00  0.00    +0.000 C 
BRANCH  21  22
ATOM     22  C   UNL     1       3.555   5.542  18.727  0.00  0.00    +0.000 C 
BRANCH  22  26
ATOM     23  C   UNL     1       6.687   4.773  15.858  0.00  0.00    +0.000 A 
ATOM     24  C   UNL     1       5.711   3.800  16.136  0.00  0.00    +0.000 A 
ATOM     25  C   UNL     1       4.699   4.039  17.065  0.00  0.00    +0.000 A 
ATOM     26  C   UNL     1       4.676   5.239  17.774  0.00  0.00    +0.000 A 
ATOM     27  C   UNL     1       5.710   6.158  17.580  0.00  0.00    +0.000 A 
ATOM     28  C   UNL     1       6.718   5.946  16.628  0.00  0.00    +0.000 A 
BRANCH  23  30
ATOM     29  C   UNL     1       7.200   5.026  13.560  0.00  0.00    +0.000 C 
ATOM     30  O   UNL     1       7.606   4.583  14.858  0.00  0.00    +0.000 OA
ENDBRANCH  23  30
BRANCH  28  31
ATOM     31  O   UNL     1       7.589   6.998  16.590  0.00  0.00    +0.000 OA
ATOM     32  C   UNL     1       7.702   7.862  17.706  0.00  0.00    +0.000 C 
ENDBRANCH  28  31
ENDBRANCH  22  26
ENDBRANCH  21  22
ENDBRANCH   1  21
TORSDOF 8
ENDMDL
MODEL 7
REMARK VINA RESULT:      -7.2      3.424      9.823
REMARK  Name = 
REMARK  13 active torsions:
REMARK  status: ('A' for Active; 'I' for Inactive)
REMARK    1  A    between atoms: C_1  and  O_2
REMARK    2  A    between atoms: O_2  and  C_3
REMARK    3  A    between atoms: C_6  and  C_7
REMARK    4  A    between atoms: C_7  and  C_8
REMARK    5  A    between atoms: C_8  and  N_9
REMARK    6  A    between atoms: C_10  and  C_12
REMARK    7  A    between atoms: N_16  and  C_17
REMARK    8  A    between atoms: C_20  and  C_21
REMARK    9  A    between atoms: C_21  and  C_22
REMARK   10  A    between atoms: C_21  and  C_23
REMARK   11  A    between atoms: C_21  and  C_24
REMARK   12  A    between atoms: C_29  and  O_30
REMARK   13  A    between atoms: O_30  and  C_31
REMARK                            x       y       z     vdW  Elec       q    Type
REMARK                         _______ _______ _______ _____ _____    ______ ____
ROOT
ATOM      1  N   UNL     1       1.088   8.998  20.268  0.00  0.00    +0.000 N 
ATOM      2  C   UNL     1       1.492   9.240  18.976  0.00  0.00    +0.000 C 
ATOM      3  O   UNL     1       2.330   8.561  18.395  0.00  0.00    +0.000 OA
ATOM      4  H   UNL     1       0.269   9.462  20.645  0.00  0.00    +0.000 HD
ENDROOT
BRANCH   2   5
ATOM      5  C   UNL     1       0.825  10.412  18.271  0.00  0.00    +0.000 C 
ATOM      6  C   UNL     1       1.538  11.728  18.511  0.00  0.00    +0.000 C 
ATOM      7  C   UNL     1       0.781  12.338  19.665  0.00  0.00    +0.000 C 
ATOM      8  O   UNL     1       1.226  13.275  20.315  0.00  0.00    +0.000 OA
ATOM      9  N   UNL     1      -0.427  11.636  19.816  0.00  0.00    +0.000 N 
ATOM     10  C   UNL     1      -0.574  10.623  18.794  0.00  0.00    +0.000 C 
BRANCH   9  11
ATOM     11  C   UNL     1      -1.476  11.950  20.723  0.00  0.00    +0.000 A 
ATOM     12  C   UNL     1      -1.366  11.654  22.079  0.00  0.00    +0.000 A 
ATOM     13  C   UNL     1      -2.362  12.024  22.989  0.00  0.00    +0.000 A 
ATOM     14  C   UNL     1      -3.523  12.695  22.582  0.00  0.00    +0.000 A 
ATOM     15  C   UNL     1      -3.658  12.943  21.207  0.00  0.00    +0.000 A 
ATOM     16  C   UNL     1      -2.650  12.588  20.298  0.00  0.00    +0.000 A 
BRANCH  14  17
ATOM     17  C   UNL     1      -4.577  13.181  23.589  0.00  0.00    +0.000 C 
ATOM     18  C   UNL     1      -4.400  14.669  23.973  0.00  0.00    +0.000 C 
ATOM     19  C   UNL     1      -5.983  13.028  22.972  0.00  0.00    +0.000 C 
ATOM     20  C   UNL     1      -4.509  12.360  24.891  0.00  0.00    +0.000 C 
ENDBRANCH  14  17
ENDBRANCH   9  11
ENDBRANCH   2   5
BRANCH   1  21
ATOM     21  C   UNL     1       1.626   7.887  21.031  0.00  0.00    +0.000 C 
BRANCH  21  22
ATOM     22  C   UNL     1       0.850   6.592  20.794  0.00  0.00    +0.000 C 
BRANCH  22  26
ATOM     23  C   UNL     1       3.403   3.271  19.755  0.00  0.00    +0.000 A 
ATOM     24  C   UNL     1       2.154   3.056  20.365  0.00  0.00    +0.000 A 
ATOM     25  C   UNL     1       1.326   4.124  20.708  0.00  0.00    +0.000 A 
ATOM     26  C   UNL     1       1.756   5.433  20.496  0.00  0.00    +0.000 A 
ATOM     27  C   UNL     1       3.042   5.648  19.994  0.00  0.00    +0.000 A 
ATOM     28  C   UNL     1       3.875   4.585  19.616  0.00  0.00    +0.000 A 
BRANCH  23  30
ATOM     29  C   UNL     1       3.537   1.391  18.322  0.00  0.00    +0.000 C 
ATOM     30  O   UNL     1       4.159   2.218  19.309  0.00  0.00    +0.000 OA
ENDBRANCH  23  30
BRANCH  28  31
ATOM     31  O   UNL     1       5.062   5.044  19.117  0.00  0.00    +0.000 OA
ATOM     32  C   UNL     1       5.111   5.612  17.822  0.00  0.00    +0.000 C 
ENDBRANCH  28  31
ENDBRANCH  22  26
ENDBRANCH  21  22
ENDBRANCH   1  21
TORSDOF 8
ENDMDL
MODEL 8
REMARK VINA RESULT:      -7.1      3.567      9.849
REMARK  Name = 
REMARK  13 active torsions:
REMARK  status: ('A' for Active; 'I' for Inactive)
REMARK    1  A    between atoms: C_1  and  O_2
REMARK    2  A    between atoms: O_2  and  C_3
REMARK    3  A    between atoms: C_6  and  C_7
REMARK    4  A    between atoms: C_7  and  C_8
REMARK    5  A    between atoms: C_8  and  N_9
REMARK    6  A    between atoms: C_10  and  C_12
REMARK    7  A    between atoms: N_16  and  C_17
REMARK    8  A    between atoms: C_20  and  C_21
REMARK    9  A    between atoms: C_21  and  C_22
REMARK   10  A    between atoms: C_21  and  C_23
REMARK   11  A    between atoms: C_21  and  C_24
REMARK   12  A    between atoms: C_29  and  O_30
REMARK   13  A    between atoms: O_30  and  C_31
REMARK                            x       y       z     vdW  Elec       q    Type
REMARK                         _______ _______ _______ _____ _____    ______ ____
ROOT
ATOM      1  N   UNL     1       1.143   8.825  20.217  0.00  0.00    +0.000 N 
ATOM      2  C   UNL     1       1.623   9.065  18.950  0.00  0.00    +0.000 C 
ATOM      3  O   UNL     1       2.496   8.388  18.422  0.00  0.00    +0.000 OA
ATOM      4  H   UNL     1       0.301   9.286  20.542  0.00  0.00    +0.000 HD
ENDROOT
BRANCH   2   5
ATOM      5  C   UNL     1       0.993  10.232  18.202  0.00  0.00    +0.000 C 
ATOM      6  C   UNL     1       1.794  11.512  18.327  0.00  0.00    +0.000 C 
ATOM      7  C   UNL     1       1.133  12.238  19.472  0.00  0.00    +0.000 C 
ATOM      8  O   UNL     1       1.664  13.183  20.041  0.00  0.00    +0.000 OA
ATOM      9  N   UNL     1      -0.107  11.623  19.722  0.00  0.00    +0.000 N 
ATOM     10  C   UNL     1      -0.364  10.561  18.773  0.00  0.00    +0.000 C 
BRANCH   9  11
ATOM     11  C   UNL     1      -1.089  12.057  20.653  0.00  0.00    +0.000 A 
ATOM     12  C   UNL     1      -2.099  12.937  20.274  0.00  0.00    +0.000 A 
ATOM     13  C   UNL     1      -3.110  13.313  21.166  0.00  0.00    +0.000 A 
ATOM     14  C   UNL     1      -3.150  12.837  22.482  0.00  0.00    +0.000 A 
ATOM     15  C   UNL     1      -2.101  11.995  22.880  0.00  0.00    +0.000 A 
ATOM     16  C   UNL     1      -1.097  11.603  21.980  0.00  0.00    +0.000 A 
BRANCH  14  17
ATOM     17  C   UNL     1      -4.306  13.178  23.436  0.00  0.00    +0.000 C 
ATOM     18  C   UNL     1      -5.696  12.997  22.783  0.00  0.00    +0.000 C 
ATOM     19  C   UNL     1      -4.248  12.244  24.664  0.00  0.00    +0.000 C 
ATOM     20  C   UNL     1      -4.210  14.639  23.913  0.00  0.00    +0.000 C 
ENDBRANCH  14  17
ENDBRANCH   9  11
ENDBRANCH   2   5
BRANCH   1  21
ATOM     21  C   UNL     1       1.639   7.719  21.013  0.00  0.00    +0.000 C 
BRANCH  21  22
ATOM     22  C   UNL     1       0.866   6.427  20.756  0.00  0.00    +0.000 C 
BRANCH  22  26
ATOM     23  C   UNL     1       3.415   3.043  19.927  0.00  0.00    +0.000 A 
ATOM     24  C   UNL     1       2.239   2.891  20.682  0.00  0.00    +0.000 A 
ATOM     25  C   UNL     1       1.413   3.979  20.958  0.00  0.00    +0.000 A 
ATOM     26  C   UNL     1       1.777   5.254  20.528  0.00  0.00    +0.000 A 
ATOM     27  C   UNL     1       3.001   5.424  19.876  0.00  0.00    +0.000 A 
ATOM     28  C   UNL     1       3.829   4.335  19.565  0.00  0.00    +0.000 A 
BRANCH  23  30
ATOM     29  C   UNL     1       3.757   1.325  18.334  0.00  0.00    +0.000 C 
ATOM     30  O   UNL     1       4.159   1.954  19.554  0.00  0.00    +0.000 OA
ENDBRANCH  23  30
BRANCH  28  31
ATOM     31  O   UNL     1       4.946   4.743  18.891  0.00  0.00    +0.000 OA
ATOM     32  C   UNL     1       4.878   5.000  17.501  0.00  0.00    +0.000 C 
ENDBRANCH  28  31
ENDBRANCH  22  26
ENDBRANCH  21  22
ENDBRANCH   1  21
TORSDOF 8
ENDMDL
MODEL 9
REMARK VINA RESULT:      -7.1      2.863     10.110
REMARK  Name = 
REMARK  13 active torsions:
REMARK  status: ('A' for Active; 'I' for Inactive)
REMARK    1  A    between atoms: C_1  and  O_2
REMARK    2  A    between atoms: O_2  and  C_3
REMARK    3  A    between atoms: C_6  and  C_7
REMARK    4  A    between atoms: C_7  and  C_8
REMARK    5  A    between atoms: C_8  and  N_9
REMARK    6  A    between atoms: C_10  and  C_12
REMARK    7  A    between atoms: N_16  and  C_17
REMARK    8  A    between atoms: C_20  and  C_21
REMARK    9  A    between atoms: C_21  and  C_22
REMARK   10  A    between atoms: C_21  and  C_23
REMARK   11  A    between atoms: C_21  and  C_24
REMARK   12  A    between atoms: C_29  and  O_30
REMARK   13  A    between atoms: O_30  and  C_31
REMARK                            x       y       z     vdW  Elec       q    Type
REMARK                         _______ _______ _______ _____ _____    ______ ____
ROOT
ATOM      1  N   UNL     1       1.775  10.061  18.434  0.00  0.00    +0.000 N 
ATOM      2  C   UNL     1       0.532  10.650  18.445  0.00  0.00    +0.000 C 
ATOM      3  O   UNL     1      -0.494  10.061  18.129  0.00  0.00    +0.000 OA
ATOM      4  H   UNL     1       2.564  10.520  18.874  0.00  0.00    +0.000 HD
ENDROOT
BRANCH   2   5
ATOM      5  C   UNL     1       0.480  12.103  18.895  0.00  0.00    +0.000 C 
ATOM      6  C   UNL     1       0.980  12.299  20.312  0.00  0.00    +0.000 C 
ATOM      7  C   UNL     1      -0.280  12.277  21.142  0.00  0.00    +0.000 C 
ATOM      8  O   UNL     1      -0.259  12.137  22.358  0.00  0.00    +0.000 OA
ATOM      9  N   UNL     1      -1.378  12.421  20.275  0.00  0.00    +0.000 N 
ATOM     10  C   UNL     1      -0.942  12.607  18.908  0.00  0.00    +0.000 C 
BRANCH   9  11
ATOM     11  C   UNL     1      -2.740  12.548  20.657  0.00  0.00    +0.000 A 
ATOM     12  C   UNL     1      -3.763  12.429  19.720  0.00  0.00    +0.000 A 
ATOM     13  C   UNL     1      -5.109  12.483  20.100  0.00  0.00    +0.000 A 
ATOM     14  C   UNL     1      -5.494  12.673  21.433  0.00  0.00    +0.000 A 
ATOM     15  C   UNL     1      -4.463  12.849  22.368  0.00  0.00    +0.000 A 
ATOM     16  C   UNL     1      -3.113  12.777  21.989  0.00  0.00    +0.000 A 
BRANCH  14  17
ATOM     17  C   UNL     1      -6.968  12.644  21.866  0.00  0.00    +0.000 C 
ATOM     18  C   UNL     1      -7.143  12.524  23.398  0.00  0.00    +0.000 C 
ATOM     19  C   UNL     1      -7.657  13.953  21.424  0.00  0.00    +0.000 C 
ATOM     20  C   UNL     1      -7.703  11.450  21.226  0.00  0.00    +0.000 C 
ENDBRANCH  14  17
ENDBRANCH   9  11
ENDBRANCH   2   5
BRANCH   1  21
ATOM     21  C   UNL     1       1.947   8.670  18.058  0.00  0.00    +0.000 C 
BRANCH  21  22
ATOM     22  C   UNL     1       2.136   7.762  19.272  0.00  0.00    +0.000 C 
BRANCH  22  26
ATOM     23  C   UNL     1       3.319   3.804  18.021  0.00  0.00    +0.000 A 
ATOM     24  C   UNL     1       2.487   3.986  19.139  0.00  0.00    +0.000 A 
ATOM     25  C   UNL     1       2.105   5.262  19.553  0.00  0.00    +0.000 A 
ATOM     26  C   UNL     1       2.593   6.384  18.885  0.00  0.00    +0.000 A 
ATOM     27  C   UNL     1       3.508   6.206  17.845  0.00  0.00    +0.000 A 
ATOM     28  C   UNL     1       3.879   4.929  17.398  0.00  0.00    +0.000 A 
BRANCH  23  30
ATOM     29  C   UNL     1       3.557   1.502  18.521  0.00  0.00    +0.000 C 
ATOM     30  O   UNL     1       3.593   2.548  17.546  0.00  0.00    +0.000 OA
ENDBRANCH  23  30
BRANCH  28  31
ATOM     31  O   UNL     1       4.749   5.010  16.347  0.00  0.00    +0.000 OA
ATOM     32  C   UNL     1       5.665   6.086  16.268  0.00  0.00    +0.000 C 
ENDBRANCH  28  31
ENDBRANCH  22  26
ENDBRANCH  21  22
ENDBRANCH   1  21
TORSDOF 8
ENDMDL
