MODEL 1
REMARK VINA RESULT:      -7.5      0.000      0.000
REMARK  Name = 
REMARK  7 active torsions:
REMARK  status: ('A' for Active; 'I' for Inactive)
REMARK    1  A    between atoms: C_1  and  O_2
REMARK    2  A    between atoms: O_2  and  C_3
REMARK    3  A    between atoms: C_3  and  C_4
REMARK    4  A    between atoms: C_4  and  N_5
REMARK    5  A    between atoms: C_11  and  C_12
REMARK    6  A    between atoms: N_17  and  C_18
REMARK    7  A    between atoms: C_18  and  C_19
REMARK                            x       y       z     vdW  Elec       q    Type
REMARK                         _______ _______ _______ _____ _____    ______ ____
ROOT
ATOM      1  N   UNL     1       4.433   5.273  17.869  0.00  0.00    +0.000 N 
ATOM      2  C   UNL     1       4.015   4.885  19.141  0.00  0.00    +0.000 A 
ATOM      3  S   UNL     1       4.485   3.514  19.989  0.00  0.00    +0.000 S 
ATOM      4  N   UNL     1       3.125   5.709  19.780  0.00  0.00    +0.000 N 
ATOM      5  C   UNL     1       2.699   6.934  19.275  0.00  0.00    +0.000 A 
ATOM      6  C   UNL     1       1.786   7.712  19.986  0.00  0.00    +0.000 A 
ATOM      7  C   UNL     1       1.415   8.967  19.482  0.00  0.00    +0.000 A 
ATOM      8  C   UNL     1       2.028   9.461  18.323  0.00  0.00    +0.000 A 
ATOM      9  C   UNL     1       2.884   8.654  17.586  0.00  0.00    +0.000 A 
ATOM     10  C   UNL     1       3.207   7.386  18.067  0.00  0.00    +0.000 A 
ATOM     11  C   UNL     1       4.106   6.510  17.302  0.00  0.00    +0.000 A 
ATOM     12  O   UNL     1       4.544   6.932  16.232  0.00  0.00    +0.000 OA
ATOM     13  H   UNL     1       2.803   5.404  20.694  0.00  0.00    +0.000 HD
ENDROOT
BRANCH   7  14
ATOM     14  C   UNL     1       0.413   9.784  20.215  0.00  0.00    +0.000 C 
ATOM     15  O   UNL     1       0.629  10.029  21.400  0.00  0.00    +0.000 OA
ATOM     16  N   UNL     1      -0.694  10.265  19.524  0.00  0.00    +0.000 N 
ATOM     17  C   UNL     1      -1.551  11.266  20.169  0.00  0.00    +0.000 C 
ATOM     18  C   UNL     1      -2.098  12.282  19.142  0.00  0.00    +0.000 C 
ATOM     19  N   UNL     1      -2.694  11.695  17.913  0.00  0.00    +0.000 NA
ATOM     20  C   UNL     1      -1.725  10.740  17.333  0.00  0.00    +0.000 C 
ATOM     21  C   UNL     1      -1.284   9.649  18.328  0.00  0.00    +0.000 C 
BRANCH  19  22
ATOM     22  C   UNL     1      -3.980  11.014  18.158  0.00  0.00    +0.000 C 
BRANCH  22  23
ATOM     23  C   UNL     1      -5.162  11.948  18.225  0.00  0.00    +0.000 A 
ATOM     24  C   UNL     1      -5.672  12.367  19.460  0.00  0.00    +0.000 A 
ATOM     25  C   UNL     1      -6.801  13.184  19.508  0.00  0.00    +0.000 A 
ATOM     26  C   UNL     1      -7.416  13.595  18.327  0.00  0.00    +0.000 A 
ATOM     27  C   UNL     1      -6.899  13.205  17.092  0.00  0.00    +0.000 A 
ATOM     28  C   UNL     1      -5.774  12.386  17.041  0.00  0.00    +0.000 A 
ENDBRANCH  22  23
ENDBRANCH  19  22
ENDBRANCH   7  14
BRANCH   1  29
ATOM     29  C   UNL     1       5.240   4.387  17.007  0.00  0.00    +0.000 C 
BRANCH  29  30
ATOM     30  C   UNL     1       6.752   4.560  17.216  0.00  0.00    +0.000 C 
BRANCH  30  32
ATOM     31  C   UNL     1       6.575   4.291  14.884  0.00  0.00    +0.000 C 
ATOM     32  O   UNL     1       7.423   4.672  15.959  0.00  0.00    +0.000 OA
ENDBRANCH  30  32
ENDBRANCH  29  30
ENDBRANCH   1  29
TORSDOF 6
ENDMDL
MODEL 2
REMARK VINA RESULT:      -7.3      1.602      2.294
REMARK  Name = 
REMARK  7 active torsions:
REMARK  status: ('A' for Active; 'I' for Inactive)
REMARK    1  A    between atoms: C_1  and  O_2
REMARK    2  A    between atoms: O_2  and  C_3
REMARK    3  A    between atoms: C_3  and  C_4
REMARK    4  A    between atoms: C_4  and  N_5
REMARK    5  A    between atoms: C_11  and  C_12
REMARK    6  A    between atoms: N_17  and  C_18
REMARK    7  A    between atoms: C_18  and  C_19
REMARK                            x       y       z     vdW  Elec       q    Type
REMARK                         _______ _______ _______ _____ _____    ______ ____
ROOT
ATOM      1  N   UNL     1       3.369   4.637  18.906  0.00  0.00    +0.000 N 
ATOM      2  C   UNL     1       2.824   4.655  20.189  0.00  0.00    +0.000 A 
ATOM      3  S   UNL     1       2.895   3.433  21.339  0.00  0.00    +0.000 S 
ATOM      4  N   UNL     1       2.158   5.793  20.566  0.00  0.00    +0.000 N 
ATOM      5  C   UNL     1       2.082   6.942  19.784  0.00  0.00    +0.000 A 
ATOM      6  C   UNL     1       1.379   8.059  20.237  0.00  0.00    +0.000 A 
ATOM      7  C   UNL     1       1.363   9.223  19.456  0.00  0.00    +0.000 A 
ATOM      8  C   UNL     1       2.122   9.282  18.278  0.00  0.00    +0.000 A 
ATOM      9  C   UNL     1       2.761   8.146  17.801  0.00  0.00    +0.000 A 
ATOM     10  C   UNL     1       2.728   6.977  18.558  0.00  0.00    +0.000 A 
ATOM     11  C   UNL     1       3.393   5.760  18.072  0.00  0.00    +0.000 A 
ATOM     12  O   UNL     1       3.961   5.813  16.980  0.00  0.00    +0.000 OA
ATOM     13  H   UNL     1       1.739   5.786  21.490  0.00  0.00    +0.000 HD
ENDROOT
BRANCH   7  14
ATOM     14  C   UNL     1       0.585  10.403  19.914  0.00  0.00    +0.000 C 
ATOM     15  O   UNL     1       1.102  11.141  20.749  0.00  0.00    +0.000 OA
ATOM     16  N   UNL     1      -0.665  10.640  19.354  0.00  0.00    +0.000 N 
ATOM     17  C   UNL     1      -1.328  11.923  19.616  0.00  0.00    +0.000 C 
ATOM     18  C   UNL     1      -2.127  12.404  18.384  0.00  0.00    +0.000 C 
ATOM     19  N   UNL     1      -3.021  11.392  17.764  0.00  0.00    +0.000 NA
ATOM     20  C   UNL     1      -2.234  10.166  17.508  0.00  0.00    +0.000 C 
ATOM     21  C   UNL     1      -1.545   9.617  18.772  0.00  0.00    +0.000 C 
BRANCH  19  22
ATOM     22  C   UNL     1      -4.196  11.067  18.594  0.00  0.00    +0.000 C 
BRANCH  22  23
ATOM     23  C   UNL     1      -5.407  11.914  18.297  0.00  0.00    +0.000 A 
ATOM     24  C   UNL     1      -5.618  12.434  17.014  0.00  0.00    +0.000 A 
ATOM     25  C   UNL     1      -6.712  13.263  16.767  0.00  0.00    +0.000 A 
ATOM     26  C   UNL     1      -7.603  13.566  17.794  0.00  0.00    +0.000 A 
ATOM     27  C   UNL     1      -7.416  13.032  19.069  0.00  0.00    +0.000 A 
ATOM     28  C   UNL     1      -6.324  12.206  19.319  0.00  0.00    +0.000 A 
ENDBRANCH  22  23
ENDBRANCH  19  22
ENDBRANCH   7  14
BRANCH   1  29
ATOM     29  C   UNL     1       3.946   3.412  18.320  0.00  0.00    +0.000 C 
BRANCH  29  30
ATOM     30  C   UNL     1       2.880   2.409  17.854  0.00  0.00    +0.000 C 
BRANCH  30  32
ATOM     31  C   UNL     1       0.655   2.325  18.615  0.00  0.00    +0.000 C 
ATOM     32  O   UNL     1       1.593   3.028  17.810  0.00  0.00    +0.000 OA
ENDBRANCH  30  32
ENDBRANCH  29  30
ENDBRANCH   1  29
TORSDOF 6
ENDMDL
MODEL 3
REMARK VINA RESULT:      -7.1      2.375      2.985
REMARK  Name = 
REMARK  7 active torsions:
REMARK  status: ('A' for Active; 'I' for Inactive)
REMARK    1  A    between atoms: C_1  and  O_2
REMARK    2  A    between atoms: O_2  and  C_3
REMARK    3  A    between atoms: C_3  and  C_4
REMARK    4  A    between atoms: C_4  and  N_5
REMARK    5  A    between atoms: C_11  and  C_12
REMARK    6  A    between atoms: N_17  and  C_18
REMARK    7  A    between atoms: C_18  and  C_19
REMARK                            x       y       z     vdW  Elec       q    Type
REMARK                         _______ _______ _______ _____ _____    ______ ____
ROOT
ATOM      1  N   UNL     1       3.632   4.474  19.071  0.00  0.00    +0.000 N 
ATOM      2  C   UNL     1       3.882   4.987  17.798  0.00  0.00    +0.000 A 
ATOM      3  S   UNL     1       4.605   4.191  16.509  0.00  0.00    +0.000 S 
ATOM      4  N   UNL     1       3.495   6.280  17.563  0.00  0.00    +0.000 N 
ATOM      5  C   UNL     1       2.795   7.061  18.478  0.00  0.00    +0.000 A 
ATOM      6  C   UNL     1       2.442   8.372  18.164  0.00  0.00    +0.000 A 
ATOM      7  C   UNL     1       1.690   9.120  19.081  0.00  0.00    +0.000 A 
ATOM      8  C   UNL     1       1.227   8.516  20.259  0.00  0.00    +0.000 A 
ATOM      9  C   UNL     1       1.640   7.234  20.595  0.00  0.00    +0.000 A 
ATOM     10  C   UNL     1       2.432   6.517  19.701  0.00  0.00    +0.000 A 
ATOM     11  C   UNL     1       2.886   5.160  20.036  0.00  0.00    +0.000 A 
ATOM     12  O   UNL     1       2.553   4.696  21.127  0.00  0.00    +0.000 OA
ATOM     13  H   UNL     1       3.708   6.655  16.644  0.00  0.00    +0.000 HD
ENDROOT
BRANCH   7  14
ATOM     14  C   UNL     1       1.343  10.530  18.769  0.00  0.00    +0.000 C 
ATOM     15  O   UNL     1       2.265  11.311  18.545  0.00  0.00    +0.000 OA
ATOM     16  N   UNL     1       0.002  10.893  18.706  0.00  0.00    +0.000 N 
ATOM     17  C   UNL     1      -0.352  12.209  18.163  0.00  0.00    +0.000 C 
ATOM     18  C   UNL     1      -1.674  12.152  17.366  0.00  0.00    +0.000 C 
ATOM     19  N   UNL     1      -2.805  11.469  18.050  0.00  0.00    +0.000 NA
ATOM     20  C   UNL     1      -2.341  10.143  18.511  0.00  0.00    +0.000 C 
ATOM     21  C   UNL     1      -1.095  10.221  19.415  0.00  0.00    +0.000 C 
BRANCH  19  22
ATOM     22  C   UNL     1      -3.343  12.235  19.190  0.00  0.00    +0.000 C 
BRANCH  22  23
ATOM     23  C   UNL     1      -4.824  12.055  19.402  0.00  0.00    +0.000 A 
ATOM     24  C   UNL     1      -5.407  12.331  20.646  0.00  0.00    +0.000 A 
ATOM     25  C   UNL     1      -6.768  12.105  20.845  0.00  0.00    +0.000 A 
ATOM     26  C   UNL     1      -7.554  11.616  19.804  0.00  0.00    +0.000 A 
ATOM     27  C   UNL     1      -6.989  11.363  18.555  0.00  0.00    +0.000 A 
ATOM     28  C   UNL     1      -5.629  11.585  18.353  0.00  0.00    +0.000 A 
ENDBRANCH  22  23
ENDBRANCH  19  22
ENDBRANCH   7  14
BRANCH   1  29
ATOM     29  C   UNL     1       4.162   3.167  19.505  0.00  0.00    +0.000 C 
BRANCH  29  30
ATOM     30  C   UNL     1       3.348   1.980  18.969  0.00  0.00    +0.000 C 
BRANCH  30  32
ATOM     31  C   UNL     1       1.026   2.237  18.679  0.00  0.00    +0.000 C 
ATOM     32  O   UNL     1       2.066   1.925  19.597  0.00  0.00    +0.000 OA
ENDBRANCH  30  32
ENDBRANCH  29  30
ENDBRANCH   1  29
TORSDOF 6
ENDMDL
MODEL 4
REMARK VINA RESULT:      -7.0      3.352      4.419
REMARK  Name = 
REMARK  7 active torsions:
REMARK  status: ('A' for Active; 'I' for Inactive)
REMARK    1  A    between atoms: C_1  and  O_2
REMARK    2  A    between atoms: O_2  and  C_3
REMARK    3  A    between atoms: C_3  and  C_4
REMARK    4  A    between atoms: C_4  and  N_5
REMARK    5  A    between atoms: C_11  and  C_12
REMARK    6  A    between atoms: N_17  and  C_18
REMARK    7  A    between atoms: C_18  and  C_19
REMARK                            x       y       z     vdW  Elec       q    Type
REMARK                         _______ _______ _______ _____ _____    ______ ____
ROOT
ATOM      1  N   UNL     1       3.361   3.247  19.568  0.00  0.00    +0.000 N 
ATOM      2  C   UNL     1       2.454   3.693  20.528  0.00  0.00    +0.000 A 
ATOM      3  S   UNL     1       1.864   2.832  21.844  0.00  0.00    +0.000 S 
ATOM      4  N   UNL     1       1.989   4.976  20.395  0.00  0.00    +0.000 N 
ATOM      5  C   UNL     1       2.438   5.868  19.427  0.00  0.00    +0.000 A 
ATOM      6  C   UNL     1       1.910   7.156  19.354  0.00  0.00    +0.000 A 
ATOM      7  C   UNL     1       2.418   8.054  18.404  0.00  0.00    +0.000 A 
ATOM      8  C   UNL     1       3.505   7.679  17.602  0.00  0.00    +0.000 A 
ATOM      9  C   UNL     1       3.979   6.375  17.634  0.00  0.00    +0.000 A 
ATOM     10  C   UNL     1       3.432   5.473  18.544  0.00  0.00    +0.000 A 
ATOM     11  C   UNL     1       3.913   4.085  18.593  0.00  0.00    +0.000 A 
ATOM     12  O   UNL     1       4.796   3.755  17.800  0.00  0.00    +0.000 OA
ATOM     13  H   UNL     1       1.306   5.282  21.081  0.00  0.00    +0.000 HD
ENDROOT
BRANCH   7  14
ATOM     14  C   UNL     1       1.833   9.416  18.296  0.00  0.00    +0.000 C 
ATOM     15  O   UNL     1       2.041  10.048  17.263  0.00  0.00    +0.000 OA
ATOM     16  N   UNL     1       1.051   9.895  19.341  0.00  0.00    +0.000 N 
ATOM     17  C   UNL     1       0.276  11.124  19.141  0.00  0.00    +0.000 C 
ATOM     18  C   UNL     1      -1.078  11.062  19.882  0.00  0.00    +0.000 C 
ATOM     19  N   UNL     1      -1.012  10.627  21.302  0.00  0.00    +0.000 NA
ATOM     20  C   UNL     1      -0.248   9.363  21.371  0.00  0.00    +0.000 C 
ATOM     21  C   UNL     1       1.155   9.471  20.744  0.00  0.00    +0.000 C 
BRANCH  19  22
ATOM     22  C   UNL     1      -0.396  11.632  22.190  0.00  0.00    +0.000 C 
BRANCH  22  23
ATOM     23  C   UNL     1      -1.393  12.494  22.922  0.00  0.00    +0.000 A 
ATOM     24  C   UNL     1      -2.618  11.965  23.347  0.00  0.00    +0.000 A 
ATOM     25  C   UNL     1      -3.554  12.789  23.972  0.00  0.00    +0.000 A 
ATOM     26  C   UNL     1      -3.267  14.135  24.186  0.00  0.00    +0.000 A 
ATOM     27  C   UNL     1      -2.039  14.664  23.790  0.00  0.00    +0.000 A 
ATOM     28  C   UNL     1      -1.103  13.846  23.163  0.00  0.00    +0.000 A 
ENDBRANCH  22  23
ENDBRANCH  19  22
ENDBRANCH   7  14
BRANCH   1  29
ATOM     29  C   UNL     1       3.791   1.837  19.495  0.00  0.00    +0.000 C 
BRANCH  29  30
ATOM     30  C   UNL     1       5.165   1.593  20.138  0.00  0.00    +0.000 C 
BRANCH  30  32
ATOM     31  C   UNL     1       5.938   0.394  22.010  0.00  0.00    +0.000 C 
ATOM     32  O   UNL     1       5.030   1.385  21.546  0.00  0.00    +0.000 OA
ENDBRANCH  30  32
ENDBRANCH  29  30
ENDBRANCH   1  29
TORSDOF 6
ENDMDL
MODEL 5
REMARK VINA RESULT:      -6.8      2.942      3.867
REMARK  Name = 
REMARK  7 active torsions:
REMARK  status: ('A' for Active; 'I' for Inactive)
REMARK    1  A    between atoms: C_1  and  O_2
REMARK    2  A    between atoms: O_2  and  C_3
REMARK    3  A    between atoms: C_3  and  C_4
REMARK    4  A    between atoms: C_4  and  N_5
REMARK    5  A    between atoms: C_11  and  C_12
REMARK    6  A    between atoms: N_17  and  C_18
REMARK    7  A    between atoms: C_18  and  C_19
REMARK                            x       y       z     vdW  Elec       q    Type
REMARK                         _______ _______ _______ _____ _____    ______ ____
ROOT
ATOM      1  N   UNL     1       3.637   4.514  19.007  0.00  0.00    +0.000 N 
ATOM      2  C   UNL     1       3.965   4.999  17.741  0.00  0.00    +0.000 A 
ATOM      3  S   UNL     1       4.703   4.155  16.491  0.00  0.00    +0.000 S 
ATOM      4  N   UNL     1       3.649   6.306  17.477  0.00  0.00    +0.000 N 
ATOM      5  C   UNL     1       2.949   7.129  18.354  0.00  0.00    +0.000 A 
ATOM      6  C   UNL     1       2.671   8.452  18.012  0.00  0.00    +0.000 A 
ATOM      7  C   UNL     1       1.917   9.245  18.890  0.00  0.00    +0.000 A 
ATOM      8  C   UNL     1       1.378   8.677  20.052  0.00  0.00    +0.000 A 
ATOM      9  C   UNL     1       1.715   7.381  20.418  0.00  0.00    +0.000 A 
ATOM     10  C   UNL     1       2.510   6.617  19.566  0.00  0.00    +0.000 A 
ATOM     11  C   UNL     1       2.885   5.245  19.933  0.00  0.00    +0.000 A 
ATOM     12  O   UNL     1       2.485   4.810  21.014  0.00  0.00    +0.000 OA
ATOM     13  H   UNL     1       3.917   6.660  16.564  0.00  0.00    +0.000 HD
ENDROOT
BRANCH   7  14
ATOM     14  C   UNL     1       1.650  10.666  18.549  0.00  0.00    +0.000 C 
ATOM     15  O   UNL     1       2.456  11.242  17.821  0.00  0.00    +0.000 OA
ATOM     16  N   UNL     1       0.492  11.265  19.032  0.00  0.00    +0.000 N 
ATOM     17  C   UNL     1       0.100  12.577  18.505  0.00  0.00    +0.000 C 
ATOM     18  C   UNL     1      -1.436  12.704  18.398  0.00  0.00    +0.000 C 
ATOM     19  N   UNL     1      -2.199  12.299  19.608  0.00  0.00    +0.000 NA
ATOM     20  C   UNL     1      -1.749  10.950  20.016  0.00  0.00    +0.000 C 
ATOM     21  C   UNL     1      -0.229  10.866  20.249  0.00  0.00    +0.000 C 
BRANCH  19  22
ATOM     22  C   UNL     1      -2.043  13.239  20.735  0.00  0.00    +0.000 C 
BRANCH  22  23
ATOM     23  C   UNL     1      -3.108  13.106  21.793  0.00  0.00    +0.000 A 
ATOM     24  C   UNL     1      -4.407  13.578  21.564  0.00  0.00    +0.000 A 
ATOM     25  C   UNL     1      -5.366  13.500  22.573  0.00  0.00    +0.000 A 
ATOM     26  C   UNL     1      -5.038  12.940  23.806  0.00  0.00    +0.000 A 
ATOM     27  C   UNL     1      -3.756  12.444  24.035  0.00  0.00    +0.000 A 
ATOM     28  C   UNL     1      -2.794  12.523  23.031  0.00  0.00    +0.000 A 
ENDBRANCH  22  23
ENDBRANCH  19  22
ENDBRANCH   7  14
BRANCH   1  29
ATOM     29  C   UNL     1       4.087   3.188  19.476  0.00  0.00    +0.000 C 
BRANCH  29  30
ATOM     30  C   UNL     1       3.269   2.032  18.882  0.00  0.00    +0.000 C 
BRANCH  30  32
ATOM     31  C   UNL     1       0.933   2.272  18.726  0.00  0.00    +0.000 C 
ATOM     32  O   UNL     1       2.020   1.897  19.563  0.00  0.00    +0.000 OA
ENDBRANCH  30  32
ENDBRANCH  29  30
ENDBRANCH   1  29
TORSDOF 6
ENDMDL
MODEL 6
REMARK VINA RESULT:      -6.7      3.409      4.510
REMARK  Name = 
REMARK  7 active torsions:
REMARK  status: ('A' for Active; 'I' for Inactive)
REMARK    1  A    between atoms: C_1  and  O_2
REMARK    2  A    between atoms: O_2  and  C_3
REMARK    3  A    between atoms: C_3  and  C_4
REMARK    4  A    between atoms: C_4  and  N_5
REMARK    5  A    between atoms: C_11  and  C_12
REMARK    6  A    between atoms: N_17  and  C_18
REMARK    7  A    between atoms: C_18  and  C_19
REMARK                            x       y       z     vdW  Elec       q    Type
REMARK                         _______ _______ _______ _____ _____    ______ ____
ROOT
ATOM      1  N   UNL     1       3.709   4.416  19.031  0.00  0.00    +0.000 N 
ATOM      2  C   UNL     1       4.034   4.899  17.764  0.00  0.00    +0.000 A 
ATOM      3  S   UNL     1       4.794   4.061  16.523  0.00  0.00    +0.000 S 
ATOM      4  N   UNL     1       3.696   6.199  17.489  0.00  0.00    +0.000 N 
ATOM      5  C   UNL     1       2.976   7.014  18.358  0.00  0.00    +0.000 A 
ATOM      6  C   UNL     1       2.677   8.330  18.006  0.00  0.00    +0.000 A 
ATOM      7  C   UNL     1       1.904   9.114  18.874  0.00  0.00    +0.000 A 
ATOM      8  C   UNL     1       1.368   8.543  20.038  0.00  0.00    +0.000 A 
ATOM      9  C   UNL     1       1.727   7.256  20.414  0.00  0.00    +0.000 A 
ATOM     10  C   UNL     1       2.540   6.501  19.570  0.00  0.00    +0.000 A 
ATOM     11  C   UNL     1       2.938   5.138  19.948  0.00  0.00    +0.000 A 
ATOM     12  O   UNL     1       2.540   4.703  21.029  0.00  0.00    +0.000 OA
ATOM     13  H   UNL     1       3.963   6.552  16.576  0.00  0.00    +0.000 HD
ENDROOT
BRANCH   7  14
ATOM     14  C   UNL     1       1.613  10.528  18.524  0.00  0.00    +0.000 C 
ATOM     15  O   UNL     1       2.093  10.970  17.483  0.00  0.00    +0.000 OA
ATOM     16  N   UNL     1       0.786  11.270  19.360  0.00  0.00    +0.000 N 
ATOM     17  C   UNL     1       0.300  12.575  18.900  0.00  0.00    +0.000 C 
ATOM     18  C   UNL     1      -1.139  12.845  19.394  0.00  0.00    +0.000 C 
ATOM     19  N   UNL     1      -1.376  12.601  20.841  0.00  0.00    +0.000 NA
ATOM     20  C   UNL     1      -0.887  11.245  21.174  0.00  0.00    +0.000 C 
ATOM     21  C   UNL     1       0.591  11.028  20.796  0.00  0.00    +0.000 C 
BRANCH  19  22
ATOM     22  C   UNL     1      -0.723  13.596  21.713  0.00  0.00    +0.000 C 
BRANCH  22  23
ATOM     23  C   UNL     1      -1.599  14.095  22.833  0.00  0.00    +0.000 A 
ATOM     24  C   UNL     1      -1.038  14.718  23.956  0.00  0.00    +0.000 A 
ATOM     25  C   UNL     1      -1.855  15.123  25.011  0.00  0.00    +0.000 A 
ATOM     26  C   UNL     1      -3.233  14.921  24.944  0.00  0.00    +0.000 A 
ATOM     27  C   UNL     1      -3.803  14.326  23.820  0.00  0.00    +0.000 A 
ATOM     28  C   UNL     1      -2.989  13.917  22.766  0.00  0.00    +0.000 A 
ENDBRANCH  22  23
ENDBRANCH  19  22
ENDBRANCH   7  14
BRANCH   1  29
ATOM     29  C   UNL     1       4.179   3.102  19.510  0.00  0.00    +0.000 C 
BRANCH  29  30
ATOM     30  C   UNL     1       3.326   1.933  18.995  0.00  0.00    +0.000 C 
BRANCH  30  32
ATOM     31  C   UNL     1       1.009   2.251  18.732  0.00  0.00    +0.000 C 
ATOM     32  O   UNL     1       2.051   1.918  19.640  0.00  0.00    +0.000 OA
ENDBRANCH  30  32
ENDBRANCH  29  30
ENDBRANCH   1  29
TORSDOF 6
ENDMDL
MODEL 7
REMARK VINA RESULT:      -6.7      3.131      3.510
REMARK  Name = 
REMARK  7 active torsions:
REMARK  status: ('A' for Active; 'I' for Inactive)
REMARK    1  A    between atoms: C_1  and  O_2
REMARK    2  A    between atoms: O_2  and  C_3
REMARK    3  A    between atoms: C_3  and  C_4
REMARK    4  A    between atoms: C_4  and  N_5
REMARK    5  A    between atoms: C_11  and  C_12
REMARK    6  A    between atoms: N_17  and  C_18
REMARK    7  A    between atoms: C_18  and  C_19
REMARK                            x       y       z     vdW  Elec       q    Type
REMARK                         _______ _______ _______ _____ _____    ______ ____
ROOT
ATOM      1  N   UNL     1       4.543   5.029  17.555  0.00  0.00    +0.000 N 
ATOM      2  C   UNL     1       4.159   4.540  18.803  0.00  0.00    +0.000 A 
ATOM      3  S   UNL     1       4.641   3.100  19.520  0.00  0.00    +0.000 S 
ATOM      4  N   UNL     1       3.296   5.313  19.535  0.00  0.00    +0.000 N 
ATOM      5  C   UNL     1       2.867   6.579  19.146  0.00  0.00    +0.000 A 
ATOM      6  C   UNL     1       1.982   7.301  19.945  0.00  0.00    +0.000 A 
ATOM      7  C   UNL     1       1.608   8.596  19.558  0.00  0.00    +0.000 A 
ATOM      8  C   UNL     1       2.192   9.181  18.426  0.00  0.00    +0.000 A 
ATOM      9  C   UNL     1       3.018   8.432  17.600  0.00  0.00    +0.000 A 
ATOM     10  C   UNL     1       3.343   7.127  17.964  0.00  0.00    +0.000 A 
ATOM     11  C   UNL     1       4.211   6.311  17.103  0.00  0.00    +0.000 A 
ATOM     12  O   UNL     1       4.623   6.817  16.059  0.00  0.00    +0.000 OA
ATOM     13  H   UNL     1       2.997   4.936  20.428  0.00  0.00    +0.000 HD
ENDROOT
BRANCH   7  14
ATOM     14  C   UNL     1       0.635   9.357  20.385  0.00  0.00    +0.000 C 
ATOM     15  O   UNL     1       0.002   8.739  21.239  0.00  0.00    +0.000 OA
ATOM     16  N   UNL     1       0.514  10.728  20.187  0.00  0.00    +0.000 N 
ATOM     17  C   UNL     1      -0.254  11.519  21.154  0.00  0.00    +0.000 C 
ATOM     18  C   UNL     1       0.368  12.919  21.356  0.00  0.00    +0.000 C 
ATOM     19  N   UNL     1       0.694  13.660  20.109  0.00  0.00    +0.000 NA
ATOM     20  C   UNL     1       1.503  12.780  19.238  0.00  0.00    +0.000 C 
ATOM     21  C   UNL     1       0.815  11.436  18.935  0.00  0.00    +0.000 C 
BRANCH  19  22
ATOM     22  C   UNL     1      -0.500  14.125  19.380  0.00  0.00    +0.000 C 
BRANCH  22  23
ATOM     23  C   UNL     1      -0.713  15.616  19.442  0.00  0.00    +0.000 A 
ATOM     24  C   UNL     1      -1.253  16.214  20.587  0.00  0.00    +0.000 A 
ATOM     25  C   UNL     1      -1.497  17.587  20.610  0.00  0.00    +0.000 A 
ATOM     26  C   UNL     1      -1.193  18.368  19.497  0.00  0.00    +0.000 A 
ATOM     27  C   UNL     1      -0.631  17.786  18.361  0.00  0.00    +0.000 A 
ATOM     28  C   UNL     1      -0.388  16.415  18.334  0.00  0.00    +0.000 A 
ENDBRANCH  22  23
ENDBRANCH  19  22
ENDBRANCH   7  14
BRANCH   1  29
ATOM     29  C   UNL     1       5.317   4.213  16.600  0.00  0.00    +0.000 C 
BRANCH  29  30
ATOM     30  C   UNL     1       6.834   4.419  16.722  0.00  0.00    +0.000 C 
BRANCH  30  32
ATOM     31  C   UNL     1       6.565   4.383  14.384  0.00  0.00    +0.000 C 
ATOM     32  O   UNL     1       7.393   4.799  15.463  0.00  0.00    +0.000 OA
ENDBRANCH  30  32
ENDBRANCH  29  30
ENDBRANCH   1  29
TORSDOF 6
ENDMDL
MODEL 8
REMARK VINA RESULT:      -6.7      3.625      4.463
REMARK  Name = 
REMARK  7 active torsions:
REMARK  status: ('A' for Active; 'I' for Inactive)
REMARK    1  A    between atoms: C_1  and  O_2
REMARK    2  A    between atoms: O_2  and  C_3
REMARK    3  A    between atoms: C_3  and  C_4
REMARK    4  A    between atoms: C_4  and  N_5
REMARK    5  A    between atoms: C_11  and  C_12
REMARK    6  A    between atoms: N_17  and  C_18
REMARK    7  A    between atoms: C_18  and  C_19
REMARK                            x       y       z     vdW  Elec       q    Type
REMARK                         _______ _______ _______ _____ _____    ______ ____
ROOT
ATOM      1  N   UNL     1       2.979   4.798  19.073  0.00  0.00    +0.000 N 
ATOM      2  C   UNL     1       2.542   4.609  20.383  0.00  0.00    +0.000 A 
ATOM      3  S   UNL     1       2.733   3.235  21.329  0.00  0.00    +0.000 S 
ATOM      4  N   UNL     1       1.888   5.658  20.976  0.00  0.00    +0.000 N 
ATOM      5  C   UNL     1       1.724   6.906  20.384  0.00  0.00    +0.000 A 
ATOM      6  C   UNL     1       1.039   7.921  21.051  0.00  0.00    +0.000 A 
ATOM      7  C   UNL     1       0.935   9.186  20.456  0.00  0.00    +0.000 A 
ATOM      8  C   UNL     1       1.591   9.442  19.244  0.00  0.00    +0.000 A 
ATOM      9  C   UNL     1       2.211   8.410  18.554  0.00  0.00    +0.000 A 
ATOM     10  C   UNL     1       2.264   7.141  19.128  0.00  0.00    +0.000 A 
ATOM     11  C   UNL     1       2.911   6.031  18.415  0.00  0.00    +0.000 A 
ATOM     12  O   UNL     1       3.384   6.261  17.302  0.00  0.00    +0.000 OA
ATOM     13  H   UNL     1       1.547   5.502  21.920  0.00  0.00    +0.000 HD
ENDROOT
BRANCH   7  14
ATOM     14  C   UNL     1       0.174  10.261  21.145  0.00  0.00    +0.000 C 
ATOM     15  O   UNL     1      -0.515   9.945  22.112  0.00  0.00    +0.000 OA
ATOM     16  N   UNL     1       0.306  11.570  20.695  0.00  0.00    +0.000 N 
ATOM     17  C   UNL     1      -0.241  12.659  21.512  0.00  0.00    +0.000 C 
ATOM     18  C   UNL     1       0.647  13.920  21.434  0.00  0.00    +0.000 C 
ATOM     19  N   UNL     1       1.038  14.346  20.064  0.00  0.00    +0.000 NA
ATOM     20  C   UNL     1       1.613  13.180  19.357  0.00  0.00    +0.000 C 
ATOM     21  C   UNL     1       0.664  11.966  19.326  0.00  0.00    +0.000 C 
BRANCH  19  22
ATOM     22  C   UNL     1      -0.086  14.899  19.284  0.00  0.00    +0.000 C 
BRANCH  22  23
ATOM     23  C   UNL     1       0.259  16.151  18.519  0.00  0.00    +0.000 A 
ATOM     24  C   UNL     1       1.590  16.454  18.207  0.00  0.00    +0.000 A 
ATOM     25  C   UNL     1       1.900  17.644  17.549  0.00  0.00    +0.000 A 
ATOM     26  C   UNL     1       0.884  18.527  17.190  0.00  0.00    +0.000 A 
ATOM     27  C   UNL     1      -0.446  18.223  17.474  0.00  0.00    +0.000 A 
ATOM     28  C   UNL     1      -0.759  17.037  18.133  0.00  0.00    +0.000 A 
ENDBRANCH  22  23
ENDBRANCH  19  22
ENDBRANCH   7  14
BRANCH   1  29
ATOM     29  C   UNL     1       3.529   3.691  18.266  0.00  0.00    +0.000 C 
BRANCH  29  30
ATOM     30  C   UNL     1       5.053   3.774  18.090  0.00  0.00    +0.000 C 
BRANCH  30  32
ATOM     31  C   UNL     1       6.521   5.273  19.156  0.00  0.00    +0.000 C 
ATOM     32  O   UNL     1       5.681   4.138  19.321  0.00  0.00    +0.000 OA
ENDBRANCH  30  32
ENDBRANCH  29  30
ENDBRANCH   1  29
TORSDOF 6
ENDMDL
MODEL 9
REMARK VINA RESULT:      -6.7      6.758     10.861
REMARK  Name = 
REMARK  7 active torsions:
REMARK  status: ('A' for Active; 'I' for Inactive)
REMARK    1  A    between atoms: C_1  and  O_2
REMARK    2  A    between atoms: O_2  and  C_3
REMARK    3  A    between atoms: C_3  and  C_4
REMARK    4  A    between atoms: C_4  and  N_5
REMARK    5  A    between atoms: C_11  and  C_12
REMARK    6  A    between atoms: N_17  and  C_18
REMARK    7  A    between atoms: C_18  and  C_19
REMARK                            x       y       z     vdW  Elec       q    Type
REMARK                         _______ _______ _______ _____ _____    ______ ____
ROOT
ATOM      1  N   UNL     1       0.816  11.031  20.079  0.00  0.00    +0.000 N 
ATOM      2  C   UNL     1       1.347  10.858  18.801  0.00  0.00    +0.000 A 
ATOM      3  S   UNL     1       1.074   9.575  17.754  0.00  0.00    +0.000 S 
ATOM      4  N   UNL     1       2.182  11.842  18.338  0.00  0.00    +0.000 N 
ATOM      5  C   UNL     1       2.447  13.024  19.025  0.00  0.00    +0.000 A 
ATOM      6  C   UNL     1       3.314  13.974  18.488  0.00  0.00    +0.000 A 
ATOM      7  C   UNL     1       3.521  15.180  19.172  0.00  0.00    +0.000 A 
ATOM      8  C   UNL     1       2.791  15.454  20.337  0.00  0.00    +0.000 A 
ATOM      9  C   UNL     1       1.982  14.476  20.901  0.00  0.00    +0.000 A 
ATOM     10  C   UNL     1       1.823  13.259  20.241  0.00  0.00    +0.000 A 
ATOM     11  C   UNL     1       0.977  12.207  20.820  0.00  0.00    +0.000 A 
ATOM     12  O   UNL     1       0.434  12.437  21.901  0.00  0.00    +0.000 OA
ATOM     13  H   UNL     1       2.589  11.694  17.420  0.00  0.00    +0.000 HD
ENDROOT
BRANCH   7  14
ATOM     14  C   UNL     1       4.473  16.180  18.625  0.00  0.00    +0.000 C 
ATOM     15  O   UNL     1       4.006  17.193  18.108  0.00  0.00    +0.000 OA
ATOM     16  N   UNL     1       5.838  15.949  18.755  0.00  0.00    +0.000 N 
ATOM     17  C   UNL     1       6.774  17.033  18.442  0.00  0.00    +0.000 C 
ATOM     18  C   UNL     1       8.001  17.006  19.381  0.00  0.00    +0.000 C 
ATOM     19  N   UNL     1       8.659  15.682  19.537  0.00  0.00    +0.000 NA
ATOM     20  C   UNL     1       7.626  14.685  19.893  0.00  0.00    +0.000 C 
ATOM     21  C   UNL     1       6.468  14.627  18.879  0.00  0.00    +0.000 C 
BRANCH  19  22
ATOM     22  C   UNL     1       9.380  15.244  18.327  0.00  0.00    +0.000 C 
BRANCH  22  23
ATOM     23  C   UNL     1      10.189  13.987  18.519  0.00  0.00    +0.000 A 
ATOM     24  C   UNL     1       9.993  12.877  17.687  0.00  0.00    +0.000 A 
ATOM     25  C   UNL     1      10.707  11.701  17.911  0.00  0.00    +0.000 A 
ATOM     26  C   UNL     1      11.626  11.632  18.957  0.00  0.00    +0.000 A 
ATOM     27  C   UNL     1      11.847  12.739  19.774  0.00  0.00    +0.000 A 
ATOM     28  C   UNL     1      11.133  13.914  19.554  0.00  0.00    +0.000 A 
ENDBRANCH  22  23
ENDBRANCH  19  22
ENDBRANCH   7  14
BRANCH   1  29
ATOM     29  C   UNL     1       0.056   9.964  20.760  0.00  0.00    +0.000 C 
BRANCH  29  30
ATOM     30  C   UNL     1       0.949   9.015  21.572  0.00  0.00    +0.000 C 
BRANCH  30  32
ATOM     31  C   UNL     1       1.939   7.178  20.484  0.00  0.00    +0.000 C 
ATOM     32  O   UNL     1       0.774   7.665  21.137  0.00  0.00    +0.000 OA
ENDBRANCH  30  32
ENDBRANCH  29  30
ENDBRANCH   1  29
TORSDOF 6
ENDMDL
