MODEL 1
REMARK VINA RESULT:      -7.5      0.000      0.000
REMARK  Name = 
REMARK  11 active torsions:
REMARK  status: ('A' for Active; 'I' for Inactive)
REMARK    1  A    between atoms: C_1  and  C_2
REMARK    2  A    between atoms: C_2  and  N_3
REMARK    3  A    between atoms: N_3  and  C_4
REMARK    4  A    between atoms: N_3  and  C_6
REMARK    5  A    between atoms: C_4  and  C_5
REMARK    6  A    between atoms: C_9  and  C_10
REMARK    7  A    between atoms: C_11  and  C_12
REMARK    8  A    between atoms: C_11  and  C_14
REMARK    9  A    between atoms: C_18  and  C_19
REMARK   10  A    between atoms: C_19  and  O_21
REMARK   11  A    between atoms: O_21  and  C_22
REMARK                            x       y       z     vdW  Elec       q    Type
REMARK                         _______ _______ _______ _____ _____    ______ ____
ROOT
ATOM      1  C   UNL     1       1.302   9.064  17.968  0.00  0.00    +0.000 C 
ATOM      2  C   UNL     1       1.973   8.246  18.830  0.00  0.00    +0.000 C 
ENDROOT
BRANCH   2   3
ATOM      3  C   UNL     1       3.015   7.383  18.337  0.00  0.00    +0.000 A 
ATOM      4  N   UNL     1       3.868   7.619  17.373  0.00  0.00    +0.000 NA
ATOM      5  C   UNL     1       4.399   6.411  17.026  0.00  0.00    +0.000 A 
ATOM      6  C   UNL     1       5.233   6.142  15.953  0.00  0.00    +0.000 A 
ATOM      7  C   UNL     1       5.648   4.835  15.692  0.00  0.00    +0.000 A 
ATOM      8  C   UNL     1       5.212   3.793  16.528  0.00  0.00    +0.000 A 
ATOM      9  C   UNL     1       4.367   4.049  17.643  0.00  0.00    +0.000 A 
ATOM     10  C   UNL     1       3.975   5.387  17.859  0.00  0.00    +0.000 A 
ATOM     11  N   UNL     1       3.168   6.054  18.771  0.00  0.00    +0.000 N 
ATOM     12  H   UNL     1       2.701   5.625  19.561  0.00  0.00    +0.000 HD
BRANCH   7  13
ATOM     13  C   UNL     1       6.543   4.721  14.506  0.00  0.00    +0.000 C 
ATOM     14  O   UNL     1       7.479   5.494  14.339  0.00  0.00    +0.000 OA
BRANCH  13  15
ATOM     15  O   UNL     1       6.233   3.707  13.664  0.00  0.00    +0.000 OA
ATOM     16  C   UNL     1       6.724   3.967  12.340  0.00  0.00    +0.000 C 
ENDBRANCH  13  15
ENDBRANCH   7  13
ENDBRANCH   2   3
BRANCH   1  20
ATOM     17  C   UNL     1      -2.305  11.458  18.769  0.00  0.00    +0.000 A 
ATOM     18  C   UNL     1      -1.086  11.699  19.422  0.00  0.00    +0.000 A 
ATOM     19  C   UNL     1       0.079  10.934  19.163  0.00  0.00    +0.000 A 
ATOM     20  C   UNL     1       0.073   9.885  18.235  0.00  0.00    +0.000 A 
ATOM     21  C   UNL     1      -1.116   9.716  17.511  0.00  0.00    +0.000 A 
ATOM     22  C   UNL     1      -2.281  10.461  17.791  0.00  0.00    +0.000 A 
BRANCH  17  23
ATOM     23  N   UNL     1      -3.485  12.183  19.034  0.00  0.00    +0.000 N 
BRANCH  23  25
ATOM     24  C   UNL     1      -4.417  12.712  21.363  0.00  0.00    +0.000 C 
ATOM     25  C   UNL     1      -3.461  13.058  20.225  0.00  0.00    +0.000 C 
ENDBRANCH  23  25
BRANCH  23  26
ATOM     26  C   UNL     1      -4.746  11.550  18.574  0.00  0.00    +0.000 C 
ATOM     27  C   UNL     1      -5.522  12.320  17.501  0.00  0.00    +0.000 C 
ENDBRANCH  23  26
ENDBRANCH  17  23
ENDBRANCH   1  20
BRANCH   2  28
ATOM     28  C   UNL     1       1.605   8.145  20.187  0.00  0.00    +0.000 C 
ATOM     29  N   UNL     1       1.217   8.026  21.285  0.00  0.00    +0.000 NA
ENDBRANCH   2  28
TORSDOF 8
ENDMDL
MODEL 2
REMARK VINA RESULT:      -7.3      0.417      1.234
REMARK  Name = 
REMARK  11 active torsions:
REMARK  status: ('A' for Active; 'I' for Inactive)
REMARK    1  A    between atoms: C_1  and  C_2
REMARK    2  A    between atoms: C_2  and  N_3
REMARK    3  A    between atoms: N_3  and  C_4
REMARK    4  A    between atoms: N_3  and  C_6
REMARK    5  A    between atoms: C_4  and  C_5
REMARK    6  A    between atoms: C_9  and  C_10
REMARK    7  A    between atoms: C_11  and  C_12
REMARK    8  A    between atoms: C_11  and  C_14
REMARK    9  A    between atoms: C_18  and  C_19
REMARK   10  A    between atoms: C_19  and  O_21
REMARK   11  A    between atoms: O_21  and  C_22
REMARK                            x       y       z     vdW  Elec       q    Type
REMARK                         _______ _______ _______ _____ _____    ______ ____
ROOT
ATOM      1  C   UNL     1       1.466   8.982  17.963  0.00  0.00    +0.000 C 
ATOM      2  C   UNL     1       2.108   8.084  18.764  0.00  0.00    +0.000 C 
ENDROOT
BRANCH   2   3
ATOM      3  C   UNL     1       3.177   7.281  18.229  0.00  0.00    +0.000 A 
ATOM      4  N   UNL     1       3.946   7.542  17.202  0.00  0.00    +0.000 NA
ATOM      5  C   UNL     1       4.541   6.363  16.859  0.00  0.00    +0.000 A 
ATOM      6  C   UNL     1       5.321   6.115  15.741  0.00  0.00    +0.000 A 
ATOM      7  C   UNL     1       5.815   4.833  15.495  0.00  0.00    +0.000 A 
ATOM      8  C   UNL     1       5.514   3.795  16.393  0.00  0.00    +0.000 A 
ATOM      9  C   UNL     1       4.727   4.030  17.554  0.00  0.00    +0.000 A 
ATOM     10  C   UNL     1       4.251   5.344  17.753  0.00  0.00    +0.000 A 
ATOM     11  N   UNL     1       3.458   5.984  18.696  0.00  0.00    +0.000 N 
ATOM     12  H   UNL     1       3.077   5.552  19.529  0.00  0.00    +0.000 HD
BRANCH   7  13
ATOM     13  C   UNL     1       6.636   4.740  14.255  0.00  0.00    +0.000 C 
ATOM     14  O   UNL     1       7.647   5.416  14.109  0.00  0.00    +0.000 OA
BRANCH  13  15
ATOM     15  O   UNL     1       6.172   3.856  13.340  0.00  0.00    +0.000 OA
ATOM     16  C   UNL     1       6.960   3.894  12.140  0.00  0.00    +0.000 C 
ENDBRANCH  13  15
ENDBRANCH   7  13
ENDBRANCH   2   3
BRANCH   1  20
ATOM     17  C   UNL     1      -2.191  11.266  18.855  0.00  0.00    +0.000 A 
ATOM     18  C   UNL     1      -0.973  11.520  19.504  0.00  0.00    +0.000 A 
ATOM     19  C   UNL     1       0.208  10.791  19.216  0.00  0.00    +0.000 A 
ATOM     20  C   UNL     1       0.219   9.766  18.262  0.00  0.00    +0.000 A 
ATOM     21  C   UNL     1      -0.971   9.586  17.543  0.00  0.00    +0.000 A 
ATOM     22  C   UNL     1      -2.151  10.294  17.852  0.00  0.00    +0.000 A 
BRANCH  17  23
ATOM     23  N   UNL     1      -3.387  11.955  19.148  0.00  0.00    +0.000 N 
BRANCH  23  25
ATOM     24  C   UNL     1      -5.604  11.047  18.237  0.00  0.00    +0.000 C 
ATOM     25  C   UNL     1      -4.406  11.979  18.078  0.00  0.00    +0.000 C 
ENDBRANCH  23  25
BRANCH  23  26
ATOM     26  C   UNL     1      -3.264  13.073  20.116  0.00  0.00    +0.000 C 
ATOM     27  C   UNL     1      -4.553  13.464  20.844  0.00  0.00    +0.000 C 
ENDBRANCH  23  26
ENDBRANCH  17  23
ENDBRANCH   1  20
BRANCH   2  28
ATOM     28  C   UNL     1       1.686   7.843  20.088  0.00  0.00    +0.000 C 
ATOM     29  N   UNL     1       1.299   7.730  21.186  0.00  0.00    +0.000 NA
ENDBRANCH   2  28
TORSDOF 8
ENDMDL
MODEL 3
REMARK VINA RESULT:      -7.3      0.783      1.029
REMARK  Name = 
REMARK  11 active torsions:
REMARK  status: ('A' for Active; 'I' for Inactive)
REMARK    1  A    between atoms: C_1  and  C_2
REMARK    2  A    between atoms: C_2  and  N_3
REMARK    3  A    between atoms: N_3  and  C_4
REMARK    4  A    between atoms: N_3  and  C_6
REMARK    5  A    between atoms: C_4  and  C_5
REMARK    6  A    between atoms: C_9  and  C_10
REMARK    7  A    between atoms: C_11  and  C_12
REMARK    8  A    between atoms: C_11  and  C_14
REMARK    9  A    between atoms: C_18  and  C_19
REMARK   10  A    between atoms: C_19  and  O_21
REMARK   11  A    between atoms: O_21  and  C_22
REMARK                            x       y       z     vdW  Elec       q    Type
REMARK                         _______ _______ _______ _____ _____    ______ ____
ROOT
ATOM      1  C   UNL     1       1.705   9.011  17.913  0.00  0.00    +0.000 C 
ATOM      2  C   UNL     1       2.264   8.042  18.694  0.00  0.00    +0.000 C 
ENDROOT
BRANCH   2   3
ATOM      3  C   UNL     1       3.260   7.161  18.142  0.00  0.00    +0.000 A 
ATOM      4  N   UNL     1       4.118   7.412  17.186  0.00  0.00    +0.000 NA
ATOM      5  C   UNL     1       4.587   6.202  16.764  0.00  0.00    +0.000 A 
ATOM      6  C   UNL     1       5.401   5.957  15.669  0.00  0.00    +0.000 A 
ATOM      7  C   UNL     1       5.751   4.649  15.329  0.00  0.00    +0.000 A 
ATOM      8  C   UNL     1       5.271   3.582  16.107  0.00  0.00    +0.000 A 
ATOM      9  C   UNL     1       4.445   3.813  17.242  0.00  0.00    +0.000 A 
ATOM     10  C   UNL     1       4.120   5.153  17.540  0.00  0.00    +0.000 A 
ATOM     11  N   UNL     1       3.352   5.803  18.497  0.00  0.00    +0.000 N 
ATOM     12  H   UNL     1       2.869   5.351  19.264  0.00  0.00    +0.000 HD
BRANCH   7  13
ATOM     13  C   UNL     1       6.632   4.563  14.130  0.00  0.00    +0.000 C 
ATOM     14  O   UNL     1       6.380   3.796  13.209  0.00  0.00    +0.000 OA
BRANCH  13  15
ATOM     15  O   UNL     1       7.699   5.396  14.157  0.00  0.00    +0.000 OA
ATOM     16  C   UNL     1       8.247   5.574  12.842  0.00  0.00    +0.000 C 
ENDBRANCH  13  15
ENDBRANCH   7  13
ENDBRANCH   2   3
BRANCH   1  20
ATOM     17  C   UNL     1      -1.735  11.590  18.858  0.00  0.00    +0.000 A 
ATOM     18  C   UNL     1      -0.416  11.961  19.161  0.00  0.00    +0.000 A 
ATOM     19  C   UNL     1       0.695  11.136  18.853  0.00  0.00    +0.000 A 
ATOM     20  C   UNL     1       0.531   9.894  18.228  0.00  0.00    +0.000 A 
ATOM     21  C   UNL     1      -0.777   9.575  17.835  0.00  0.00    +0.000 A 
ATOM     22  C   UNL     1      -1.882  10.386  18.167  0.00  0.00    +0.000 A 
BRANCH  17  23
ATOM     23  N   UNL     1      -2.859  12.379  19.184  0.00  0.00    +0.000 N 
BRANCH  23  25
ATOM     24  C   UNL     1      -2.541  12.375  21.727  0.00  0.00    +0.000 C 
ATOM     25  C   UNL     1      -2.769  13.157  20.437  0.00  0.00    +0.000 C 
ENDBRANCH  23  25
BRANCH  23  26
ATOM     26  C   UNL     1      -4.163  11.877  18.685  0.00  0.00    +0.000 C 
ATOM     27  C   UNL     1      -5.388  12.276  19.514  0.00  0.00    +0.000 C 
ENDBRANCH  23  26
ENDBRANCH  17  23
ENDBRANCH   1  20
BRANCH   2  28
ATOM     28  C   UNL     1       1.820   7.810  20.012  0.00  0.00    +0.000 C 
ATOM     29  N   UNL     1       1.430   7.709  21.110  0.00  0.00    +0.000 NA
ENDBRANCH   2  28
TORSDOF 8
ENDMDL
MODEL 4
REMARK VINA RESULT:      -7.2      0.542      1.100
REMARK  Name = 
REMARK  11 active torsions:
REMARK  status: ('A' for Active; 'I' for Inactive)
REMARK    1  A    between atoms: C_1  and  C_2
REMARK    2  A    between atoms: C_2  and  N_3
REMARK    3  A    between atoms: N_3  and  C_4
REMARK    4  A    between atoms: N_3  and  C_6
REMARK    5  A    between atoms: C_4  and  C_5
REMARK    6  A    between atoms: C_9  and  C_10
REMARK    7  A    between atoms: C_11  and  C_12
REMARK    8  A    between atoms: C_11  and  C_14
REMARK    9  A    between atoms: C_18  and  C_19
REMARK   10  A    between atoms: C_19  and  O_21
REMARK   11  A    between atoms: O_21  and  C_22
REMARK                            x       y       z     vdW  Elec       q    Type
REMARK                         _______ _______ _______ _____ _____    ______ ____
ROOT
ATOM      1  C   UNL     1       1.567   8.989  18.030  0.00  0.00    +0.000 C 
ATOM      2  C   UNL     1       2.166   8.034  18.799  0.00  0.00    +0.000 C 
ENDROOT
BRANCH   2   3
ATOM      3  C   UNL     1       3.206   7.211  18.240  0.00  0.00    +0.000 A 
ATOM      4  N   UNL     1       4.014   7.494  17.249  0.00  0.00    +0.000 NA
ATOM      5  C   UNL     1       4.557   6.309  16.848  0.00  0.00    +0.000 A 
ATOM      6  C   UNL     1       5.353   6.089  15.734  0.00  0.00    +0.000 A 
ATOM      7  C   UNL     1       5.788   4.800  15.420  0.00  0.00    +0.000 A 
ATOM      8  C   UNL     1       5.411   3.726  16.244  0.00  0.00    +0.000 A 
ATOM      9  C   UNL     1       4.606   3.931  17.399  0.00  0.00    +0.000 A 
ATOM     10  C   UNL     1       4.192   5.253  17.668  0.00  0.00    +0.000 A 
ATOM     11  N   UNL     1       3.408   5.875  18.631  0.00  0.00    +0.000 N 
ATOM     12  H   UNL     1       2.984   5.413  19.426  0.00  0.00    +0.000 HD
BRANCH   7  13
ATOM     13  C   UNL     1       6.635   4.741  14.196  0.00  0.00    +0.000 C 
ATOM     14  O   UNL     1       7.664   5.399  14.102  0.00  0.00    +0.000 OA
BRANCH  13  15
ATOM     15  O   UNL     1       6.174   3.906  13.235  0.00  0.00    +0.000 OA
ATOM     16  C   UNL     1       7.047   3.901  12.095  0.00  0.00    +0.000 C 
ENDBRANCH  13  15
ENDBRANCH   7  13
ENDBRANCH   2   3
BRANCH   1  20
ATOM     17  C   UNL     1      -1.993  11.409  18.953  0.00  0.00    +0.000 A 
ATOM     18  C   UNL     1      -1.996  10.425  17.953  0.00  0.00    +0.000 A 
ATOM     19  C   UNL     1      -0.854   9.640  17.656  0.00  0.00    +0.000 A 
ATOM     20  C   UNL     1       0.350   9.810  18.351  0.00  0.00    +0.000 A 
ATOM     21  C   UNL     1       0.318  10.721  19.417  0.00  0.00    +0.000 A 
ATOM     22  C   UNL     1      -0.812  11.520  19.691  0.00  0.00    +0.000 A 
BRANCH  17  23
ATOM     23  N   UNL     1      -3.106  12.226  19.243  0.00  0.00    +0.000 N 
BRANCH  23  25
ATOM     24  C   UNL     1      -3.136  14.278  20.779  0.00  0.00    +0.000 C 
ATOM     25  C   UNL     1      -3.183  12.761  20.619  0.00  0.00    +0.000 C 
ENDBRANCH  23  25
BRANCH  23  26
ATOM     26  C   UNL     1      -4.335  11.940  18.462  0.00  0.00    +0.000 C 
ATOM     27  C   UNL     1      -5.633  11.864  19.272  0.00  0.00    +0.000 C 
ENDBRANCH  23  26
ENDBRANCH  17  23
ENDBRANCH   1  20
BRANCH   2  28
ATOM     28  C   UNL     1       1.723   7.758  20.109  0.00  0.00    +0.000 C 
ATOM     29  N   UNL     1       1.443   7.551  21.226  0.00  0.00    +0.000 NA
ENDBRANCH   2  28
TORSDOF 8
ENDMDL
MODEL 5
REMARK VINA RESULT:      -7.2      1.271      1.709
REMARK  Name = 
REMARK  11 active torsions:
REMARK  status: ('A' for Active; 'I' for Inactive)
REMARK    1  A    between atoms: C_1  and  C_2
REMARK    2  A    between atoms: C_2  and  N_3
REMARK    3  A    between atoms: N_3  and  C_4
REMARK    4  A    between atoms: N_3  and  C_6
REMARK    5  A    between atoms: C_4  and  C_5
REMARK    6  A    between atoms: C_9  and  C_10
REMARK    7  A    between atoms: C_11  and  C_12
REMARK    8  A    between atoms: C_11  and  C_14
REMARK    9  A    between atoms: C_18  and  C_19
REMARK   10  A    between atoms: C_19  and  O_21
REMARK   11  A    between atoms: O_21  and  C_22
REMARK                            x       y       z     vdW  Elec       q    Type
REMARK                         _______ _______ _______ _____ _____    ______ ____
ROOT
ATOM      1  C   UNL     1       0.260   9.570  18.093  0.00  0.00    +0.000 C 
ATOM      2  C   UNL     1       0.945   8.994  19.123  0.00  0.00    +0.000 C 
ENDROOT
BRANCH   2   3
ATOM      3  C   UNL     1       2.138   8.234  18.856  0.00  0.00    +0.000 A 
ATOM      4  N   UNL     1       2.895   8.270  17.789  0.00  0.00    +0.000 NA
ATOM      5  C   UNL     1       3.668   7.146  17.830  0.00  0.00    +0.000 A 
ATOM      6  C   UNL     1       4.514   6.678  16.838  0.00  0.00    +0.000 A 
ATOM      7  C   UNL     1       5.200   5.473  17.005  0.00  0.00    +0.000 A 
ATOM      8  C   UNL     1       5.023   4.738  18.190  0.00  0.00    +0.000 A 
ATOM      9  C   UNL     1       4.170   5.208  19.226  0.00  0.00    +0.000 A 
ATOM     10  C   UNL     1       3.500   6.429  19.004  0.00  0.00    +0.000 A 
ATOM     11  N   UNL     1       2.589   7.208  19.706  0.00  0.00    +0.000 N 
ATOM     12  H   UNL     1       2.247   7.009  20.639  0.00  0.00    +0.000 HD
BRANCH   7  13
ATOM     13  C   UNL     1       6.068   5.117  15.847  0.00  0.00    +0.000 C 
ATOM     14  O   UNL     1       7.114   5.717  15.629  0.00  0.00    +0.000 OA
BRANCH  13  15
ATOM     15  O   UNL     1       5.604   4.094  15.091  0.00  0.00    +0.000 OA
ATOM     16  C   UNL     1       6.277   4.043  13.824  0.00  0.00    +0.000 C 
ENDBRANCH  13  15
ENDBRANCH   7  13
ENDBRANCH   2   3
BRANCH   1  20
ATOM     17  C   UNL     1      -3.698  11.493  18.218  0.00  0.00    +0.000 A 
ATOM     18  C   UNL     1      -2.593  12.010  18.910  0.00  0.00    +0.000 A 
ATOM     19  C   UNL     1      -1.315  11.398  18.868  0.00  0.00    +0.000 A 
ATOM     20  C   UNL     1      -1.089  10.230  18.129  0.00  0.00    +0.000 A 
ATOM     21  C   UNL     1      -2.168   9.776  17.358  0.00  0.00    +0.000 A 
ATOM     22  C   UNL     1      -3.445  10.372  17.424  0.00  0.00    +0.000 A 
BRANCH  17  23
ATOM     23  N   UNL     1      -4.987  12.065  18.272  0.00  0.00    +0.000 N 
BRANCH  23  25
ATOM     24  C   UNL     1      -6.768  10.529  19.289  0.00  0.00    +0.000 C 
ATOM     25  C   UNL     1      -5.812  11.708  19.445  0.00  0.00    +0.000 C 
ENDBRANCH  23  25
BRANCH  23  26
ATOM     26  C   UNL     1      -5.610  12.371  16.961  0.00  0.00    +0.000 C 
ATOM     27  C   UNL     1      -6.731  13.415  16.986  0.00  0.00    +0.000 C 
ENDBRANCH  23  26
ENDBRANCH  17  23
ENDBRANCH   1  20
BRANCH   2  28
ATOM     28  C   UNL     1       0.459   9.038  20.446  0.00  0.00    +0.000 C 
ATOM     29  N   UNL     1       0.133   9.025  21.570  0.00  0.00    +0.000 NA
ENDBRANCH   2  28
TORSDOF 8
ENDMDL
MODEL 6
REMARK VINA RESULT:      -7.1      1.224      1.909
REMARK  Name = 
REMARK  11 active torsions:
REMARK  status: ('A' for Active; 'I' for Inactive)
REMARK    1  A    between atoms: C_1  and  C_2
REMARK    2  A    between atoms: C_2  and  N_3
REMARK    3  A    between atoms: N_3  and  C_4
REMARK    4  A    between atoms: N_3  and  C_6
REMARK    5  A    between atoms: C_4  and  C_5
REMARK    6  A    between atoms: C_9  and  C_10
REMARK    7  A    between atoms: C_11  and  C_12
REMARK    8  A    between atoms: C_11  and  C_14
REMARK    9  A    between atoms: C_18  and  C_19
REMARK   10  A    between atoms: C_19  and  O_21
REMARK   11  A    between atoms: O_21  and  C_22
REMARK                            x       y       z     vdW  Elec       q    Type
REMARK                         _______ _______ _______ _____ _____    ______ ____
ROOT
ATOM      1  C   UNL     1       0.323   9.513  18.243  0.00  0.00    +0.000 C 
ATOM      2  C   UNL     1       1.005   8.915  19.262  0.00  0.00    +0.000 C 
ENDROOT
BRANCH   2   3
ATOM      3  C   UNL     1       2.186   8.142  18.979  0.00  0.00    +0.000 A 
ATOM      4  N   UNL     1       2.984   8.237  17.945  0.00  0.00    +0.000 NA
ATOM      5  C   UNL     1       3.724   7.092  17.926  0.00  0.00    +0.000 A 
ATOM      6  C   UNL     1       4.595   6.676  16.931  0.00  0.00    +0.000 A 
ATOM      7  C   UNL     1       5.240   5.442  17.027  0.00  0.00    +0.000 A 
ATOM      8  C   UNL     1       4.999   4.624  18.144  0.00  0.00    +0.000 A 
ATOM      9  C   UNL     1       4.120   5.037  19.183  0.00  0.00    +0.000 A 
ATOM     10  C   UNL     1       3.492   6.292  19.034  0.00  0.00    +0.000 A 
ATOM     11  N   UNL     1       2.577   7.041  19.761  0.00  0.00    +0.000 N 
ATOM     12  H   UNL     1       2.195   6.781  20.663  0.00  0.00    +0.000 HD
BRANCH   7  13
ATOM     13  C   UNL     1       6.142   5.151  15.877  0.00  0.00    +0.000 C 
ATOM     14  O   UNL     1       7.351   5.027  16.032  0.00  0.00    +0.000 OA
BRANCH  13  15
ATOM     15  O   UNL     1       5.511   5.034  14.685  0.00  0.00    +0.000 OA
ATOM     16  C   UNL     1       6.058   3.953  13.916  0.00  0.00    +0.000 C 
ENDBRANCH  13  15
ENDBRANCH   7  13
ENDBRANCH   2   3
BRANCH   1  20
ATOM     17  C   UNL     1      -3.609  11.486  18.413  0.00  0.00    +0.000 A 
ATOM     18  C   UNL     1      -2.501  11.963  19.130  0.00  0.00    +0.000 A 
ATOM     19  C   UNL     1      -1.232  11.334  19.073  0.00  0.00    +0.000 A 
ATOM     20  C   UNL     1      -1.017  10.190  18.294  0.00  0.00    +0.000 A 
ATOM     21  C   UNL     1      -2.098   9.779  17.501  0.00  0.00    +0.000 A 
ATOM     22  C   UNL     1      -3.366  10.391  17.581  0.00  0.00    +0.000 A 
BRANCH  17  23
ATOM     23  N   UNL     1      -4.890  12.075  18.480  0.00  0.00    +0.000 N 
BRANCH  23  25
ATOM     24  C   UNL     1      -6.873  13.112  17.231  0.00  0.00    +0.000 C 
ATOM     25  C   UNL     1      -5.540  12.371  17.186  0.00  0.00    +0.000 C 
ENDBRANCH  23  25
BRANCH  23  26
ATOM     26  C   UNL     1      -5.153  12.908  19.679  0.00  0.00    +0.000 C 
ATOM     27  C   UNL     1      -5.915  12.215  20.813  0.00  0.00    +0.000 C 
ENDBRANCH  23  26
ENDBRANCH  17  23
ENDBRANCH   1  20
BRANCH   2  28
ATOM     28  C   UNL     1       0.526   8.948  20.588  0.00  0.00    +0.000 C 
ATOM     29  N   UNL     1       0.173   8.892  21.702  0.00  0.00    +0.000 NA
ENDBRANCH   2  28
TORSDOF 8
ENDMDL
MODEL 7
REMARK VINA RESULT:      -7.0      7.423      9.212
REMARK  Name = 
REMARK  11 active torsions:
REMARK  status: ('A' for Active; 'I' for Inactive)
REMARK    1  A    between atoms: C_1  and  C_2
REMARK    2  A    between atoms: C_2  and  N_3
REMARK    3  A    between atoms: N_3  and  C_4
REMARK    4  A    between atoms: N_3  and  C_6
REMARK    5  A    between atoms: C_4  and  C_5
REMARK    6  A    between atoms: C_9  and  C_10
REMARK    7  A    between atoms: C_11  and  C_12
REMARK    8  A    between atoms: C_11  and  C_14
REMARK    9  A    between atoms: C_18  and  C_19
REMARK   10  A    between atoms: C_19  and  O_21
REMARK   11  A    between atoms: O_21  and  C_22
REMARK                            x       y       z     vdW  Elec       q    Type
REMARK                         _______ _______ _______ _____ _____    ______ ____
ROOT
ATOM      1  C   UNL     1       8.784  11.283  17.544  0.00  0.00    +0.000 C 
ATOM      2  C   UNL     1       8.856  10.308  18.496  0.00  0.00    +0.000 C 
ENDROOT
BRANCH   2   3
ATOM      3  C   UNL     1       8.427   8.969  18.186  0.00  0.00    +0.000 A 
ATOM      4  N   UNL     1       7.625   8.581  17.227  0.00  0.00    +0.000 NA
ATOM      5  C   UNL     1       7.230   7.315  17.547  0.00  0.00    +0.000 A 
ATOM      6  C   UNL     1       6.264   6.554  16.908  0.00  0.00    +0.000 A 
ATOM      7  C   UNL     1       5.927   5.289  17.392  0.00  0.00    +0.000 A 
ATOM      8  C   UNL     1       6.578   4.792  18.534  0.00  0.00    +0.000 A 
ATOM      9  C   UNL     1       7.582   5.551  19.197  0.00  0.00    +0.000 A 
ATOM     10  C   UNL     1       7.881   6.824  18.668  0.00  0.00    +0.000 A 
ATOM     11  N   UNL     1       8.735   7.866  19.002  0.00  0.00    +0.000 N 
ATOM     12  H   UNL     1       9.401   7.854  19.766  0.00  0.00    +0.000 HD
BRANCH   7  13
ATOM     13  C   UNL     1       4.875   4.606  16.588  0.00  0.00    +0.000 C 
ATOM     14  O   UNL     1       5.106   4.188  15.460  0.00  0.00    +0.000 OA
BRANCH  13  15
ATOM     15  O   UNL     1       3.679   4.489  17.213  0.00  0.00    +0.000 OA
ATOM     16  C   UNL     1       3.456   3.140  17.652  0.00  0.00    +0.000 C 
ENDBRANCH  13  15
ENDBRANCH   7  13
ENDBRANCH   2   3
BRANCH   1  20
ATOM     17  C   UNL     1       9.401  15.612  18.059  0.00  0.00    +0.000 A 
ATOM     18  C   UNL     1      10.467  14.723  17.855  0.00  0.00    +0.000 A 
ATOM     19  C   UNL     1      10.273  13.329  17.683  0.00  0.00    +0.000 A 
ATOM     20  C   UNL     1       8.993  12.762  17.713  0.00  0.00    +0.000 A 
ATOM     21  C   UNL     1       7.925  13.665  17.813  0.00  0.00    +0.000 A 
ATOM     22  C   UNL     1       8.124  15.047  18.011  0.00  0.00    +0.000 A 
BRANCH  17  23
ATOM     23  N   UNL     1       9.572  16.997  18.266  0.00  0.00    +0.000 N 
BRANCH  23  25
ATOM     24  C   UNL     1      11.520  18.626  17.916  0.00  0.00    +0.000 C 
ATOM     25  C   UNL     1      10.470  17.692  17.320  0.00  0.00    +0.000 C 
ENDBRANCH  23  25
BRANCH  23  26
ATOM     26  C   UNL     1       9.428  17.460  19.668  0.00  0.00    +0.000 C 
ATOM     27  C   UNL     1       8.132  18.213  19.988  0.00  0.00    +0.000 C 
ENDBRANCH  23  26
ENDBRANCH  17  23
ENDBRANCH   1  20
BRANCH   2  28
ATOM     28  C   UNL     1       9.249  10.597  19.819  0.00  0.00    +0.000 C 
ATOM     29  N   UNL     1       9.560  10.929  20.897  0.00  0.00    +0.000 NA
ENDBRANCH   2  28
TORSDOF 8
ENDMDL
MODEL 8
REMARK VINA RESULT:      -7.0      1.220      1.422
REMARK  Name = 
REMARK  11 active torsions:
REMARK  status: ('A' for Active; 'I' for Inactive)
REMARK    1  A    between atoms: C_1  and  C_2
REMARK    2  A    between atoms: C_2  and  N_3
REMARK    3  A    between atoms: N_3  and  C_4
REMARK    4  A    between atoms: N_3  and  C_6
REMARK    5  A    between atoms: C_4  and  C_5
REMARK    6  A    between atoms: C_9  and  C_10
REMARK    7  A    between atoms: C_11  and  C_12
REMARK    8  A    between atoms: C_11  and  C_14
REMARK    9  A    between atoms: C_18  and  C_19
REMARK   10  A    between atoms: C_19  and  O_21
REMARK   11  A    between atoms: O_21  and  C_22
REMARK                            x       y       z     vdW  Elec       q    Type
REMARK                         _______ _______ _______ _____ _____    ______ ____
ROOT
ATOM      1  C   UNL     1       0.289   9.503  18.002  0.00  0.00    +0.000 C 
ATOM      2  C   UNL     1       1.138   9.103  18.992  0.00  0.00    +0.000 C 
ENDROOT
BRANCH   2   3
ATOM      3  C   UNL     1       2.255   8.250  18.679  0.00  0.00    +0.000 A 
ATOM      4  N   UNL     1       3.106   8.364  17.691  0.00  0.00    +0.000 NA
ATOM      5  C   UNL     1       3.736   7.159  17.587  0.00  0.00    +0.000 A 
ATOM      6  C   UNL     1       4.610   6.757  16.589  0.00  0.00    +0.000 A 
ATOM      7  C   UNL     1       5.133   5.462  16.588  0.00  0.00    +0.000 A 
ATOM      8  C   UNL     1       4.764   4.569  17.608  0.00  0.00    +0.000 A 
ATOM      9  C   UNL     1       3.879   4.965  18.649  0.00  0.00    +0.000 A 
ATOM     10  C   UNL     1       3.379   6.284  18.600  0.00  0.00    +0.000 A 
ATOM     11  N   UNL     1       2.504   7.046  19.363  0.00  0.00    +0.000 N 
ATOM     12  H   UNL     1       2.057   6.740  20.219  0.00  0.00    +0.000 HD
BRANCH   7  13
ATOM     13  C   UNL     1       6.057   5.195  15.450  0.00  0.00    +0.000 C 
ATOM     14  O   UNL     1       7.197   5.642  15.438  0.00  0.00    +0.000 OA
BRANCH  13  15
ATOM     15  O   UNL     1       5.529   4.427  14.467  0.00  0.00    +0.000 OA
ATOM     16  C   UNL     1       6.535   4.042  13.518  0.00  0.00    +0.000 C 
ENDBRANCH  13  15
ENDBRANCH   7  13
ENDBRANCH   2   3
BRANCH   1  20
ATOM     17  C   UNL     1      -3.561  11.597  18.421  0.00  0.00    +0.000 A 
ATOM     18  C   UNL     1      -2.410  12.001  19.114  0.00  0.00    +0.000 A 
ATOM     19  C   UNL     1      -1.167  11.333  18.978  0.00  0.00    +0.000 A 
ATOM     20  C   UNL     1      -1.023  10.222  18.138  0.00  0.00    +0.000 A 
ATOM     21  C   UNL     1      -2.147   9.886  17.370  0.00  0.00    +0.000 A 
ATOM     22  C   UNL     1      -3.389  10.535  17.529  0.00  0.00    +0.000 A 
BRANCH  17  23
ATOM     23  N   UNL     1      -4.816  12.224  18.566  0.00  0.00    +0.000 N 
BRANCH  23  25
ATOM     24  C   UNL     1      -6.185  13.986  19.827  0.00  0.00    +0.000 C 
ATOM     25  C   UNL     1      -5.017  13.005  19.804  0.00  0.00    +0.000 C 
ENDBRANCH  23  25
BRANCH  23  26
ATOM     26  C   UNL     1      -5.953  11.550  17.891  0.00  0.00    +0.000 C 
ATOM     27  C   UNL     1      -6.761  10.581  18.761  0.00  0.00    +0.000 C 
ENDBRANCH  23  26
ENDBRANCH  17  23
ENDBRANCH   1  20
BRANCH   2  28
ATOM     28  C   UNL     1       0.897   9.423  20.343  0.00  0.00    +0.000 C 
ATOM     29  N   UNL     1       0.789   9.677  21.481  0.00  0.00    +0.000 NA
ENDBRANCH   2  28
TORSDOF 8
ENDMDL
MODEL 9
REMARK VINA RESULT:      -7.0      2.325      3.204
REMARK  Name = 
REMARK  11 active torsions:
REMARK  status: ('A' for Active; 'I' for Inactive)
REMARK    1  A    between atoms: C_1  and  C_2
REMARK    2  A    between atoms: C_2  and  N_3
REMARK    3  A    between atoms: N_3  and  C_4
REMARK    4  A    between atoms: N_3  and  C_6
REMARK    5  A    between atoms: C_4  and  C_5
REMARK    6  A    between atoms: C_9  and  C_10
REMARK    7  A    between atoms: C_11  and  C_12
REMARK    8  A    between atoms: C_11  and  C_14
REMARK    9  A    between atoms: C_18  and  C_19
REMARK   10  A    between atoms: C_19  and  O_21
REMARK   11  A    between atoms: O_21  and  C_22
REMARK                            x       y       z     vdW  Elec       q    Type
REMARK                         _______ _______ _______ _____ _____    ______ ____
ROOT
ATOM      1  C   UNL     1       1.405   8.642  20.762  0.00  0.00    +0.000 C 
ATOM      2  C   UNL     1       1.573   8.444  19.423  0.00  0.00    +0.000 C 
ENDROOT
BRANCH   2   3
ATOM      3  C   UNL     1       2.569   7.516  18.954  0.00  0.00    +0.000 A 
ATOM      4  N   UNL     1       3.457   7.695  18.009  0.00  0.00    +0.000 NA
ATOM      5  C   UNL     1       3.917   6.455  17.674  0.00  0.00    +0.000 A 
ATOM      6  C   UNL     1       4.756   6.132  16.620  0.00  0.00    +0.000 A 
ATOM      7  C   UNL     1       5.093   4.800  16.369  0.00  0.00    +0.000 A 
ATOM      8  C   UNL     1       4.573   3.790  17.196  0.00  0.00    +0.000 A 
ATOM      9  C   UNL     1       3.721   4.101  18.291  0.00  0.00    +0.000 A 
ATOM     10  C   UNL     1       3.410   5.462  18.498  0.00  0.00    +0.000 A 
ATOM     11  N   UNL     1       2.627   6.180  19.392  0.00  0.00    +0.000 N 
ATOM     12  H   UNL     1       2.116   5.783  20.171  0.00  0.00    +0.000 HD
BRANCH   7  13
ATOM     13  C   UNL     1       6.006   4.628  15.203  0.00  0.00    +0.000 C 
ATOM     14  O   UNL     1       7.205   4.858  15.295  0.00  0.00    +0.000 OA
BRANCH  13  15
ATOM     15  O   UNL     1       5.397   4.197  14.073  0.00  0.00    +0.000 OA
ATOM     16  C   UNL     1       6.361   3.794  13.089  0.00  0.00    +0.000 C 
ENDBRANCH  13  15
ENDBRANCH   7  13
ENDBRANCH   2   3
BRANCH   1  20
ATOM     17  C   UNL     1      -1.016  11.713  22.784  0.00  0.00    +0.000 A 
ATOM     18  C   UNL     1      -0.212  12.006  21.672  0.00  0.00    +0.000 A 
ATOM     19  C   UNL     1       0.564  11.019  21.014  0.00  0.00    +0.000 A 
ATOM     20  C   UNL     1       0.572   9.688  21.448  0.00  0.00    +0.000 A 
ATOM     21  C   UNL     1      -0.310   9.379  22.493  0.00  0.00    +0.000 A 
ATOM     22  C   UNL     1      -1.060  10.369  23.162  0.00  0.00    +0.000 A 
BRANCH  17  23
ATOM     23  N   UNL     1      -1.771  12.684  23.475  0.00  0.00    +0.000 N 
BRANCH  23  25
ATOM     24  C   UNL     1      -4.089  12.830  22.392  0.00  0.00    +0.000 C 
ATOM     25  C   UNL     1      -3.223  12.428  23.582  0.00  0.00    +0.000 C 
ENDBRANCH  23  25
BRANCH  23  26
ATOM     26  C   UNL     1      -1.238  14.068  23.426  0.00  0.00    +0.000 C 
ATOM     27  C   UNL     1      -1.447  14.905  24.692  0.00  0.00    +0.000 C 
ENDBRANCH  23  26
ENDBRANCH  17  23
ENDBRANCH   1  20
BRANCH   2  28
ATOM     28  C   UNL     1       0.862   9.202  18.470  0.00  0.00    +0.000 C 
ATOM     29  N   UNL     1       0.194   9.783  17.704  0.00  0.00    +0.000 NA
ENDBRANCH   2  28
TORSDOF 8
ENDMDL
