MODEL 1
REMARK VINA RESULT:      -7.9      0.000      0.000
REMARK  Name = 
REMARK  9 active torsions:
REMARK  status: ('A' for Active; 'I' for Inactive)
REMARK    1  A    between atoms: C_1  and  C_2
REMARK    2  A    between atoms: C_2  and  N_3
REMARK    3  A    between atoms: N_3  and  S_4
REMARK    4  A    between atoms: S_4  and  N_7
REMARK    5  A    between atoms: N_7  and  C_8
REMARK    6  A    between atoms: C_13  and  C_14
REMARK    7  A    between atoms: N_16  and  C_17
REMARK    8  A    between atoms: C_23  and  O_24
REMARK    9  A    between atoms: O_24  and  C_25
REMARK                            x       y       z     vdW  Elec       q    Type
REMARK                         _______ _______ _______ _____ _____    ______ ____
ROOT
ATOM      1  C   UNL     1       4.463   5.016  17.276  0.00  0.00    +0.000 A 
ATOM      2  C   UNL     1       3.855   3.827  17.668  0.00  0.00    +0.000 A 
ATOM      3  C   UNL     1       2.726   3.873  18.478  0.00  0.00    +0.000 A 
ATOM      4  C   UNL     1       2.202   5.103  18.879  0.00  0.00    +0.000 A 
ATOM      5  F   UNL     1       1.117   5.067  19.664  0.00  0.00    +0.000 F 
ATOM      6  C   UNL     1       2.785   6.314  18.480  0.00  0.00    +0.000 A 
ATOM      7  C   UNL     1       3.923   6.251  17.671  0.00  0.00    +0.000 A 
ATOM      8  F   UNL     1       4.548   7.374  17.278  0.00  0.00    +0.000 F 
ENDROOT
BRANCH   6   9
ATOM      9  C   UNL     1       2.191   7.599  18.947  0.00  0.00    +0.000 C 
ATOM     10  O   UNL     1       2.082   7.792  20.152  0.00  0.00    +0.000 OA
ATOM     11  N   UNL     1       1.763   8.499  17.980  0.00  0.00    +0.000 N 
ATOM     12  H   UNL     1       1.800   8.208  17.009  0.00  0.00    +0.000 HD
BRANCH  11  13
ATOM     13  C   UNL     1       1.139   9.749  18.237  0.00  0.00    +0.000 A 
ATOM     14  C   UNL     1      -0.242   9.959  18.229  0.00  0.00    +0.000 A 
ATOM     15  N   UNL     1      -0.874  11.146  18.429  0.00  0.00    +0.000 NA
ATOM     16  C   UNL     1      -0.019  12.163  18.620  0.00  0.00    +0.000 A 
ATOM     17  N   UNL     1      -0.371  13.466  18.799  0.00  0.00    +0.000 N 
ATOM     18  N   UNL     1       0.675  14.295  18.954  0.00  0.00    +0.000 NA
ATOM     19  C   UNL     1       1.730  13.478  18.867  0.00  0.00    +0.000 A 
ATOM     20  C   UNL     1       1.368  12.117  18.668  0.00  0.00    +0.000 A 
ATOM     21  C   UNL     1       1.969  10.851  18.501  0.00  0.00    +0.000 A 
ATOM     22  H   UNL     1      -1.310  13.843  18.814  0.00  0.00    +0.000 HD
BRANCH  19  23
ATOM     23  O   UNL     1       2.911  14.124  18.970  0.00  0.00    +0.000 OA
ATOM     24  C   UNL     1       3.276  14.907  17.851  0.00  0.00    +0.000 C 
ENDBRANCH  19  23
ENDBRANCH  11  13
ENDBRANCH   6   9
BRANCH   1  25
ATOM     25  N   UNL     1       5.630   4.951  16.439  0.00  0.00    +0.000 N 
ATOM     26  H   UNL     1       5.639   4.091  15.886  0.00  0.00    +0.000 HD
BRANCH  25  27
ATOM     27  S   UNL     1       7.122   5.003  17.219  0.00  0.00    +0.000 S 
ATOM     28  O   UNL     1       8.009   4.153  16.464  0.00  0.00    +0.000 OA
ATOM     29  O   UNL     1       6.919   4.833  18.636  0.00  0.00    +0.000 OA
BRANCH  27  30
ATOM     30  N   UNL     1       7.578   6.592  16.910  0.00  0.00    +0.000 NA
ATOM     31  H   UNL     1       8.399   6.565  16.306  0.00  0.00    +0.000 HD
BRANCH  30  33
ATOM     32  C   UNL     1       8.020   8.834  17.806  0.00  0.00    +0.000 C 
ATOM     33  C   UNL     1       7.885   7.360  18.143  0.00  0.00    +0.000 C 
ENDBRANCH  30  33
ENDBRANCH  27  30
ENDBRANCH  25  27
ENDBRANCH   1  25
TORSDOF 7
ENDMDL
MODEL 2
REMARK VINA RESULT:      -7.9      2.299      2.743
REMARK  Name = 
REMARK  9 active torsions:
REMARK  status: ('A' for Active; 'I' for Inactive)
REMARK    1  A    between atoms: C_1  and  C_2
REMARK    2  A    between atoms: C_2  and  N_3
REMARK    3  A    between atoms: N_3  and  S_4
REMARK    4  A    between atoms: S_4  and  N_7
REMARK    5  A    between atoms: N_7  and  C_8
REMARK    6  A    between atoms: C_13  and  C_14
REMARK    7  A    between atoms: N_16  and  C_17
REMARK    8  A    between atoms: C_23  and  O_24
REMARK    9  A    between atoms: O_24  and  C_25
REMARK                            x       y       z     vdW  Elec       q    Type
REMARK                         _______ _______ _______ _____ _____    ______ ____
ROOT
ATOM      1  C   UNL     1       4.718   4.729  18.264  0.00  0.00    +0.000 A 
ATOM      2  C   UNL     1       4.298   3.579  18.925  0.00  0.00    +0.000 A 
ATOM      3  C   UNL     1       3.203   3.644  19.780  0.00  0.00    +0.000 A 
ATOM      4  C   UNL     1       2.527   4.853  19.959  0.00  0.00    +0.000 A 
ATOM      5  F   UNL     1       1.486   4.840  20.802  0.00  0.00    +0.000 F 
ATOM      6  C   UNL     1       2.919   6.020  19.288  0.00  0.00    +0.000 A 
ATOM      7  C   UNL     1       4.024   5.938  18.437  0.00  0.00    +0.000 A 
ATOM      8  F   UNL     1       4.471   7.026  17.787  0.00  0.00    +0.000 F 
ENDROOT
BRANCH   6   9
ATOM      9  C   UNL     1       2.167   7.285  19.525  0.00  0.00    +0.000 C 
ATOM     10  O   UNL     1       1.937   8.019  18.571  0.00  0.00    +0.000 OA
ATOM     11  N   UNL     1       1.795   7.577  20.830  0.00  0.00    +0.000 N 
ATOM     12  H   UNL     1       2.120   6.961  21.568  0.00  0.00    +0.000 HD
BRANCH  11  13
ATOM     13  C   UNL     1       1.113   8.750  21.249  0.00  0.00    +0.000 A 
ATOM     14  C   UNL     1       0.971   9.150  22.580  0.00  0.00    +0.000 A 
ATOM     15  N   UNL     1       0.292  10.241  23.023  0.00  0.00    +0.000 NA
ATOM     16  C   UNL     1      -0.287  10.929  22.026  0.00  0.00    +0.000 A 
ATOM     17  N   UNL     1      -1.065  12.037  22.182  0.00  0.00    +0.000 N 
ATOM     18  N   UNL     1      -1.541  12.533  21.027  0.00  0.00    +0.000 NA
ATOM     19  C   UNL     1      -1.042  11.701  20.107  0.00  0.00    +0.000 A 
ATOM     20  C   UNL     1      -0.232  10.672  20.663  0.00  0.00    +0.000 A 
ATOM     21  C   UNL     1       0.526   9.553  20.257  0.00  0.00    +0.000 A 
ATOM     22  H   UNL     1      -1.309  12.488  23.054  0.00  0.00    +0.000 HD
BRANCH  19  23
ATOM     23  O   UNL     1      -1.428  12.007  18.850  0.00  0.00    +0.000 OA
ATOM     24  C   UNL     1      -2.596  11.354  18.397  0.00  0.00    +0.000 C 
ENDBRANCH  19  23
ENDBRANCH  11  13
ENDBRANCH   6   9
BRANCH   1  25
ATOM     25  N   UNL     1       5.851   4.644  17.385  0.00  0.00    +0.000 N 
ATOM     26  H   UNL     1       5.960   3.698  17.013  0.00  0.00    +0.000 HD
BRANCH  25  27
ATOM     27  S   UNL     1       7.349   5.047  18.042  0.00  0.00    +0.000 S 
ATOM     28  O   UNL     1       8.311   4.148  17.452  0.00  0.00    +0.000 OA
ATOM     29  O   UNL     1       7.213   5.195  19.469  0.00  0.00    +0.000 OA
BRANCH  27  30
ATOM     30  N   UNL     1       7.596   6.559  17.348  0.00  0.00    +0.000 NA
ATOM     31  H   UNL     1       8.238   6.437  16.565  0.00  0.00    +0.000 HD
BRANCH  30  33
ATOM     32  C   UNL     1       7.968   8.953  17.740  0.00  0.00    +0.000 C 
ATOM     33  C   UNL     1       8.146   7.554  18.303  0.00  0.00    +0.000 C 
ENDBRANCH  30  33
ENDBRANCH  27  30
ENDBRANCH  25  27
ENDBRANCH   1  25
TORSDOF 7
ENDMDL
MODEL 3
REMARK VINA RESULT:      -7.7      2.423      2.942
REMARK  Name = 
REMARK  9 active torsions:
REMARK  status: ('A' for Active; 'I' for Inactive)
REMARK    1  A    between atoms: C_1  and  C_2
REMARK    2  A    between atoms: C_2  and  N_3
REMARK    3  A    between atoms: N_3  and  S_4
REMARK    4  A    between atoms: S_4  and  N_7
REMARK    5  A    between atoms: N_7  and  C_8
REMARK    6  A    between atoms: C_13  and  C_14
REMARK    7  A    between atoms: N_16  and  C_17
REMARK    8  A    between atoms: C_23  and  O_24
REMARK    9  A    between atoms: O_24  and  C_25
REMARK                            x       y       z     vdW  Elec       q    Type
REMARK                         _______ _______ _______ _____ _____    ______ ____
ROOT
ATOM      1  C   UNL     1       4.889   4.297  18.323  0.00  0.00    +0.000 A 
ATOM      2  C   UNL     1       4.112   3.342  17.675  0.00  0.00    +0.000 A 
ATOM      3  C   UNL     1       2.774   3.615  17.411  0.00  0.00    +0.000 A 
ATOM      4  C   UNL     1       2.225   4.844  17.782  0.00  0.00    +0.000 A 
ATOM      5  F   UNL     1       0.929   5.032  17.501  0.00  0.00    +0.000 F 
ATOM      6  C   UNL     1       2.994   5.830  18.417  0.00  0.00    +0.000 A 
ATOM      7  C   UNL     1       4.335   5.537  18.680  0.00  0.00    +0.000 A 
ATOM      8  F   UNL     1       5.119   6.426  19.312  0.00  0.00    +0.000 F 
ENDROOT
BRANCH   6   9
ATOM      9  C   UNL     1       2.353   7.120  18.801  0.00  0.00    +0.000 C 
ATOM     10  O   UNL     1       2.196   7.976  17.940  0.00  0.00    +0.000 OA
ATOM     11  N   UNL     1       1.997   7.289  20.133  0.00  0.00    +0.000 N 
ATOM     12  H   UNL     1       2.261   6.565  20.792  0.00  0.00    +0.000 HD
BRANCH  11  13
ATOM     13  C   UNL     1       1.416   8.461  20.686  0.00  0.00    +0.000 A 
ATOM     14  C   UNL     1       1.338   8.734  22.055  0.00  0.00    +0.000 A 
ATOM     15  N   UNL     1       0.754   9.821  22.624  0.00  0.00    +0.000 NA
ATOM     16  C   UNL     1       0.204  10.647  21.719  0.00  0.00    +0.000 A 
ATOM     17  N   UNL     1      -0.483  11.787  22.008  0.00  0.00    +0.000 N 
ATOM     18  N   UNL     1      -0.949  12.429  20.924  0.00  0.00    +0.000 NA
ATOM     19  C   UNL     1      -0.537  11.661  19.910  0.00  0.00    +0.000 A 
ATOM     20  C   UNL     1       0.206  10.525  20.336  0.00  0.00    +0.000 A 
ATOM     21  C   UNL     1       0.868   9.400  19.798  0.00  0.00    +0.000 A 
ATOM     22  H   UNL     1      -0.672  12.164  22.928  0.00  0.00    +0.000 HD
BRANCH  19  23
ATOM     23  O   UNL     1      -0.930  12.119  18.703  0.00  0.00    +0.000 OA
ATOM     24  C   UNL     1      -0.487  13.419  18.371  0.00  0.00    +0.000 C 
ENDBRANCH  19  23
ENDBRANCH  11  13
ENDBRANCH   6   9
BRANCH   1  25
ATOM     25  N   UNL     1       6.270   3.998  18.587  0.00  0.00    +0.000 N 
ATOM     26  H   UNL     1       6.560   4.369  19.495  0.00  0.00    +0.000 HD
BRANCH  25  27
ATOM     27  S   UNL     1       7.395   4.584  17.479  0.00  0.00    +0.000 S 
ATOM     28  O   UNL     1       8.666   4.006  17.840  0.00  0.00    +0.000 OA
ATOM     29  O   UNL     1       7.214   6.007  17.332  0.00  0.00    +0.000 OA
BRANCH  27  30
ATOM     30  N   UNL     1       6.881   3.811  16.077  0.00  0.00    +0.000 NA
ATOM     31  H   UNL     1       7.587   3.118  15.831  0.00  0.00    +0.000 HD
BRANCH  30  33
ATOM     32  C   UNL     1       6.210   3.968  13.721  0.00  0.00    +0.000 C 
ATOM     33  C   UNL     1       6.673   4.745  14.940  0.00  0.00    +0.000 C 
ENDBRANCH  30  33
ENDBRANCH  27  30
ENDBRANCH  25  27
ENDBRANCH   1  25
TORSDOF 7
ENDMDL
MODEL 4
REMARK VINA RESULT:      -7.7      2.378      3.060
REMARK  Name = 
REMARK  9 active torsions:
REMARK  status: ('A' for Active; 'I' for Inactive)
REMARK    1  A    between atoms: C_1  and  C_2
REMARK    2  A    between atoms: C_2  and  N_3
REMARK    3  A    between atoms: N_3  and  S_4
REMARK    4  A    between atoms: S_4  and  N_7
REMARK    5  A    between atoms: N_7  and  C_8
REMARK    6  A    between atoms: C_13  and  C_14
REMARK    7  A    between atoms: N_16  and  C_17
REMARK    8  A    between atoms: C_23  and  O_24
REMARK    9  A    between atoms: O_24  and  C_25
REMARK                            x       y       z     vdW  Elec       q    Type
REMARK                         _______ _______ _______ _____ _____    ______ ____
ROOT
ATOM      1  C   UNL     1       4.919   4.286  18.311  0.00  0.00    +0.000 A 
ATOM      2  C   UNL     1       4.153   3.373  17.593  0.00  0.00    +0.000 A 
ATOM      3  C   UNL     1       2.824   3.670  17.309  0.00  0.00    +0.000 A 
ATOM      4  C   UNL     1       2.274   4.882  17.729  0.00  0.00    +0.000 A 
ATOM      5  F   UNL     1       0.986   5.095  17.424  0.00  0.00    +0.000 F 
ATOM      6  C   UNL     1       3.032   5.827  18.435  0.00  0.00    +0.000 A 
ATOM      7  C   UNL     1       4.363   5.510  18.718  0.00  0.00    +0.000 A 
ATOM      8  F   UNL     1       5.136   6.359  19.417  0.00  0.00    +0.000 F 
ENDROOT
BRANCH   6   9
ATOM      9  C   UNL     1       2.389   7.100  18.870  0.00  0.00    +0.000 C 
ATOM     10  O   UNL     1       2.129   7.251  20.057  0.00  0.00    +0.000 OA
ATOM     11  N   UNL     1       2.092   8.038  17.889  0.00  0.00    +0.000 N 
ATOM     12  H   UNL     1       2.250   7.781  16.921  0.00  0.00    +0.000 HD
BRANCH  11  13
ATOM     13  C   UNL     1       1.447   9.283  18.111  0.00  0.00    +0.000 A 
ATOM     14  C   UNL     1       2.099  10.450  18.519  0.00  0.00    +0.000 A 
ATOM     15  N   UNL     1       1.512  11.648  18.780  0.00  0.00    +0.000 NA
ATOM     16  C   UNL     1       0.178  11.614  18.633  0.00  0.00    +0.000 A 
ATOM     17  N   UNL     1      -0.668  12.654  18.872  0.00  0.00    +0.000 N 
ATOM     18  N   UNL     1      -1.963  12.360  18.666  0.00  0.00    +0.000 NA
ATOM     19  C   UNL     1      -1.930  11.080  18.282  0.00  0.00    +0.000 A 
ATOM     20  C   UNL     1      -0.612  10.546  18.228  0.00  0.00    +0.000 A 
ATOM     21  C   UNL     1       0.056   9.341  17.924  0.00  0.00    +0.000 A 
ATOM     22  H   UNL     1      -0.414  13.581  19.187  0.00  0.00    +0.000 HD
BRANCH  19  23
ATOM     23  O   UNL     1      -3.155  10.564  18.045  0.00  0.00    +0.000 OA
ATOM     24  C   UNL     1      -3.316   9.929  16.793  0.00  0.00    +0.000 C 
ENDBRANCH  19  23
ENDBRANCH  11  13
ENDBRANCH   6   9
BRANCH   1  25
ATOM     25  N   UNL     1       6.290   3.963  18.596  0.00  0.00    +0.000 N 
ATOM     26  H   UNL     1       6.559   4.286  19.528  0.00  0.00    +0.000 HD
BRANCH  25  27
ATOM     27  S   UNL     1       7.447   4.593  17.547  0.00  0.00    +0.000 S 
ATOM     28  O   UNL     1       8.706   3.993  17.917  0.00  0.00    +0.000 OA
ATOM     29  O   UNL     1       7.275   6.022  17.459  0.00  0.00    +0.000 OA
BRANCH  27  30
ATOM     30  N   UNL     1       6.971   3.886  16.097  0.00  0.00    +0.000 NA
ATOM     31  H   UNL     1       7.695   3.223  15.825  0.00  0.00    +0.000 HD
BRANCH  30  33
ATOM     32  C   UNL     1       5.617   4.414  14.119  0.00  0.00    +0.000 C 
ATOM     33  C   UNL     1       6.756   4.875  15.010  0.00  0.00    +0.000 C 
ENDBRANCH  30  33
ENDBRANCH  27  30
ENDBRANCH  25  27
ENDBRANCH   1  25
TORSDOF 7
ENDMDL
MODEL 5
REMARK VINA RESULT:      -7.7      2.572      3.086
REMARK  Name = 
REMARK  9 active torsions:
REMARK  status: ('A' for Active; 'I' for Inactive)
REMARK    1  A    between atoms: C_1  and  C_2
REMARK    2  A    between atoms: C_2  and  N_3
REMARK    3  A    between atoms: N_3  and  S_4
REMARK    4  A    between atoms: S_4  and  N_7
REMARK    5  A    between atoms: N_7  and  C_8
REMARK    6  A    between atoms: C_13  and  C_14
REMARK    7  A    between atoms: N_16  and  C_17
REMARK    8  A    between atoms: C_23  and  O_24
REMARK    9  A    between atoms: O_24  and  C_25
REMARK                            x       y       z     vdW  Elec       q    Type
REMARK                         _______ _______ _______ _____ _____    ______ ____
ROOT
ATOM      1  C   UNL     1       4.647   3.884  18.881  0.00  0.00    +0.000 A 
ATOM      2  C   UNL     1       4.552   2.687  19.584  0.00  0.00    +0.000 A 
ATOM      3  C   UNL     1       3.580   2.549  20.569  0.00  0.00    +0.000 A 
ATOM      4  C   UNL     1       2.700   3.599  20.835  0.00  0.00    +0.000 A 
ATOM      5  F   UNL     1       1.795   3.394  21.802  0.00  0.00    +0.000 F 
ATOM      6  C   UNL     1       2.762   4.807  20.126  0.00  0.00    +0.000 A 
ATOM      7  C   UNL     1       3.749   4.932  19.144  0.00  0.00    +0.000 A 
ATOM      8  F   UNL     1       3.882   6.074  18.448  0.00  0.00    +0.000 F 
ENDROOT
BRANCH   6   9
ATOM      9  C   UNL     1       1.804   5.899  20.460  0.00  0.00    +0.000 C 
ATOM     10  O   UNL     1       0.618   5.623  20.581  0.00  0.00    +0.000 OA
ATOM     11  N   UNL     1       2.314   7.185  20.585  0.00  0.00    +0.000 N 
ATOM     12  H   UNL     1       3.293   7.333  20.364  0.00  0.00    +0.000 HD
BRANCH  11  13
ATOM     13  C   UNL     1       1.550   8.350  20.858  0.00  0.00    +0.000 A 
ATOM     14  C   UNL     1       1.327   8.868  22.136  0.00  0.00    +0.000 A 
ATOM     15  N   UNL     1       0.569   9.954  22.441  0.00  0.00    +0.000 NA
ATOM     16  C   UNL     1      -0.003  10.507  21.360  0.00  0.00    +0.000 A 
ATOM     17  N   UNL     1      -0.848  11.575  21.374  0.00  0.00    +0.000 N 
ATOM     18  N   UNL     1      -1.299  11.927  20.158  0.00  0.00    +0.000 NA
ATOM     19  C   UNL     1      -0.714  11.041  19.345  0.00  0.00    +0.000 A 
ATOM     20  C   UNL     1       0.126  10.122  20.032  0.00  0.00    +0.000 A 
ATOM     21  C   UNL     1       0.963   9.016  19.769  0.00  0.00    +0.000 A 
ATOM     22  H   UNL     1      -1.156  12.093  22.187  0.00  0.00    +0.000 HD
BRANCH  19  23
ATOM     23  O   UNL     1      -1.061  11.200  18.050  0.00  0.00    +0.000 OA
ATOM     24  C   UNL     1      -2.449  11.189  17.786  0.00  0.00    +0.000 C 
ENDBRANCH  19  23
ENDBRANCH  11  13
ENDBRANCH   6   9
BRANCH   1  25
ATOM     25  N   UNL     1       5.657   4.011  17.867  0.00  0.00    +0.000 N 
ATOM     26  H   UNL     1       5.997   3.094  17.568  0.00  0.00    +0.000 HD
BRANCH  25  27
ATOM     27  S   UNL     1       7.033   4.891  18.278  0.00  0.00    +0.000 S 
ATOM     28  O   UNL     1       8.164   4.128  17.808  0.00  0.00    +0.000 OA
ATOM     29  O   UNL     1       6.920   5.330  19.647  0.00  0.00    +0.000 OA
BRANCH  27  30
ATOM     30  N   UNL     1       6.871   6.216  17.256  0.00  0.00    +0.000 NA
ATOM     31  H   UNL     1       6.216   6.864  17.692  0.00  0.00    +0.000 HD
BRANCH  30  33
ATOM     32  C   UNL     1       5.111   6.604  15.590  0.00  0.00    +0.000 C 
ATOM     33  C   UNL     1       6.390   5.849  15.899  0.00  0.00    +0.000 C 
ENDBRANCH  30  33
ENDBRANCH  27  30
ENDBRANCH  25  27
ENDBRANCH   1  25
TORSDOF 7
ENDMDL
MODEL 6
REMARK VINA RESULT:      -7.7      2.722      3.337
REMARK  Name = 
REMARK  9 active torsions:
REMARK  status: ('A' for Active; 'I' for Inactive)
REMARK    1  A    between atoms: C_1  and  C_2
REMARK    2  A    between atoms: C_2  and  N_3
REMARK    3  A    between atoms: N_3  and  S_4
REMARK    4  A    between atoms: S_4  and  N_7
REMARK    5  A    between atoms: N_7  and  C_8
REMARK    6  A    between atoms: C_13  and  C_14
REMARK    7  A    between atoms: N_16  and  C_17
REMARK    8  A    between atoms: C_23  and  O_24
REMARK    9  A    between atoms: O_24  and  C_25
REMARK                            x       y       z     vdW  Elec       q    Type
REMARK                         _______ _______ _______ _____ _____    ______ ____
ROOT
ATOM      1  C   UNL     1       4.786   4.481  17.475  0.00  0.00    +0.000 A 
ATOM      2  C   UNL     1       4.005   3.499  16.872  0.00  0.00    +0.000 A 
ATOM      3  C   UNL     1       2.666   3.380  17.226  0.00  0.00    +0.000 A 
ATOM      4  C   UNL     1       2.111   4.249  18.167  0.00  0.00    +0.000 A 
ATOM      5  F   UNL     1       0.816   4.069  18.462  0.00  0.00    +0.000 F 
ATOM      6  C   UNL     1       2.872   5.260  18.772  0.00  0.00    +0.000 A 
ATOM      7  C   UNL     1       4.218   5.362  18.411  0.00  0.00    +0.000 A 
ATOM      8  F   UNL     1       5.011   6.288  18.975  0.00  0.00    +0.000 F 
ENDROOT
BRANCH   6   9
ATOM      9  C   UNL     1       2.231   6.153  19.779  0.00  0.00    +0.000 C 
ATOM     10  O   UNL     1       1.817   5.660  20.821  0.00  0.00    +0.000 OA
ATOM     11  N   UNL     1       2.112   7.499  19.461  0.00  0.00    +0.000 N 
ATOM     12  H   UNL     1       2.391   7.796  18.532  0.00  0.00    +0.000 HD
BRANCH  11  13
ATOM     13  C   UNL     1       1.497   8.486  20.276  0.00  0.00    +0.000 A 
ATOM     14  C   UNL     1       1.555   8.507  21.672  0.00  0.00    +0.000 A 
ATOM     15  N   UNL     1       0.946   9.408  22.487  0.00  0.00    +0.000 NA
ATOM     16  C   UNL     1       0.221  10.313  21.809  0.00  0.00    +0.000 A 
ATOM     17  N   UNL     1      -0.528  11.303  22.370  0.00  0.00    +0.000 N 
ATOM     18  N   UNL     1      -1.173  12.068  21.474  0.00  0.00    +0.000 NA
ATOM     19  C   UNL     1      -0.816  11.537  20.301  0.00  0.00    +0.000 A 
ATOM     20  C   UNL     1       0.072  10.433  20.434  0.00  0.00    +0.000 A 
ATOM     21  C   UNL     1       0.765   9.499  19.635  0.00  0.00    +0.000 A 
ATOM     22  H   UNL     1      -0.641  11.491  23.357  0.00  0.00    +0.000 HD
BRANCH  19  23
ATOM     23  O   UNL     1      -1.387  12.151  19.243  0.00  0.00    +0.000 OA
ATOM     24  C   UNL     1      -2.592  11.574  18.782  0.00  0.00    +0.000 C 
ENDBRANCH  19  23
ENDBRANCH  11  13
ENDBRANCH   6   9
BRANCH   1  25
ATOM     25  N   UNL     1       6.168   4.590  17.098  0.00  0.00    +0.000 N 
ATOM     26  H   UNL     1       6.767   4.700  17.920  0.00  0.00    +0.000 HD
BRANCH  25  27
ATOM     27  S   UNL     1       6.572   5.863  16.071  0.00  0.00    +0.000 S 
ATOM     28  O   UNL     1       7.653   6.576  16.707  0.00  0.00    +0.000 OA
ATOM     29  O   UNL     1       5.364   6.524  15.643  0.00  0.00    +0.000 OA
BRANCH  27  30
ATOM     30  N   UNL     1       7.232   5.019  14.775  0.00  0.00    +0.000 NA
ATOM     31  H   UNL     1       7.654   5.700  14.146  0.00  0.00    +0.000 HD
BRANCH  30  33
ATOM     32  C   UNL     1       6.779   3.832  12.675  0.00  0.00    +0.000 C 
ATOM     33  C   UNL     1       6.230   4.205  14.040  0.00  0.00    +0.000 C 
ENDBRANCH  30  33
ENDBRANCH  27  30
ENDBRANCH  25  27
ENDBRANCH   1  25
TORSDOF 7
ENDMDL
MODEL 7
REMARK VINA RESULT:      -7.7      2.515      3.471
REMARK  Name = 
REMARK  9 active torsions:
REMARK  status: ('A' for Active; 'I' for Inactive)
REMARK    1  A    between atoms: C_1  and  C_2
REMARK    2  A    between atoms: C_2  and  N_3
REMARK    3  A    between atoms: N_3  and  S_4
REMARK    4  A    between atoms: S_4  and  N_7
REMARK    5  A    between atoms: N_7  and  C_8
REMARK    6  A    between atoms: C_13  and  C_14
REMARK    7  A    between atoms: N_16  and  C_17
REMARK    8  A    between atoms: C_23  and  O_24
REMARK    9  A    between atoms: O_24  and  C_25
REMARK                            x       y       z     vdW  Elec       q    Type
REMARK                         _______ _______ _______ _____ _____    ______ ____
ROOT
ATOM      1  C   UNL     1       4.814   4.174  17.062  0.00  0.00    +0.000 A 
ATOM      2  C   UNL     1       3.923   3.111  16.949  0.00  0.00    +0.000 A 
ATOM      3  C   UNL     1       2.643   3.235  17.476  0.00  0.00    +0.000 A 
ATOM      4  C   UNL     1       2.254   4.422  18.099  0.00  0.00    +0.000 A 
ATOM      5  F   UNL     1       1.008   4.465  18.588  0.00  0.00    +0.000 F 
ATOM      6  C   UNL     1       3.127   5.514  18.206  0.00  0.00    +0.000 A 
ATOM      7  C   UNL     1       4.413   5.372  17.677  0.00  0.00    +0.000 A 
ATOM      8  F   UNL     1       5.308   6.369  17.773  0.00  0.00    +0.000 F 
ENDROOT
BRANCH   6   9
ATOM      9  C   UNL     1       2.664   6.754  18.892  0.00  0.00    +0.000 C 
ATOM     10  O   UNL     1       2.585   6.755  20.114  0.00  0.00    +0.000 OA
ATOM     11  N   UNL     1       2.316   7.838  18.096  0.00  0.00    +0.000 N 
ATOM     12  H   UNL     1       2.315   7.709  17.090  0.00  0.00    +0.000 HD
BRANCH  11  13
ATOM     13  C   UNL     1       1.818   9.080  18.570  0.00  0.00    +0.000 A 
ATOM     14  C   UNL     1       2.053  10.313  17.954  0.00  0.00    +0.000 A 
ATOM     15  N   UNL     1       1.630  11.525  18.399  0.00  0.00    +0.000 NA
ATOM     16  C   UNL     1       0.951  11.445  19.554  0.00  0.00    +0.000 A 
ATOM     17  N   UNL     1       0.450  12.505  20.249  0.00  0.00    +0.000 N 
ATOM     18  N   UNL     1      -0.176  12.160  21.387  0.00  0.00    +0.000 NA
ATOM     19  C   UNL     1      -0.063  10.828  21.409  0.00  0.00    +0.000 A 
ATOM     20  C   UNL     1       0.627  10.307  20.279  0.00  0.00    +0.000 A 
ATOM     21  C   UNL     1       1.051   9.071  19.746  0.00  0.00    +0.000 A 
ATOM     22  H   UNL     1       0.518  13.482  19.996  0.00  0.00    +0.000 HD
BRANCH  19  23
ATOM     23  O   UNL     1      -0.612  10.267  22.507  0.00  0.00    +0.000 OA
ATOM     24  C   UNL     1      -1.542  11.073  23.202  0.00  0.00    +0.000 C 
ENDBRANCH  19  23
ENDBRANCH  11  13
ENDBRANCH   6   9
BRANCH   1  25
ATOM     25  N   UNL     1       6.134   4.030  16.512  0.00  0.00    +0.000 N 
ATOM     26  H   UNL     1       6.838   4.443  17.128  0.00  0.00    +0.000 HD
BRANCH  25  27
ATOM     27  S   UNL     1       6.399   4.717  14.997  0.00  0.00    +0.000 S 
ATOM     28  O   UNL     1       7.784   5.120  14.967  0.00  0.00    +0.000 OA
ATOM     29  O   UNL     1       5.327   5.634  14.702  0.00  0.00    +0.000 OA
BRANCH  27  30
ATOM     30  N   UNL     1       6.258   3.361  14.012  0.00  0.00    +0.000 NA
ATOM     31  H   UNL     1       7.038   2.741  14.228  0.00  0.00    +0.000 HD
BRANCH  30  33
ATOM     32  C   UNL     1       4.960   3.228  11.934  0.00  0.00    +0.000 C 
ATOM     33  C   UNL     1       6.261   3.691  12.564  0.00  0.00    +0.000 C 
ENDBRANCH  30  33
ENDBRANCH  27  30
ENDBRANCH  25  27
ENDBRANCH   1  25
TORSDOF 7
ENDMDL
MODEL 8
REMARK VINA RESULT:      -7.7      2.499      2.927
REMARK  Name = 
REMARK  9 active torsions:
REMARK  status: ('A' for Active; 'I' for Inactive)
REMARK    1  A    between atoms: C_1  and  C_2
REMARK    2  A    between atoms: C_2  and  N_3
REMARK    3  A    between atoms: N_3  and  S_4
REMARK    4  A    between atoms: S_4  and  N_7
REMARK    5  A    between atoms: N_7  and  C_8
REMARK    6  A    between atoms: C_13  and  C_14
REMARK    7  A    between atoms: N_16  and  C_17
REMARK    8  A    between atoms: C_23  and  O_24
REMARK    9  A    between atoms: O_24  and  C_25
REMARK                            x       y       z     vdW  Elec       q    Type
REMARK                         _______ _______ _______ _____ _____    ______ ____
ROOT
ATOM      1  C   UNL     1       4.762   4.056  18.253  0.00  0.00    +0.000 A 
ATOM      2  C   UNL     1       4.033   3.020  17.676  0.00  0.00    +0.000 A 
ATOM      3  C   UNL     1       2.668   2.928  17.921  0.00  0.00    +0.000 A 
ATOM      4  C   UNL     1       2.036   3.878  18.726  0.00  0.00    +0.000 A 
ATOM      5  F   UNL     1       0.719   3.721  18.921  0.00  0.00    +0.000 F 
ATOM      6  C   UNL     1       2.745   4.943  19.300  0.00  0.00    +0.000 A 
ATOM      7  C   UNL     1       4.118   5.017  19.050  0.00  0.00    +0.000 A 
ATOM      8  F   UNL     1       4.862   5.994  19.594  0.00  0.00    +0.000 F 
ENDROOT
BRANCH   6   9
ATOM      9  C   UNL     1       2.022   5.922  20.161  0.00  0.00    +0.000 C 
ATOM     10  O   UNL     1       1.305   5.497  21.058  0.00  0.00    +0.000 OA
ATOM     11  N   UNL     1       2.181   7.271  19.873  0.00  0.00    +0.000 N 
ATOM     12  H   UNL     1       2.712   7.523  19.046  0.00  0.00    +0.000 HD
BRANCH  11  13
ATOM     13  C   UNL     1       1.541   8.339  20.557  0.00  0.00    +0.000 A 
ATOM     14  C   UNL     1       1.634   8.565  21.933  0.00  0.00    +0.000 A 
ATOM     15  N   UNL     1       1.005   9.549  22.628  0.00  0.00    +0.000 NA
ATOM     16  C   UNL     1       0.222  10.314  21.850  0.00  0.00    +0.000 A 
ATOM     17  N   UNL     1      -0.558  11.342  22.286  0.00  0.00    +0.000 N 
ATOM     18  N   UNL     1      -1.261  11.942  21.311  0.00  0.00    +0.000 NA
ATOM     19  C   UNL     1      -0.909  11.261  20.215  0.00  0.00    +0.000 A 
ATOM     20  C   UNL     1       0.032  10.227  20.478  0.00  0.00    +0.000 A 
ATOM     21  C   UNL     1       0.747   9.216  19.800  0.00  0.00    +0.000 A 
ATOM     22  H   UNL     1      -0.654  11.668  23.239  0.00  0.00    +0.000 HD
BRANCH  19  23
ATOM     23  O   UNL     1      -1.535  11.690  19.099  0.00  0.00    +0.000 OA
ATOM     24  C   UNL     1      -1.580  10.765  18.032  0.00  0.00    +0.000 C 
ENDBRANCH  19  23
ENDBRANCH  11  13
ENDBRANCH   6   9
BRANCH   1  25
ATOM     25  N   UNL     1       6.173   4.136  17.990  0.00  0.00    +0.000 N 
ATOM     26  H   UNL     1       6.645   4.721  18.684  0.00  0.00    +0.000 HD
BRANCH  25  27
ATOM     27  S   UNL     1       6.627   4.756  16.491  0.00  0.00    +0.000 S 
ATOM     28  O   UNL     1       5.536   4.485  15.587  0.00  0.00    +0.000 OA
ATOM     29  O   UNL     1       7.980   4.349  16.203  0.00  0.00    +0.000 OA
BRANCH  27  30
ATOM     30  N   UNL     1       6.601   6.406  16.817  0.00  0.00    +0.000 NA
ATOM     31  H   UNL     1       6.802   6.895  15.945  0.00  0.00    +0.000 HD
BRANCH  30  33
ATOM     32  C   UNL     1       7.929   8.276  17.689  0.00  0.00    +0.000 C 
ATOM     33  C   UNL     1       7.579   6.809  17.859  0.00  0.00    +0.000 C 
ENDBRANCH  30  33
ENDBRANCH  27  30
ENDBRANCH  25  27
ENDBRANCH   1  25
TORSDOF 7
ENDMDL
MODEL 9
REMARK VINA RESULT:      -7.7      1.804      2.436
REMARK  Name = 
REMARK  9 active torsions:
REMARK  status: ('A' for Active; 'I' for Inactive)
REMARK    1  A    between atoms: C_1  and  C_2
REMARK    2  A    between atoms: C_2  and  N_3
REMARK    3  A    between atoms: N_3  and  S_4
REMARK    4  A    between atoms: S_4  and  N_7
REMARK    5  A    between atoms: N_7  and  C_8
REMARK    6  A    between atoms: C_13  and  C_14
REMARK    7  A    between atoms: N_16  and  C_17
REMARK    8  A    between atoms: C_23  and  O_24
REMARK    9  A    between atoms: O_24  and  C_25
REMARK                            x       y       z     vdW  Elec       q    Type
REMARK                         _______ _______ _______ _____ _____    ______ ____
ROOT
ATOM      1  C   UNL     1       4.868   4.761  17.124  0.00  0.00    +0.000 A 
ATOM      2  C   UNL     1       4.092   3.606  17.107  0.00  0.00    +0.000 A 
ATOM      3  C   UNL     1       2.794   3.648  17.604  0.00  0.00    +0.000 A 
ATOM      4  C   UNL     1       2.273   4.845  18.099  0.00  0.00    +0.000 A 
ATOM      5  F   UNL     1       1.018   4.807  18.566  0.00  0.00    +0.000 F 
ATOM      6  C   UNL     1       3.028   6.027  18.106  0.00  0.00    +0.000 A 
ATOM      7  C   UNL     1       4.332   5.966  17.610  0.00  0.00    +0.000 A 
ATOM      8  F   UNL     1       5.120   7.055  17.615  0.00  0.00    +0.000 F 
ENDROOT
BRANCH   6   9
ATOM      9  C   UNL     1       2.425   7.274  18.657  0.00  0.00    +0.000 C 
ATOM     10  O   UNL     1       2.310   7.384  19.871  0.00  0.00    +0.000 OA
ATOM     11  N   UNL     1       1.997   8.236  17.751  0.00  0.00    +0.000 N 
ATOM     12  H   UNL     1       2.039   8.012  16.763  0.00  0.00    +0.000 HD
BRANCH  11  13
ATOM     13  C   UNL     1       1.366   9.462  18.090  0.00  0.00    +0.000 A 
ATOM     14  C   UNL     1      -0.017   9.662  18.103  0.00  0.00    +0.000 A 
ATOM     15  N   UNL     1      -0.656  10.829  18.380  0.00  0.00    +0.000 NA
ATOM     16  C   UNL     1       0.193  11.838  18.630  0.00  0.00    +0.000 A 
ATOM     17  N   UNL     1      -0.167  13.126  18.893  0.00  0.00    +0.000 N 
ATOM     18  N   UNL     1       0.874  13.951  19.094  0.00  0.00    +0.000 NA
ATOM     19  C   UNL     1       1.934  13.149  18.950  0.00  0.00    +0.000 A 
ATOM     20  C   UNL     1       1.580  11.800  18.667  0.00  0.00    +0.000 A 
ATOM     21  C   UNL     1       2.189  10.552  18.417  0.00  0.00    +0.000 A 
ATOM     22  H   UNL     1      -1.109  13.494  18.937  0.00  0.00    +0.000 HD
BRANCH  19  23
ATOM     23  O   UNL     1       3.111  13.796  19.086  0.00  0.00    +0.000 OA
ATOM     24  C   UNL     1       3.547  14.513  17.949  0.00  0.00    +0.000 C 
ENDBRANCH  19  23
ENDBRANCH  11  13
ENDBRANCH   6   9
BRANCH   1  25
ATOM     25  N   UNL     1       6.207   4.700  16.607  0.00  0.00    +0.000 N 
ATOM     26  H   UNL     1       6.833   5.317  17.131  0.00  0.00    +0.000 HD
BRANCH  25  27
ATOM     27  S   UNL     1       6.412   5.117  14.988  0.00  0.00    +0.000 S 
ATOM     28  O   UNL     1       7.804   5.460  14.825  0.00  0.00    +0.000 OA
ATOM     29  O   UNL     1       5.351   6.011  14.594  0.00  0.00    +0.000 OA
BRANCH  27  30
ATOM     30  N   UNL     1       6.181   3.623  14.252  0.00  0.00    +0.000 NA
ATOM     31  H   UNL     1       6.834   2.966  14.677  0.00  0.00    +0.000 HD
BRANCH  30  33
ATOM     32  C   UNL     1       5.095   3.307  12.074  0.00  0.00    +0.000 C 
ATOM     33  C   UNL     1       6.390   3.661  12.781  0.00  0.00    +0.000 C 
ENDBRANCH  30  33
ENDBRANCH  27  30
ENDBRANCH  25  27
ENDBRANCH   1  25
TORSDOF 7
ENDMDL
