MODEL 1
REMARK VINA RESULT:      -7.8      0.000      0.000
REMARK  Name = 
REMARK  3 active torsions:
REMARK  status: ('A' for Active; 'I' for Inactive)
REMARK    1  A    between atoms: C_4  and  C_5
REMARK    2  A    between atoms: C_9  and  O_10
REMARK    3  A    between atoms: C_15  and  O_16
REMARK                            x       y       z     vdW  Elec       q    Type
REMARK                         _______ _______ _______ _____ _____    ______ ____
ROOT
ATOM      1  O   UNL     1       2.633   2.927  17.678  0.00  0.00    +0.000 OA
ATOM      2  C   UNL     1       2.985   4.099  17.597  0.00  0.00    +0.000 C 
ATOM      3  C   UNL     1       2.131   5.237  18.073  0.00  0.00    +0.000 C 
ATOM      4  C   UNL     1       3.051   6.336  18.592  0.00  0.00    +0.000 C 
ATOM      5  O   UNL     1       3.934   6.809  17.560  0.00  0.00    +0.000 OA
ATOM      6  C   UNL     1       4.640   5.813  16.938  0.00  0.00    +0.000 A 
ATOM      7  C   UNL     1       5.788   6.204  16.250  0.00  0.00    +0.000 A 
ATOM      8  C   UNL     1       6.541   5.245  15.579  0.00  0.00    +0.000 A 
ATOM      9  C   UNL     1       6.164   3.904  15.581  0.00  0.00    +0.000 A 
ATOM     10  C   UNL     1       5.011   3.513  16.261  0.00  0.00    +0.000 A 
ATOM     11  C   UNL     1       4.248   4.473  16.933  0.00  0.00    +0.000 A 
ENDROOT
BRANCH   4  12
ATOM     12  C   UNL     1       2.258   7.530  19.089  0.00  0.00    +0.000 A 
ATOM     13  C   UNL     1       1.787   7.586  20.411  0.00  0.00    +0.000 A 
ATOM     14  C   UNL     1       1.072   8.694  20.870  0.00  0.00    +0.000 A 
ATOM     15  C   UNL     1       0.804   9.758  20.012  0.00  0.00    +0.000 A 
ATOM     16  C   UNL     1       1.257   9.701  18.697  0.00  0.00    +0.000 A 
ATOM     17  C   UNL     1       1.978   8.604  18.231  0.00  0.00    +0.000 A 
BRANCH  16  18
ATOM     18  O   UNL     1       1.008  10.718  17.821  0.00  0.00    +0.000 OA
ATOM     19  H   UNL     1       1.003  10.356  16.920  0.00  0.00    +0.000 HD
ENDBRANCH  16  18
ENDBRANCH   4  12
BRANCH   8  20
ATOM     20  O   UNL     1       7.670   5.580  14.892  0.00  0.00    +0.000 OA
ATOM     21  H   UNL     1       8.335   5.908  15.521  0.00  0.00    +0.000 HD
ENDBRANCH   8  20
TORSDOF 3
ENDMDL
MODEL 2
REMARK VINA RESULT:      -7.8      3.820      6.863
REMARK  Name = 
REMARK  3 active torsions:
REMARK  status: ('A' for Active; 'I' for Inactive)
REMARK    1  A    between atoms: C_4  and  C_5
REMARK    2  A    between atoms: C_9  and  O_10
REMARK    3  A    between atoms: C_15  and  O_16
REMARK                            x       y       z     vdW  Elec       q    Type
REMARK                         _______ _______ _______ _____ _____    ______ ____
ROOT
ATOM      1  O   UNL     1       6.273   5.087  19.570  0.00  0.00    +0.000 OA
ATOM      2  C   UNL     1       5.691   4.744  18.547  0.00  0.00    +0.000 C 
ATOM      3  C   UNL     1       6.221   5.038  17.175  0.00  0.00    +0.000 C 
ATOM      4  C   UNL     1       5.816   3.892  16.254  0.00  0.00    +0.000 C 
ATOM      5  O   UNL     1       4.386   3.755  16.187  0.00  0.00    +0.000 OA
ATOM      6  C   UNL     1       3.784   3.653  17.414  0.00  0.00    +0.000 A 
ATOM      7  C   UNL     1       2.501   3.107  17.430  0.00  0.00    +0.000 A 
ATOM      8  C   UNL     1       1.823   2.994  18.641  0.00  0.00    +0.000 A 
ATOM      9  C   UNL     1       2.405   3.419  19.833  0.00  0.00    +0.000 A 
ATOM     10  C   UNL     1       3.685   3.973  19.817  0.00  0.00    +0.000 A 
ATOM     11  C   UNL     1       4.368   4.094  18.603  0.00  0.00    +0.000 A 
ENDROOT
BRANCH   4  12
ATOM     12  C   UNL     1       6.314   4.119  14.839  0.00  0.00    +0.000 A 
ATOM     13  C   UNL     1       5.725   3.455  13.750  0.00  0.00    +0.000 A 
ATOM     14  C   UNL     1       6.173   3.679  12.447  0.00  0.00    +0.000 A 
ATOM     15  C   UNL     1       7.228   4.558  12.213  0.00  0.00    +0.000 A 
ATOM     16  C   UNL     1       7.824   5.208  13.289  0.00  0.00    +0.000 A 
ATOM     17  C   UNL     1       7.379   4.998  14.593  0.00  0.00    +0.000 A 
BRANCH  16  18
ATOM     18  O   UNL     1       8.865   6.070  13.104  0.00  0.00    +0.000 OA
ATOM     19  H   UNL     1       8.603   6.947  13.428  0.00  0.00    +0.000 HD
ENDBRANCH  16  18
ENDBRANCH   4  12
BRANCH   8  20
ATOM     20  O   UNL     1       0.567   2.468  18.706  0.00  0.00    +0.000 OA
ATOM     21  H   UNL     1       0.150   2.538  17.830  0.00  0.00    +0.000 HD
ENDBRANCH   8  20
TORSDOF 3
ENDMDL
MODEL 3
REMARK VINA RESULT:      -7.7      1.046      1.521
REMARK  Name = 
REMARK  3 active torsions:
REMARK  status: ('A' for Active; 'I' for Inactive)
REMARK    1  A    between atoms: C_4  and  C_5
REMARK    2  A    between atoms: C_9  and  O_10
REMARK    3  A    between atoms: C_15  and  O_16
REMARK                            x       y       z     vdW  Elec       q    Type
REMARK                         _______ _______ _______ _____ _____    ______ ____
ROOT
ATOM      1  O   UNL     1       2.692   2.947  17.673  0.00  0.00    +0.000 OA
ATOM      2  C   UNL     1       3.035   4.117  17.542  0.00  0.00    +0.000 C 
ATOM      3  C   UNL     1       2.172   5.268  17.967  0.00  0.00    +0.000 C 
ATOM      4  C   UNL     1       3.082   6.396  18.436  0.00  0.00    +0.000 C 
ATOM      5  O   UNL     1       3.962   6.831  17.385  0.00  0.00    +0.000 OA
ATOM      6  C   UNL     1       4.676   5.814  16.808  0.00  0.00    +0.000 A 
ATOM      7  C   UNL     1       5.822   6.184  16.104  0.00  0.00    +0.000 A 
ATOM      8  C   UNL     1       6.582   5.201  15.475  0.00  0.00    +0.000 A 
ATOM      9  C   UNL     1       6.216   3.860  15.536  0.00  0.00    +0.000 A 
ATOM     10  C   UNL     1       5.066   3.489  16.233  0.00  0.00    +0.000 A 
ATOM     11  C   UNL     1       4.296   4.472  16.862  0.00  0.00    +0.000 A 
ENDROOT
BRANCH   4  12
ATOM     12  C   UNL     1       2.280   7.604  18.880  0.00  0.00    +0.000 A 
ATOM     13  C   UNL     1       1.948   8.626  17.974  0.00  0.00    +0.000 A 
ATOM     14  C   UNL     1       1.195   9.728  18.382  0.00  0.00    +0.000 A 
ATOM     15  C   UNL     1       0.774   9.836  19.705  0.00  0.00    +0.000 A 
ATOM     16  C   UNL     1       1.112   8.834  20.610  0.00  0.00    +0.000 A 
ATOM     17  C   UNL     1       1.856   7.726  20.212  0.00  0.00    +0.000 A 
BRANCH  16  18
ATOM     18  O   UNL     1       0.726   8.906  21.917  0.00  0.00    +0.000 OA
ATOM     19  H   UNL     1       1.475   8.639  22.476  0.00  0.00    +0.000 HD
ENDBRANCH  16  18
ENDBRANCH   4  12
BRANCH   8  20
ATOM     20  O   UNL     1       7.709   5.516  14.775  0.00  0.00    +0.000 OA
ATOM     21  H   UNL     1       8.467   5.054  15.172  0.00  0.00    +0.000 HD
ENDBRANCH   8  20
TORSDOF 3
ENDMDL
MODEL 4
REMARK VINA RESULT:      -7.7      3.188      4.278
REMARK  Name = 
REMARK  3 active torsions:
REMARK  status: ('A' for Active; 'I' for Inactive)
REMARK    1  A    between atoms: C_4  and  C_5
REMARK    2  A    between atoms: C_9  and  O_10
REMARK    3  A    between atoms: C_15  and  O_16
REMARK                            x       y       z     vdW  Elec       q    Type
REMARK                         _______ _______ _______ _____ _____    ______ ____
ROOT
ATOM      1  O   UNL     1       7.224   6.423  18.010  0.00  0.00    +0.000 OA
ATOM      2  C   UNL     1       6.336   5.667  17.632  0.00  0.00    +0.000 C 
ATOM      3  C   UNL     1       5.276   5.136  18.552  0.00  0.00    +0.000 C 
ATOM      4  C   UNL     1       3.991   4.971  17.750  0.00  0.00    +0.000 C 
ATOM      5  O   UNL     1       4.170   4.052  16.658  0.00  0.00    +0.000 OA
ATOM      6  C   UNL     1       5.233   4.357  15.849  0.00  0.00    +0.000 A 
ATOM      7  C   UNL     1       5.223   3.793  14.574  0.00  0.00    +0.000 A 
ATOM      8  C   UNL     1       6.284   4.045  13.708  0.00  0.00    +0.000 A 
ATOM      9  C   UNL     1       7.353   4.848  14.097  0.00  0.00    +0.000 A 
ATOM     10  C   UNL     1       7.369   5.406  15.375  0.00  0.00    +0.000 A 
ATOM     11  C   UNL     1       6.309   5.152  16.250  0.00  0.00    +0.000 A 
ENDROOT
BRANCH   4  12
ATOM     12  C   UNL     1       2.867   4.430  18.613  0.00  0.00    +0.000 A 
ATOM     13  C   UNL     1       2.611   4.966  19.887  0.00  0.00    +0.000 A 
ATOM     14  C   UNL     1       1.565   4.478  20.672  0.00  0.00    +0.000 A 
ATOM     15  C   UNL     1       0.768   3.436  20.204  0.00  0.00    +0.000 A 
ATOM     16  C   UNL     1       1.026   2.892  18.950  0.00  0.00    +0.000 A 
ATOM     17  C   UNL     1       2.062   3.377  18.155  0.00  0.00    +0.000 A 
BRANCH  16  18
ATOM     18  O   UNL     1       0.274   1.864  18.458  0.00  0.00    +0.000 OA
ATOM     19  H   UNL     1      -0.660   2.129  18.474  0.00  0.00    +0.000 HD
ENDBRANCH  16  18
ENDBRANCH   4  12
BRANCH   8  20
ATOM     20  O   UNL     1       6.318   3.515  12.453  0.00  0.00    +0.000 OA
ATOM     21  H   UNL     1       5.802   4.083  11.856  0.00  0.00    +0.000 HD
ENDBRANCH   8  20
TORSDOF 3
ENDMDL
MODEL 5
REMARK VINA RESULT:      -7.6      2.568      7.043
REMARK  Name = 
REMARK  3 active torsions:
REMARK  status: ('A' for Active; 'I' for Inactive)
REMARK    1  A    between atoms: C_4  and  C_5
REMARK    2  A    between atoms: C_9  and  O_10
REMARK    3  A    between atoms: C_15  and  O_16
REMARK                            x       y       z     vdW  Elec       q    Type
REMARK                         _______ _______ _______ _____ _____    ______ ____
ROOT
ATOM      1  O   UNL     1       1.885  10.160  17.431  0.00  0.00    +0.000 OA
ATOM      2  C   UNL     1       1.804   9.236  18.232  0.00  0.00    +0.000 C 
ATOM      3  C   UNL     1       2.038   7.805  17.846  0.00  0.00    +0.000 C 
ATOM      4  C   UNL     1       2.657   7.087  19.040  0.00  0.00    +0.000 C 
ATOM      5  O   UNL     1       1.787   7.130  20.185  0.00  0.00    +0.000 OA
ATOM      6  C   UNL     1       1.374   8.394  20.516  0.00  0.00    +0.000 A 
ATOM      7  C   UNL     1       0.898   8.569  21.815  0.00  0.00    +0.000 A 
ATOM      8  C   UNL     1       0.442   9.823  22.211  0.00  0.00    +0.000 A 
ATOM      9  C   UNL     1       0.452  10.902  21.331  0.00  0.00    +0.000 A 
ATOM     10  C   UNL     1       0.920  10.727  20.029  0.00  0.00    +0.000 A 
ATOM     11  C   UNL     1       1.374   9.468  19.624  0.00  0.00    +0.000 A 
ENDROOT
BRANCH   4  12
ATOM     12  C   UNL     1       2.920   5.626  18.729  0.00  0.00    +0.000 A 
ATOM     13  C   UNL     1       2.034   4.885  17.927  0.00  0.00    +0.000 A 
ATOM     14  C   UNL     1       2.288   3.545  17.629  0.00  0.00    +0.000 A 
ATOM     15  C   UNL     1       3.422   2.919  18.140  0.00  0.00    +0.000 A 
ATOM     16  C   UNL     1       4.295   3.643  18.946  0.00  0.00    +0.000 A 
ATOM     17  C   UNL     1       4.056   4.983  19.243  0.00  0.00    +0.000 A 
BRANCH  16  18
ATOM     18  O   UNL     1       5.413   3.065  19.472  0.00  0.00    +0.000 OA
ATOM     19  H   UNL     1       5.923   3.746  19.941  0.00  0.00    +0.000 HD
ENDBRANCH  16  18
ENDBRANCH   4  12
BRANCH   8  20
ATOM     20  O   UNL     1      -0.033  10.042  23.470  0.00  0.00    +0.000 OA
ATOM     21  H   UNL     1      -0.933   9.680  23.535  0.00  0.00    +0.000 HD
ENDBRANCH   8  20
TORSDOF 3
ENDMDL
MODEL 6
REMARK VINA RESULT:      -7.6      3.650      4.534
REMARK  Name = 
REMARK  3 active torsions:
REMARK  status: ('A' for Active; 'I' for Inactive)
REMARK    1  A    between atoms: C_4  and  C_5
REMARK    2  A    between atoms: C_9  and  O_10
REMARK    3  A    between atoms: C_15  and  O_16
REMARK                            x       y       z     vdW  Elec       q    Type
REMARK                         _______ _______ _______ _____ _____    ______ ____
ROOT
ATOM      1  O   UNL     1       7.298   5.977  18.320  0.00  0.00    +0.000 OA
ATOM      2  C   UNL     1       6.398   5.269  17.881  0.00  0.00    +0.000 C 
ATOM      3  C   UNL     1       5.352   4.649  18.760  0.00  0.00    +0.000 C 
ATOM      4  C   UNL     1       4.051   4.574  17.969  0.00  0.00    +0.000 C 
ATOM      5  O   UNL     1       4.205   3.775  16.783  0.00  0.00    +0.000 OA
ATOM      6  C   UNL     1       5.254   4.159  15.991  0.00  0.00    +0.000 A 
ATOM      7  C   UNL     1       5.217   3.732  14.664  0.00  0.00    +0.000 A 
ATOM      8  C   UNL     1       6.264   4.069  13.810  0.00  0.00    +0.000 A 
ATOM      9  C   UNL     1       7.345   4.822  14.260  0.00  0.00    +0.000 A 
ATOM     10  C   UNL     1       7.388   5.242  15.590  0.00  0.00    +0.000 A 
ATOM     11  C   UNL     1       6.343   4.902  16.453  0.00  0.00    +0.000 A 
ENDROOT
BRANCH   4  12
ATOM     12  C   UNL     1       2.940   3.951  18.792  0.00  0.00    +0.000 A 
ATOM     13  C   UNL     1       1.780   3.448  18.179  0.00  0.00    +0.000 A 
ATOM     14  C   UNL     1       0.767   2.860  18.937  0.00  0.00    +0.000 A 
ATOM     15  C   UNL     1       0.888   2.777  20.322  0.00  0.00    +0.000 A 
ATOM     16  C   UNL     1       2.029   3.287  20.936  0.00  0.00    +0.000 A 
ATOM     17  C   UNL     1       3.050   3.869  20.188  0.00  0.00    +0.000 A 
BRANCH  16  18
ATOM     18  O   UNL     1       2.184   3.234  22.291  0.00  0.00    +0.000 OA
ATOM     19  H   UNL     1       1.305   3.195  22.702  0.00  0.00    +0.000 HD
ENDBRANCH  16  18
ENDBRANCH   4  12
BRANCH   8  20
ATOM     20  O   UNL     1       6.271   3.674  12.505  0.00  0.00    +0.000 OA
ATOM     21  H   UNL     1       5.353   3.610  12.190  0.00  0.00    +0.000 HD
ENDBRANCH   8  20
TORSDOF 3
ENDMDL
MODEL 7
REMARK VINA RESULT:      -7.5      2.922      7.075
REMARK  Name = 
REMARK  3 active torsions:
REMARK  status: ('A' for Active; 'I' for Inactive)
REMARK    1  A    between atoms: C_4  and  C_5
REMARK    2  A    between atoms: C_9  and  O_10
REMARK    3  A    between atoms: C_15  and  O_16
REMARK                            x       y       z     vdW  Elec       q    Type
REMARK                         _______ _______ _______ _____ _____    ______ ____
ROOT
ATOM      1  O   UNL     1       2.081   9.448  17.426  0.00  0.00    +0.000 OA
ATOM      2  C   UNL     1       1.842   8.769  18.418  0.00  0.00    +0.000 C 
ATOM      3  C   UNL     1       1.985   7.275  18.432  0.00  0.00    +0.000 C 
ATOM      4  C   UNL     1       2.420   6.854  19.831  0.00  0.00    +0.000 C 
ATOM      5  O   UNL     1       1.451   7.243  20.820  0.00  0.00    +0.000 OA
ATOM      6  C   UNL     1       1.120   8.572  20.775  0.00  0.00    +0.000 A 
ATOM      7  C   UNL     1       0.538   9.105  21.924  0.00  0.00    +0.000 A 
ATOM      8  C   UNL     1       0.158  10.444  21.938  0.00  0.00    +0.000 A 
ATOM      9  C   UNL     1       0.348  11.257  20.824  0.00  0.00    +0.000 A 
ATOM     10  C   UNL     1       0.923  10.723  19.670  0.00  0.00    +0.000 A 
ATOM     11  C   UNL     1       1.301   9.378  19.649  0.00  0.00    +0.000 A 
ENDROOT
BRANCH   4  12
ATOM     12  C   UNL     1       2.582   5.348  19.928  0.00  0.00    +0.000 A 
ATOM     13  C   UNL     1       1.524   4.533  20.365  0.00  0.00    +0.000 A 
ATOM     14  C   UNL     1       1.671   3.147  20.437  0.00  0.00    +0.000 A 
ATOM     15  C   UNL     1       2.882   2.553  20.088  0.00  0.00    +0.000 A 
ATOM     16  C   UNL     1       3.937   3.357  19.668  0.00  0.00    +0.000 A 
ATOM     17  C   UNL     1       3.799   4.741  19.585  0.00  0.00    +0.000 A 
BRANCH  16  18
ATOM     18  O   UNL     1       5.143   2.817  19.326  0.00  0.00    +0.000 OA
ATOM     19  H   UNL     1       5.059   2.400  18.453  0.00  0.00    +0.000 HD
ENDBRANCH  16  18
ENDBRANCH   4  12
BRANCH   8  20
ATOM     20  O   UNL     1      -0.416  11.008  23.039  0.00  0.00    +0.000 OA
ATOM     21  H   UNL     1      -1.161  10.454  23.325  0.00  0.00    +0.000 HD
ENDBRANCH   8  20
TORSDOF 3
ENDMDL
MODEL 8
REMARK VINA RESULT:      -7.5      2.743      6.808
REMARK  Name = 
REMARK  3 active torsions:
REMARK  status: ('A' for Active; 'I' for Inactive)
REMARK    1  A    between atoms: C_4  and  C_5
REMARK    2  A    between atoms: C_9  and  O_10
REMARK    3  A    between atoms: C_15  and  O_16
REMARK                            x       y       z     vdW  Elec       q    Type
REMARK                         _______ _______ _______ _____ _____    ______ ____
ROOT
ATOM      1  O   UNL     1       4.091   7.027  18.428  0.00  0.00    +0.000 OA
ATOM      2  C   UNL     1       4.083   6.051  17.687  0.00  0.00    +0.000 C 
ATOM      3  C   UNL     1       4.786   6.034  16.361  0.00  0.00    +0.000 C 
ATOM      4  C   UNL     1       5.281   4.616  16.105  0.00  0.00    +0.000 C 
ATOM      5  O   UNL     1       4.191   3.678  16.071  0.00  0.00    +0.000 OA
ATOM      6  C   UNL     1       3.380   3.737  17.174  0.00  0.00    +0.000 A 
ATOM      7  C   UNL     1       2.584   2.618  17.417  0.00  0.00    +0.000 A 
ATOM      8  C   UNL     1       1.720   2.620  18.509  0.00  0.00    +0.000 A 
ATOM      9  C   UNL     1       1.638   3.720  19.359  0.00  0.00    +0.000 A 
ATOM     10  C   UNL     1       2.427   4.843  19.112  0.00  0.00    +0.000 A 
ATOM     11  C   UNL     1       3.292   4.849  18.014  0.00  0.00    +0.000 A 
ENDROOT
BRANCH   4  12
ATOM     12  C   UNL     1       6.002   4.515  14.774  0.00  0.00    +0.000 A 
ATOM     13  C   UNL     1       5.548   3.645  13.768  0.00  0.00    +0.000 A 
ATOM     14  C   UNL     1       6.203   3.567  12.538  0.00  0.00    +0.000 A 
ATOM     15  C   UNL     1       7.333   4.346  12.298  0.00  0.00    +0.000 A 
ATOM     16  C   UNL     1       7.795   5.200  13.295  0.00  0.00    +0.000 A 
ATOM     17  C   UNL     1       7.144   5.291  14.523  0.00  0.00    +0.000 A 
BRANCH  16  18
ATOM     18  O   UNL     1       8.903   5.974  13.103  0.00  0.00    +0.000 OA
ATOM     19  H   UNL     1       9.656   5.393  12.906  0.00  0.00    +0.000 HD
ENDBRANCH  16  18
ENDBRANCH   4  12
BRANCH   8  20
ATOM     20  O   UNL     1       0.923   1.549  18.786  0.00  0.00    +0.000 OA
ATOM     21  H   UNL     1       0.675   1.116  17.951  0.00  0.00    +0.000 HD
ENDBRANCH   8  20
TORSDOF 3
ENDMDL
MODEL 9
REMARK VINA RESULT:      -7.3      3.017      7.126
REMARK  Name = 
REMARK  3 active torsions:
REMARK  status: ('A' for Active; 'I' for Inactive)
REMARK    1  A    between atoms: C_4  and  C_5
REMARK    2  A    between atoms: C_9  and  O_10
REMARK    3  A    between atoms: C_15  and  O_16
REMARK                            x       y       z     vdW  Elec       q    Type
REMARK                         _______ _______ _______ _____ _____    ______ ____
ROOT
ATOM      1  O   UNL     1       1.989   9.434  17.382  0.00  0.00    +0.000 OA
ATOM      2  C   UNL     1       1.807   8.755  18.387  0.00  0.00    +0.000 C 
ATOM      3  C   UNL     1       2.009   7.268  18.408  0.00  0.00    +0.000 C 
ATOM      4  C   UNL     1       2.502   6.877  19.796  0.00  0.00    +0.000 C 
ATOM      5  O   UNL     1       1.548   7.237  20.811  0.00  0.00    +0.000 OA
ATOM      6  C   UNL     1       1.165   8.551  20.765  0.00  0.00    +0.000 A 
ATOM      7  C   UNL     1       0.596   9.071  21.928  0.00  0.00    +0.000 A 
ATOM      8  C   UNL     1       0.165  10.395  21.942  0.00  0.00    +0.000 A 
ATOM      9  C   UNL     1       0.289  11.204  20.816  0.00  0.00    +0.000 A 
ATOM     10  C   UNL     1       0.849  10.683  19.650  0.00  0.00    +0.000 A 
ATOM     11  C   UNL     1       1.280   9.353  19.628  0.00  0.00    +0.000 A 
ENDROOT
BRANCH   4  12
ATOM     12  C   UNL     1       2.726   5.380  19.900  0.00  0.00    +0.000 A 
ATOM     13  C   UNL     1       3.506   4.697  18.952  0.00  0.00    +0.000 A 
ATOM     14  C   UNL     1       3.724   3.323  19.060  0.00  0.00    +0.000 A 
ATOM     15  C   UNL     1       3.155   2.605  20.109  0.00  0.00    +0.000 A 
ATOM     16  C   UNL     1       2.369   3.274  21.043  0.00  0.00    +0.000 A 
ATOM     17  C   UNL     1       2.152   4.647  20.949  0.00  0.00    +0.000 A 
BRANCH  16  18
ATOM     18  O   UNL     1       1.786   2.607  22.081  0.00  0.00    +0.000 OA
ATOM     19  H   UNL     1       1.113   2.004  21.723  0.00  0.00    +0.000 HD
ENDBRANCH  16  18
ENDBRANCH   4  12
BRANCH   8  20
ATOM     20  O   UNL     1      -0.397  10.946  23.056  0.00  0.00    +0.000 OA
ATOM     21  H   UNL     1       0.309  11.196  23.675  0.00  0.00    +0.000 HD
ENDBRANCH   8  20
TORSDOF 3
ENDMDL
