MODEL 1
REMARK VINA RESULT:      -7.6      0.000      0.000
REMARK  Name = 
REMARK  4 active torsions:
REMARK  status: ('A' for Active; 'I' for Inactive)
REMARK    1  A    between atoms: C_1  and  N_2
REMARK    2  A    between atoms: N_5  and  C_6
REMARK    3  A    between atoms: C_9  and  S_10
REMARK    4  A    between atoms: S_10  and  N_13
REMARK                            x       y       z     vdW  Elec       q    Type
REMARK                         _______ _______ _______ _____ _____    ______ ____
ROOT
ATOM      1  S   UNL     1       3.301   3.604  17.914  0.00  0.00    +0.000 S 
ATOM      2  O   UNL     1       3.754   2.637  18.893  0.00  0.00    +0.000 OA
ATOM      3  O   UNL     1       2.279   3.240  16.957  0.00  0.00    +0.000 OA
ENDROOT
BRANCH   1  12
ATOM      4  C   UNL     1       0.759   8.568  22.166  0.00  0.00    +0.000 C 
ATOM      5  N   UNL     1       1.230   8.315  20.835  0.00  0.00    +0.000 N 
ATOM      6  C   UNL     1       1.347   9.288  19.817  0.00  0.00    +0.000 A 
ATOM      7  O   UNL     1       1.087  10.477  19.907  0.00  0.00    +0.000 OA
ATOM      8  N   UNL     1       1.838   8.609  18.682  0.00  0.00    +0.000 N 
ATOM      9  C   UNL     1       2.162   9.221  17.426  0.00  0.00    +0.000 C 
ATOM     10  C   UNL     1       2.040   7.261  19.004  0.00  0.00    +0.000 A 
ATOM     11  C   UNL     1       2.530   6.230  18.233  0.00  0.00    +0.000 A 
ATOM     12  C   UNL     1       2.671   4.983  18.859  0.00  0.00    +0.000 A 
ATOM     13  C   UNL     1       2.261   4.784  20.198  0.00  0.00    +0.000 A 
ATOM     14  C   UNL     1       1.754   5.848  20.956  0.00  0.00    +0.000 A 
ATOM     15  C   UNL     1       1.662   7.077  20.338  0.00  0.00    +0.000 A 
ENDBRANCH   1  12
BRANCH   1  16
ATOM     16  N   UNL     1       4.652   4.222  17.088  0.00  0.00    +0.000 N 
ATOM     17  C   UNL     1       4.874   3.767  15.697  0.00  0.00    +0.000 C 
ATOM     18  C   UNL     1       5.326   4.961  14.875  0.00  0.00    +0.000 C 
ATOM     19  C   UNL     1       6.655   5.475  15.401  0.00  0.00    +0.000 C 
ATOM     20  C   UNL     1       6.715   5.544  16.908  0.00  0.00    +0.000 A 
ATOM     21  C   UNL     1       7.784   6.255  17.481  0.00  0.00    +0.000 A 
ATOM     22  C   UNL     1       7.922   6.336  18.861  0.00  0.00    +0.000 A 
ATOM     23  C   UNL     1       6.999   5.694  19.677  0.00  0.00    +0.000 A 
ATOM     24  C   UNL     1       5.932   4.977  19.117  0.00  0.00    +0.000 A 
ATOM     25  C   UNL     1       5.770   4.888  17.731  0.00  0.00    +0.000 A 
ENDBRANCH   1  16
TORSDOF 2
ENDMDL
MODEL 2
REMARK VINA RESULT:      -7.2      0.810      2.297
REMARK  Name = 
REMARK  4 active torsions:
REMARK  status: ('A' for Active; 'I' for Inactive)
REMARK    1  A    between atoms: C_1  and  N_2
REMARK    2  A    between atoms: N_5  and  C_6
REMARK    3  A    between atoms: C_9  and  S_10
REMARK    4  A    between atoms: S_10  and  N_13
REMARK                            x       y       z     vdW  Elec       q    Type
REMARK                         _______ _______ _______ _____ _____    ______ ____
ROOT
ATOM      1  S   UNL     1       3.420   4.121  18.619  0.00  0.00    +0.000 S 
ATOM      2  O   UNL     1       3.550   3.118  19.657  0.00  0.00    +0.000 OA
ATOM      3  O   UNL     1       2.703   3.814  17.401  0.00  0.00    +0.000 OA
ENDROOT
BRANCH   1  12
ATOM      4  C   UNL     1       0.010   9.107  22.182  0.00  0.00    +0.000 C 
ATOM      5  N   UNL     1       0.703   8.828  20.957  0.00  0.00    +0.000 N 
ATOM      6  C   UNL     1       0.943   9.768  19.929  0.00  0.00    +0.000 A 
ATOM      7  O   UNL     1       0.622  10.946  19.923  0.00  0.00    +0.000 OA
ATOM      8  N   UNL     1       1.642   9.073  18.920  0.00  0.00    +0.000 N 
ATOM      9  C   UNL     1       2.140   9.654  17.708  0.00  0.00    +0.000 C 
ATOM     10  C   UNL     1       1.845   7.750  19.329  0.00  0.00    +0.000 A 
ATOM     11  C   UNL     1       2.498   6.716  18.693  0.00  0.00    +0.000 A 
ATOM     12  C   UNL     1       2.587   5.502  19.389  0.00  0.00    +0.000 A 
ATOM     13  C   UNL     1       1.972   5.332  20.651  0.00  0.00    +0.000 A 
ATOM     14  C   UNL     1       1.303   6.397  21.270  0.00  0.00    +0.000 A 
ATOM     15  C   UNL     1       1.262   7.596  20.591  0.00  0.00    +0.000 A 
ENDBRANCH   1  12
BRANCH   1  16
ATOM     16  N   UNL     1       4.968   4.708  18.229  0.00  0.00    +0.000 N 
ATOM     17  C   UNL     1       5.642   5.577  19.221  0.00  0.00    +0.000 C 
ATOM     18  C   UNL     1       7.110   5.191  19.266  0.00  0.00    +0.000 C 
ATOM     19  C   UNL     1       7.754   5.459  17.916  0.00  0.00    +0.000 C 
ATOM     20  C   UNL     1       6.905   5.014  16.749  0.00  0.00    +0.000 A 
ATOM     21  C   UNL     1       7.517   4.965  15.485  0.00  0.00    +0.000 A 
ATOM     22  C   UNL     1       6.790   4.595  14.360  0.00  0.00    +0.000 A 
ATOM     23  C   UNL     1       5.441   4.287  14.491  0.00  0.00    +0.000 A 
ATOM     24  C   UNL     1       4.819   4.338  15.746  0.00  0.00    +0.000 A 
ATOM     25  C   UNL     1       5.533   4.701  16.892  0.00  0.00    +0.000 A 
ENDBRANCH   1  16
TORSDOF 2
ENDMDL
MODEL 3
REMARK VINA RESULT:      -7.1      3.029      7.649
REMARK  Name = 
REMARK  4 active torsions:
REMARK  status: ('A' for Active; 'I' for Inactive)
REMARK    1  A    between atoms: C_1  and  N_2
REMARK    2  A    between atoms: N_5  and  C_6
REMARK    3  A    between atoms: C_9  and  S_10
REMARK    4  A    between atoms: S_10  and  N_13
REMARK                            x       y       z     vdW  Elec       q    Type
REMARK                         _______ _______ _______ _____ _____    ______ ____
ROOT
ATOM      1  S   UNL     1       0.619   9.300  21.385  0.00  0.00    +0.000 S 
ATOM      2  O   UNL     1      -0.692   8.716  21.582  0.00  0.00    +0.000 OA
ATOM      3  O   UNL     1       1.459   9.596  22.525  0.00  0.00    +0.000 OA
ENDROOT
BRANCH   1  12
ATOM      4  C   UNL     1       4.209   5.283  16.896  0.00  0.00    +0.000 C 
ATOM      5  N   UNL     1       3.515   5.280  18.151  0.00  0.00    +0.000 N 
ATOM      6  C   UNL     1       3.399   4.164  19.011  0.00  0.00    +0.000 A 
ATOM      7  O   UNL     1       3.872   3.052  18.836  0.00  0.00    +0.000 OA
ATOM      8  N   UNL     1       2.639   4.601  20.116  0.00  0.00    +0.000 N 
ATOM      9  C   UNL     1       2.321   3.807  21.268  0.00  0.00    +0.000 C 
ATOM     10  C   UNL     1       2.319   5.954  19.949  0.00  0.00    +0.000 A 
ATOM     11  C   UNL     1       1.623   6.808  20.776  0.00  0.00    +0.000 A 
ATOM     12  C   UNL     1       1.511   8.142  20.358  0.00  0.00    +0.000 A 
ATOM     13  C   UNL     1       2.029   8.566  19.113  0.00  0.00    +0.000 A 
ATOM     14  C   UNL     1       2.723   7.673  18.285  0.00  0.00    +0.000 A 
ATOM     15  C   UNL     1       2.861   6.376  18.731  0.00  0.00    +0.000 A 
ENDBRANCH   1  12
BRANCH   1  16
ATOM     16  N   UNL     1       0.458  10.696  20.427  0.00  0.00    +0.000 N 
ATOM     17  C   UNL     1       1.105  11.938  20.909  0.00  0.00    +0.000 C 
ATOM     18  C   UNL     1       1.723  12.643  19.715  0.00  0.00    +0.000 C 
ATOM     19  C   UNL     1       0.634  13.049  18.736  0.00  0.00    +0.000 C 
ATOM     20  C   UNL     1      -0.399  11.971  18.510  0.00  0.00    +0.000 A 
ATOM     21  C   UNL     1      -1.283  12.140  17.430  0.00  0.00    +0.000 A 
ATOM     22  C   UNL     1      -2.279  11.205  17.179  0.00  0.00    +0.000 A 
ATOM     23  C   UNL     1      -2.407  10.103  18.016  0.00  0.00    +0.000 A 
ATOM     24  C   UNL     1      -1.534   9.928  19.099  0.00  0.00    +0.000 A 
ATOM     25  C   UNL     1      -0.520  10.852  19.366  0.00  0.00    +0.000 A 
ENDBRANCH   1  16
TORSDOF 2
ENDMDL
MODEL 4
REMARK VINA RESULT:      -7.1      1.408      2.470
REMARK  Name = 
REMARK  4 active torsions:
REMARK  status: ('A' for Active; 'I' for Inactive)
REMARK    1  A    between atoms: C_1  and  N_2
REMARK    2  A    between atoms: N_5  and  C_6
REMARK    3  A    between atoms: C_9  and  S_10
REMARK    4  A    between atoms: S_10  and  N_13
REMARK                            x       y       z     vdW  Elec       q    Type
REMARK                         _______ _______ _______ _____ _____    ______ ____
ROOT
ATOM      1  S   UNL     1       2.538   4.613  19.421  0.00  0.00    +0.000 S 
ATOM      2  O   UNL     1       3.123   4.411  20.731  0.00  0.00    +0.000 OA
ATOM      3  O   UNL     1       1.314   3.931  19.063  0.00  0.00    +0.000 OA
ENDROOT
BRANCH   1  12
ATOM      4  C   UNL     1       1.552  11.464  18.300  0.00  0.00    +0.000 C 
ATOM      5  N   UNL     1       1.412  10.419  19.273  0.00  0.00    +0.000 N 
ATOM      6  C   UNL     1       0.863  10.582  20.565  0.00  0.00    +0.000 A 
ATOM      7  O   UNL     1       0.415  11.610  21.047  0.00  0.00    +0.000 OA
ATOM      8  N   UNL     1       0.925   9.312  21.177  0.00  0.00    +0.000 N 
ATOM      9  C   UNL     1       0.423   8.998  22.483  0.00  0.00    +0.000 C 
ATOM     10  C   UNL     1       1.475   8.393  20.276  0.00  0.00    +0.000 A 
ATOM     11  C   UNL     1       1.702   7.041  20.418  0.00  0.00    +0.000 A 
ATOM     12  C   UNL     1       2.220   6.367  19.303  0.00  0.00    +0.000 A 
ATOM     13  C   UNL     1       2.558   7.060  18.118  0.00  0.00    +0.000 A 
ATOM     14  C   UNL     1       2.329   8.438  18.005  0.00  0.00    +0.000 A 
ATOM     15  C   UNL     1       1.778   9.078  19.095  0.00  0.00    +0.000 A 
ENDBRANCH   1  12
BRANCH   1  16
ATOM     16  N   UNL     1       3.721   4.304  18.240  0.00  0.00    +0.000 N 
ATOM     17  C   UNL     1       3.399   3.314  17.187  0.00  0.00    +0.000 C 
ATOM     18  C   UNL     1       3.930   3.840  15.865  0.00  0.00    +0.000 C 
ATOM     19  C   UNL     1       5.443   3.957  15.929  0.00  0.00    +0.000 C 
ATOM     20  C   UNL     1       5.943   4.556  17.221  0.00  0.00    +0.000 A 
ATOM     21  C   UNL     1       7.290   4.957  17.271  0.00  0.00    +0.000 A 
ATOM     22  C   UNL     1       7.828   5.488  18.436  0.00  0.00    +0.000 A 
ATOM     23  C   UNL     1       7.026   5.607  19.564  0.00  0.00    +0.000 A 
ATOM     24  C   UNL     1       5.684   5.205  19.529  0.00  0.00    +0.000 A 
ATOM     25  C   UNL     1       5.119   4.675  18.365  0.00  0.00    +0.000 A 
ENDBRANCH   1  16
TORSDOF 2
ENDMDL
MODEL 5
REMARK VINA RESULT:      -7.1      1.352      3.217
REMARK  Name = 
REMARK  4 active torsions:
REMARK  status: ('A' for Active; 'I' for Inactive)
REMARK    1  A    between atoms: C_1  and  N_2
REMARK    2  A    between atoms: N_5  and  C_6
REMARK    3  A    between atoms: C_9  and  S_10
REMARK    4  A    between atoms: S_10  and  N_13
REMARK                            x       y       z     vdW  Elec       q    Type
REMARK                         _______ _______ _______ _____ _____    ______ ____
ROOT
ATOM      1  S   UNL     1       3.152   5.016  18.761  0.00  0.00    +0.000 S 
ATOM      2  O   UNL     1       3.030   4.490  20.106  0.00  0.00    +0.000 OA
ATOM      3  O   UNL     1       2.458   4.372  17.667  0.00  0.00    +0.000 OA
ENDROOT
BRANCH   1  12
ATOM      4  C   UNL     1       1.051  11.698  18.441  0.00  0.00    +0.000 C 
ATOM      5  N   UNL     1       1.116  10.545  19.292  0.00  0.00    +0.000 N 
ATOM      6  C   UNL     1       0.598  10.476  20.604  0.00  0.00    +0.000 A 
ATOM      7  O   UNL     1       0.012  11.361  21.209  0.00  0.00    +0.000 OA
ATOM      8  N   UNL     1       0.884   9.175  21.069  0.00  0.00    +0.000 N 
ATOM      9  C   UNL     1       0.489   8.645  22.341  0.00  0.00    +0.000 C 
ATOM     10  C   UNL     1       1.537   8.459  20.059  0.00  0.00    +0.000 A 
ATOM     11  C   UNL     1       1.980   7.155  20.042  0.00  0.00    +0.000 A 
ATOM     12  C   UNL     1       2.556   6.698  18.848  0.00  0.00    +0.000 A 
ATOM     13  C   UNL     1       2.734   7.560  17.741  0.00  0.00    +0.000 A 
ATOM     14  C   UNL     1       2.285   8.887  17.790  0.00  0.00    +0.000 A 
ATOM     15  C   UNL     1       1.682   9.308  18.956  0.00  0.00    +0.000 A 
ENDBRANCH   1  12
BRANCH   1  16
ATOM     16  N   UNL     1       4.802   5.157  18.376  0.00  0.00    +0.000 N 
ATOM     17  C   UNL     1       5.670   5.882  19.332  0.00  0.00    +0.000 C 
ATOM     18  C   UNL     1       6.987   5.134  19.435  0.00  0.00    +0.000 C 
ATOM     19  C   UNL     1       7.690   5.141  18.088  0.00  0.00    +0.000 C 
ATOM     20  C   UNL     1       6.765   4.860  16.929  0.00  0.00    +0.000 A 
ATOM     21  C   UNL     1       7.354   4.576  15.684  0.00  0.00    +0.000 A 
ATOM     22  C   UNL     1       6.566   4.337  14.565  0.00  0.00    +0.000 A 
ATOM     23  C   UNL     1       5.183   4.397  14.681  0.00  0.00    +0.000 A 
ATOM     24  C   UNL     1       4.584   4.686  15.915  0.00  0.00    +0.000 A 
ATOM     25  C   UNL     1       5.357   4.921  17.056  0.00  0.00    +0.000 A 
ENDBRANCH   1  16
TORSDOF 2
ENDMDL
MODEL 6
REMARK VINA RESULT:      -7.0      3.664      8.215
REMARK  Name = 
REMARK  4 active torsions:
REMARK  status: ('A' for Active; 'I' for Inactive)
REMARK    1  A    between atoms: C_1  and  N_2
REMARK    2  A    between atoms: N_5  and  C_6
REMARK    3  A    between atoms: C_9  and  S_10
REMARK    4  A    between atoms: S_10  and  N_13
REMARK                            x       y       z     vdW  Elec       q    Type
REMARK                         _______ _______ _______ _____ _____    ______ ____
ROOT
ATOM      1  S   UNL     1       0.900  11.451  19.875  0.00  0.00    +0.000 S 
ATOM      2  O   UNL     1       1.394  12.019  21.114  0.00  0.00    +0.000 OA
ATOM      3  O   UNL     1       1.450  11.887  18.610  0.00  0.00    +0.000 OA
ENDROOT
BRANCH   1  12
ATOM      4  C   UNL     1       1.653   4.563  20.952  0.00  0.00    +0.000 C 
ATOM      5  N   UNL     1       2.039   5.649  20.099  0.00  0.00    +0.000 N 
ATOM      6  C   UNL     1       2.856   5.529  18.952  0.00  0.00    +0.000 A 
ATOM      7  O   UNL     1       3.343   4.504  18.502  0.00  0.00    +0.000 OA
ATOM      8  N   UNL     1       2.983   6.832  18.425  0.00  0.00    +0.000 N 
ATOM      9  C   UNL     1       3.685   7.174  17.223  0.00  0.00    +0.000 C 
ATOM     10  C   UNL     1       2.243   7.721  19.214  0.00  0.00    +0.000 A 
ATOM     11  C   UNL     1       2.046   9.078  19.073  0.00  0.00    +0.000 A 
ATOM     12  C   UNL     1       1.196   9.694  20.002  0.00  0.00    +0.000 A 
ATOM     13  C   UNL     1       0.628   8.965  21.073  0.00  0.00    +0.000 A 
ATOM     14  C   UNL     1       0.855   7.587  21.200  0.00  0.00    +0.000 A 
ATOM     15  C   UNL     1       1.658   6.989  20.252  0.00  0.00    +0.000 A 
ENDBRANCH   1  12
BRANCH   1  16
ATOM     16  N   UNL     1      -0.792  11.606  19.838  0.00  0.00    +0.000 N 
ATOM     17  C   UNL     1      -1.473  12.002  21.092  0.00  0.00    +0.000 C 
ATOM     18  C   UNL     1      -2.573  12.989  20.741  0.00  0.00    +0.000 C 
ATOM     19  C   UNL     1      -3.608  12.314  19.857  0.00  0.00    +0.000 C 
ATOM     20  C   UNL     1      -3.000  11.462  18.769  0.00  0.00    +0.000 A 
ATOM     21  C   UNL     1      -3.851  11.020  17.741  0.00  0.00    +0.000 A 
ATOM     22  C   UNL     1      -3.369  10.208  16.722  0.00  0.00    +0.000 A 
ATOM     23  C   UNL     1      -2.036   9.818  16.734  0.00  0.00    +0.000 A 
ATOM     24  C   UNL     1      -1.179  10.247  17.758  0.00  0.00    +0.000 A 
ATOM     25  C   UNL     1      -1.640  11.072  18.788  0.00  0.00    +0.000 A 
ENDBRANCH   1  16
TORSDOF 2
ENDMDL
MODEL 7
REMARK VINA RESULT:      -6.9      2.201      6.764
REMARK  Name = 
REMARK  4 active torsions:
REMARK  status: ('A' for Active; 'I' for Inactive)
REMARK    1  A    between atoms: C_1  and  N_2
REMARK    2  A    between atoms: N_5  and  C_6
REMARK    3  A    between atoms: C_9  and  S_10
REMARK    4  A    between atoms: S_10  and  N_13
REMARK                            x       y       z     vdW  Elec       q    Type
REMARK                         _______ _______ _______ _____ _____    ______ ____
ROOT
ATOM      1  S   UNL     1       1.822   6.030  20.319  0.00  0.00    +0.000 S 
ATOM      2  O   UNL     1       0.609   5.275  20.078  0.00  0.00    +0.000 OA
ATOM      3  O   UNL     1       2.460   5.980  21.617  0.00  0.00    +0.000 OA
ENDROOT
BRANCH   1  12
ATOM      4  C   UNL     1       5.918   3.473  15.234  0.00  0.00    +0.000 C 
ATOM      5  N   UNL     1       5.930   4.090  16.529  0.00  0.00    +0.000 N 
ATOM      6  C   UNL     1       7.094   4.445  17.247  0.00  0.00    +0.000 A 
ATOM      7  O   UNL     1       8.251   4.301  16.886  0.00  0.00    +0.000 OA
ATOM      8  N   UNL     1       6.647   5.011  18.460  0.00  0.00    +0.000 N 
ATOM      9  C   UNL     1       7.493   5.564  19.477  0.00  0.00    +0.000 C 
ATOM     10  C   UNL     1       5.247   5.025  18.472  0.00  0.00    +0.000 A 
ATOM     11  C   UNL     1       4.374   5.504  19.425  0.00  0.00    +0.000 A 
ATOM     12  C   UNL     1       3.007   5.427  19.125  0.00  0.00    +0.000 A 
ATOM     13  C   UNL     1       2.549   4.821  17.932  0.00  0.00    +0.000 A 
ATOM     14  C   UNL     1       3.459   4.331  16.985  0.00  0.00    +0.000 A 
ATOM     15  C   UNL     1       4.801   4.453  17.276  0.00  0.00    +0.000 A 
ENDBRANCH   1  12
BRANCH   1  16
ATOM     16  N   UNL     1       1.553   7.652  19.885  0.00  0.00    +0.000 N 
ATOM     17  C   UNL     1       2.303   8.186  18.727  0.00  0.00    +0.000 C 
ATOM     18  C   UNL     1       1.364   9.065  17.919  0.00  0.00    +0.000 C 
ATOM     19  C   UNL     1       0.921  10.251  18.759  0.00  0.00    +0.000 C 
ATOM     20  C   UNL     1       0.556   9.879  20.176  0.00  0.00    +0.000 A 
ATOM     21  C   UNL     1      -0.120  10.842  20.944  0.00  0.00    +0.000 A 
ATOM     22  C   UNL     1      -0.461  10.582  22.266  0.00  0.00    +0.000 A 
ATOM     23  C   UNL     1      -0.114   9.361  22.831  0.00  0.00    +0.000 A 
ATOM     24  C   UNL     1       0.566   8.395  22.076  0.00  0.00    +0.000 A 
ATOM     25  C   UNL     1       0.912   8.632  20.742  0.00  0.00    +0.000 A 
ENDBRANCH   1  16
TORSDOF 2
ENDMDL
MODEL 8
REMARK VINA RESULT:      -6.9      3.153      7.547
REMARK  Name = 
REMARK  4 active torsions:
REMARK  status: ('A' for Active; 'I' for Inactive)
REMARK    1  A    between atoms: C_1  and  N_2
REMARK    2  A    between atoms: N_5  and  C_6
REMARK    3  A    between atoms: C_9  and  S_10
REMARK    4  A    between atoms: S_10  and  N_13
REMARK                            x       y       z     vdW  Elec       q    Type
REMARK                         _______ _______ _______ _____ _____    ______ ____
ROOT
ATOM      1  S   UNL     1       0.465   9.405  21.056  0.00  0.00    +0.000 S 
ATOM      2  O   UNL     1      -0.638   8.645  21.609  0.00  0.00    +0.000 OA
ATOM      3  O   UNL     1       1.365  10.118  21.936  0.00  0.00    +0.000 OA
ENDROOT
BRANCH   1  12
ATOM      4  C   UNL     1       4.414   5.297  16.970  0.00  0.00    +0.000 C 
ATOM      5  N   UNL     1       3.650   5.330  18.183  0.00  0.00    +0.000 N 
ATOM      6  C   UNL     1       3.514   4.252  19.086  0.00  0.00    +0.000 A 
ATOM      7  O   UNL     1       4.026   3.147  18.991  0.00  0.00    +0.000 OA
ATOM      8  N   UNL     1       2.681   4.715  20.125  0.00  0.00    +0.000 N 
ATOM      9  C   UNL     1       2.318   3.966  21.293  0.00  0.00    +0.000 C 
ATOM     10  C   UNL     1       2.334   6.049  19.877  0.00  0.00    +0.000 A 
ATOM     11  C   UNL     1       1.569   6.919  20.623  0.00  0.00    +0.000 A 
ATOM     12  C   UNL     1       1.445   8.228  20.137  0.00  0.00    +0.000 A 
ATOM     13  C   UNL     1       2.022   8.611  18.904  0.00  0.00    +0.000 A 
ATOM     14  C   UNL     1       2.787   7.702  18.159  0.00  0.00    +0.000 A 
ATOM     15  C   UNL     1       2.934   6.431  18.673  0.00  0.00    +0.000 A 
ENDBRANCH   1  12
BRANCH   1  16
ATOM     16  N   UNL     1      -0.143  10.477  19.883  0.00  0.00    +0.000 N 
ATOM     17  C   UNL     1      -1.046   9.922  18.849  0.00  0.00    +0.000 C 
ATOM     18  C   UNL     1      -2.163  10.923  18.613  0.00  0.00    +0.000 C 
ATOM     19  C   UNL     1      -1.587  12.218  18.065  0.00  0.00    +0.000 C 
ATOM     20  C   UNL     1      -0.331  12.662  18.776  0.00  0.00    +0.000 A 
ATOM     21  C   UNL     1       0.121  13.970  18.534  0.00  0.00    +0.000 A 
ATOM     22  C   UNL     1       1.286  14.438  19.129  0.00  0.00    +0.000 A 
ATOM     23  C   UNL     1       2.015  13.594  19.957  0.00  0.00    +0.000 A 
ATOM     24  C   UNL     1       1.577  12.285  20.201  0.00  0.00    +0.000 A 
ATOM     25  C   UNL     1       0.403  11.796  19.620  0.00  0.00    +0.000 A 
ENDBRANCH   1  16
TORSDOF 2
ENDMDL
MODEL 9
REMARK VINA RESULT:      -6.8      5.184      8.362
REMARK  Name = 
REMARK  4 active torsions:
REMARK  status: ('A' for Active; 'I' for Inactive)
REMARK    1  A    between atoms: C_1  and  N_2
REMARK    2  A    between atoms: N_5  and  C_6
REMARK    3  A    between atoms: C_9  and  S_10
REMARK    4  A    between atoms: S_10  and  N_13
REMARK                            x       y       z     vdW  Elec       q    Type
REMARK                         _______ _______ _______ _____ _____    ______ ____
ROOT
ATOM      1  S   UNL     1      -0.945  11.579  19.096  0.00  0.00    +0.000 S 
ATOM      2  O   UNL     1      -2.070  12.082  19.857  0.00  0.00    +0.000 OA
ATOM      3  O   UNL     1      -1.158  10.997  17.788  0.00  0.00    +0.000 OA
ENDROOT
BRANCH   1  12
ATOM      4  C   UNL     1       3.886  16.587  18.229  0.00  0.00    +0.000 C 
ATOM      5  N   UNL     1       2.484  16.353  18.415  0.00  0.00    +0.000 N 
ATOM      6  C   UNL     1       1.490  17.357  18.437  0.00  0.00    +0.000 A 
ATOM      7  O   UNL     1       1.657  18.558  18.291  0.00  0.00    +0.000 OA
ATOM      8  N   UNL     1       0.265  16.689  18.648  0.00  0.00    +0.000 N 
ATOM      9  C   UNL     1      -1.024  17.316  18.686  0.00  0.00    +0.000 C 
ATOM     10  C   UNL     1       0.500  15.311  18.728  0.00  0.00    +0.000 A 
ATOM     11  C   UNL     1      -0.386  14.270  18.897  0.00  0.00    +0.000 A 
ATOM     12  C   UNL     1       0.150  12.974  18.881  0.00  0.00    +0.000 A 
ATOM     13  C   UNL     1       1.544  12.758  18.768  0.00  0.00    +0.000 A 
ATOM     14  C   UNL     1       2.424  13.837  18.610  0.00  0.00    +0.000 A 
ATOM     15  C   UNL     1       1.875  15.102  18.584  0.00  0.00    +0.000 A 
ENDBRANCH   1  12
BRANCH   1  16
ATOM     16  N   UNL     1      -0.074  10.486  20.063  0.00  0.00    +0.000 N 
ATOM     17  C   UNL     1       0.029  10.781  21.511  0.00  0.00    +0.000 C 
ATOM     18  C   UNL     1      -0.126   9.477  22.272  0.00  0.00    +0.000 C 
ATOM     19  C   UNL     1       1.013   8.536  21.919  0.00  0.00    +0.000 C 
ATOM     20  C   UNL     1       1.325   8.502  20.442  0.00  0.00    +0.000 A 
ATOM     21  C   UNL     1       2.166   7.474  19.982  0.00  0.00    +0.000 A 
ATOM     22  C   UNL     1       2.522   7.397  18.641  0.00  0.00    +0.000 A 
ATOM     23  C   UNL     1       2.051   8.358  17.755  0.00  0.00    +0.000 A 
ATOM     24  C   UNL     1       1.217   9.391  18.203  0.00  0.00    +0.000 A 
ATOM     25  C   UNL     1       0.840   9.484  19.546  0.00  0.00    +0.000 A 
ENDBRANCH   1  16
TORSDOF 2
ENDMDL
