MODEL 1
REMARK VINA RESULT:      -8.3      0.000      0.000
REMARK  Name = 
REMARK  6 active torsions:
REMARK  status: ('A' for Active; 'I' for Inactive)
REMARK    1  A    between atoms: C_2  and  C_3
REMARK    2  A    between atoms: C_3  and  O_4
REMARK    3  A    between atoms: O_4  and  C_5
REMARK    4  A    between atoms: C_8  and  S_9
REMARK    5  A    between atoms: S_9  and  N_12
REMARK    6  A    between atoms: N_20  and  C_21
REMARK                            x       y       z     vdW  Elec       q    Type
REMARK                         _______ _______ _______ _____ _____    ______ ____
ROOT
ATOM      1  C   UNL     1       5.693   5.504  18.511  0.00  0.00    +0.000 A 
ATOM      2  C   UNL     1       4.628   6.173  17.899  0.00  0.00    +0.000 A 
ATOM      3  C   UNL     1       3.399   5.526  17.695  0.00  0.00    +0.000 A 
ATOM      4  C   UNL     1       3.246   4.187  18.067  0.00  0.00    +0.000 A 
ATOM      5  C   UNL     1       4.315   3.504  18.654  0.00  0.00    +0.000 A 
ATOM      6  C   UNL     1       5.539   4.156  18.857  0.00  0.00    +0.000 A 
ENDROOT
BRANCH   4   7
ATOM      7  S   UNL     1       1.632   3.418  18.026  0.00  0.00    +0.000 S 
ATOM      8  O   UNL     1       0.790   4.263  17.201  0.00  0.00    +0.000 OA
ATOM      9  O   UNL     1       1.840   2.033  17.675  0.00  0.00    +0.000 OA
BRANCH   7  10
ATOM     10  N   UNL     1       1.030   3.473  19.589  0.00  0.00    +0.000 NA
ATOM     11  C   UNL     1       1.025   4.743  20.350  0.00  0.00    +0.000 C 
ATOM     12  C   UNL     1       2.228   4.806  21.297  0.00  0.00    +0.000 C 
ATOM     13  O   UNL     1       2.292   3.658  22.159  0.00  0.00    +0.000 OA
ATOM     14  C   UNL     1       2.339   2.433  21.412  0.00  0.00    +0.000 C 
ATOM     15  C   UNL     1       1.134   2.296  20.484  0.00  0.00    +0.000 C 
ENDBRANCH   7  10
ENDBRANCH   4   7
BRANCH   1  16
ATOM     16  O   UNL     1       6.814   6.268  18.749  0.00  0.00    +0.000 OA
BRANCH  16  17
ATOM     17  C   UNL     1       7.652   6.458  17.616  0.00  0.00    +0.000 C 
BRANCH  17  19
ATOM     18  O   UNL     1       8.060   4.273  16.753  0.00  0.00    +0.000 OA
ATOM     19  C   UNL     1       7.598   5.391  16.519  0.00  0.00    +0.000 C 
ATOM     20  N   UNL     1       7.014   5.781  15.331  0.00  0.00    +0.000 N 
ATOM     21  H   UNL     1       6.859   6.779  15.202  0.00  0.00    +0.000 HD
BRANCH  20  22
ATOM     22  C   UNL     1       6.723   4.943  14.219  0.00  0.00    +0.000 A 
ATOM     23  C   UNL     1       5.606   4.098  14.190  0.00  0.00    +0.000 A 
ATOM     24  C   UNL     1       5.323   3.310  13.070  0.00  0.00    +0.000 A 
ATOM     25  C   UNL     1       6.152   3.354  11.954  0.00  0.00    +0.000 A 
ATOM     26  C   UNL     1       7.271   4.185  11.962  0.00  0.00    +0.000 A 
ATOM     27  C   UNL     1       7.553   4.977  13.083  0.00  0.00    +0.000 A 
ATOM     28 CL   UNL     1       8.965   5.974  13.040  0.00  0.00    +0.000 Cl
ENDBRANCH  20  22
ENDBRANCH  17  19
ENDBRANCH  16  17
ENDBRANCH   1  16
TORSDOF 6
ENDMDL
MODEL 2
REMARK VINA RESULT:      -8.3      4.892      6.737
REMARK  Name = 
REMARK  6 active torsions:
REMARK  status: ('A' for Active; 'I' for Inactive)
REMARK    1  A    between atoms: C_2  and  C_3
REMARK    2  A    between atoms: C_3  and  O_4
REMARK    3  A    between atoms: O_4  and  C_5
REMARK    4  A    between atoms: C_8  and  S_9
REMARK    5  A    between atoms: S_9  and  N_12
REMARK    6  A    between atoms: N_20  and  C_21
REMARK                            x       y       z     vdW  Elec       q    Type
REMARK                         _______ _______ _______ _____ _____    ______ ____
ROOT
ATOM      1  C   UNL     1       7.017   7.318  17.565  0.00  0.00    +0.000 A 
ATOM      2  C   UNL     1       7.468   6.352  18.470  0.00  0.00    +0.000 A 
ATOM      3  C   UNL     1       6.646   5.276  18.839  0.00  0.00    +0.000 A 
ATOM      4  C   UNL     1       5.346   5.187  18.332  0.00  0.00    +0.000 A 
ATOM      5  C   UNL     1       4.878   6.164  17.448  0.00  0.00    +0.000 A 
ATOM      6  C   UNL     1       5.705   7.235  17.082  0.00  0.00    +0.000 A 
ENDROOT
BRANCH   4   7
ATOM      7  S   UNL     1       4.369   3.714  18.606  0.00  0.00    +0.000 S 
ATOM      8  O   UNL     1       4.231   3.062  17.319  0.00  0.00    +0.000 OA
ATOM      9  O   UNL     1       4.975   3.015  19.716  0.00  0.00    +0.000 OA
BRANCH   7  10
ATOM     10  N   UNL     1       2.846   4.225  19.083  0.00  0.00    +0.000 NA
ATOM     11  C   UNL     1       2.580   4.585  20.495  0.00  0.00    +0.000 C 
ATOM     12  C   UNL     1       1.919   3.414  21.231  0.00  0.00    +0.000 C 
ATOM     13  O   UNL     1       0.737   2.956  20.556  0.00  0.00    +0.000 OA
ATOM     14  C   UNL     1       1.012   2.570  19.200  0.00  0.00    +0.000 C 
ATOM     15  C   UNL     1       1.629   3.719  18.405  0.00  0.00    +0.000 C 
ENDBRANCH   7  10
ENDBRANCH   4   7
BRANCH   1  16
ATOM     16  O   UNL     1       7.944   8.269  17.203  0.00  0.00    +0.000 OA
BRANCH  16  17
ATOM     17  C   UNL     1       8.517   8.983  18.290  0.00  0.00    +0.000 C 
BRANCH  17  19
ATOM     18  O   UNL     1       7.991  11.206  17.604  0.00  0.00    +0.000 OA
ATOM     19  C   UNL     1       8.860  10.458  18.056  0.00  0.00    +0.000 C 
ATOM     20  N   UNL     1      10.146  10.834  18.385  0.00  0.00    +0.000 N 
ATOM     21  H   UNL     1      10.814  10.085  18.555  0.00  0.00    +0.000 HD
BRANCH  20  22
ATOM     22  C   UNL     1      10.661  12.159  18.389  0.00  0.00    +0.000 A 
ATOM     23  C   UNL     1      11.081  12.804  17.219  0.00  0.00    +0.000 A 
ATOM     24  C   UNL     1      11.551  14.121  17.245  0.00  0.00    +0.000 A 
ATOM     25  C   UNL     1      11.610  14.819  18.446  0.00  0.00    +0.000 A 
ATOM     26  C   UNL     1      11.202  14.197  19.625  0.00  0.00    +0.000 A 
ATOM     27  C   UNL     1      10.728  12.879  19.597  0.00  0.00    +0.000 A 
ATOM     28 CL   UNL     1      10.252  12.154  21.094  0.00  0.00    +0.000 Cl
ENDBRANCH  20  22
ENDBRANCH  17  19
ENDBRANCH  16  17
ENDBRANCH   1  16
TORSDOF 6
ENDMDL
MODEL 3
REMARK VINA RESULT:      -8.1      5.095      6.791
REMARK  Name = 
REMARK  6 active torsions:
REMARK  status: ('A' for Active; 'I' for Inactive)
REMARK    1  A    between atoms: C_2  and  C_3
REMARK    2  A    between atoms: C_3  and  O_4
REMARK    3  A    between atoms: O_4  and  C_5
REMARK    4  A    between atoms: C_8  and  S_9
REMARK    5  A    between atoms: S_9  and  N_12
REMARK    6  A    between atoms: N_20  and  C_21
REMARK                            x       y       z     vdW  Elec       q    Type
REMARK                         _______ _______ _______ _____ _____    ______ ____
ROOT
ATOM      1  C   UNL     1       7.701   7.730  17.905  0.00  0.00    +0.000 A 
ATOM      2  C   UNL     1       6.557   7.682  17.102  0.00  0.00    +0.000 A 
ATOM      3  C   UNL     1       5.698   6.573  17.145  0.00  0.00    +0.000 A 
ATOM      4  C   UNL     1       6.006   5.484  17.966  0.00  0.00    +0.000 A 
ATOM      5  C   UNL     1       7.163   5.513  18.751  0.00  0.00    +0.000 A 
ATOM      6  C   UNL     1       8.015   6.625  18.705  0.00  0.00    +0.000 A 
ENDROOT
BRANCH   4   7
ATOM      7  S   UNL     1       4.817   4.170  18.207  0.00  0.00    +0.000 S 
ATOM      8  O   UNL     1       4.723   3.459  16.947  0.00  0.00    +0.000 OA
ATOM      9  O   UNL     1       5.208   3.472  19.410  0.00  0.00    +0.000 OA
BRANCH   7  10
ATOM     10  N   UNL     1       3.337   4.903  18.489  0.00  0.00    +0.000 NA
ATOM     11  C   UNL     1       3.057   5.563  19.784  0.00  0.00    +0.000 C 
ATOM     12  C   UNL     1       2.257   4.631  20.699  0.00  0.00    +0.000 C 
ATOM     13  O   UNL     1       1.060   4.155  20.065  0.00  0.00    +0.000 OA
ATOM     14  C   UNL     1       1.343   3.479  18.829  0.00  0.00    +0.000 C 
ATOM     15  C   UNL     1       2.100   4.383  17.858  0.00  0.00    +0.000 C 
ENDBRANCH   7  10
ENDBRANCH   4   7
BRANCH   1  16
ATOM     16  O   UNL     1       8.412   8.908  17.852  0.00  0.00    +0.000 OA
BRANCH  16  17
ATOM     17  C   UNL     1       8.848   9.394  19.115  0.00  0.00    +0.000 C 
BRANCH  17  19
ATOM     18  O   UNL     1      10.198  11.070  20.144  0.00  0.00    +0.000 OA
ATOM     19  C   UNL     1       9.576  10.743  19.132  0.00  0.00    +0.000 C 
ATOM     20  N   UNL     1       9.474  11.494  17.979  0.00  0.00    +0.000 N 
ATOM     21  H   UNL     1       8.772  11.202  17.301  0.00  0.00    +0.000 HD
BRANCH  20  22
ATOM     22  C   UNL     1      10.164  12.704  17.698  0.00  0.00    +0.000 A 
ATOM     23  C   UNL     1      11.438  12.723  17.116  0.00  0.00    +0.000 A 
ATOM     24  C   UNL     1      12.080  13.929  16.816  0.00  0.00    +0.000 A 
ATOM     25  C   UNL     1      11.458  15.142  17.094  0.00  0.00    +0.000 A 
ATOM     26  C   UNL     1      10.191  15.148  17.677  0.00  0.00    +0.000 A 
ATOM     27  C   UNL     1       9.548  13.940  17.973  0.00  0.00    +0.000 A 
ATOM     28 CL   UNL     1       7.985  14.011  18.712  0.00  0.00    +0.000 Cl
ENDBRANCH  20  22
ENDBRANCH  17  19
ENDBRANCH  16  17
ENDBRANCH   1  16
TORSDOF 6
ENDMDL
MODEL 4
REMARK VINA RESULT:      -8.1      4.618      6.340
REMARK  Name = 
REMARK  6 active torsions:
REMARK  status: ('A' for Active; 'I' for Inactive)
REMARK    1  A    between atoms: C_2  and  C_3
REMARK    2  A    between atoms: C_3  and  O_4
REMARK    3  A    between atoms: O_4  and  C_5
REMARK    4  A    between atoms: C_8  and  S_9
REMARK    5  A    between atoms: S_9  and  N_12
REMARK    6  A    between atoms: N_20  and  C_21
REMARK                            x       y       z     vdW  Elec       q    Type
REMARK                         _______ _______ _______ _____ _____    ______ ____
ROOT
ATOM      1  C   UNL     1       6.935   7.299  17.599  0.00  0.00    +0.000 A 
ATOM      2  C   UNL     1       5.717   7.108  16.937  0.00  0.00    +0.000 A 
ATOM      3  C   UNL     1       4.948   5.957  17.169  0.00  0.00    +0.000 A 
ATOM      4  C   UNL     1       5.419   4.968  18.038  0.00  0.00    +0.000 A 
ATOM      5  C   UNL     1       6.648   5.139  18.682  0.00  0.00    +0.000 A 
ATOM      6  C   UNL     1       7.410   6.292  18.447  0.00  0.00    +0.000 A 
ENDROOT
BRANCH   4   7
ATOM      7  S   UNL     1       4.358   3.612  18.521  0.00  0.00    +0.000 S 
ATOM      8  O   UNL     1       4.100   2.839  17.321  0.00  0.00    +0.000 OA
ATOM      9  O   UNL     1       4.975   2.990  19.670  0.00  0.00    +0.000 OA
BRANCH   7  10
ATOM     10  N   UNL     1       2.905   4.286  19.013  0.00  0.00    +0.000 NA
ATOM     11  C   UNL     1       2.715   4.729  20.413  0.00  0.00    +0.000 C 
ATOM     12  C   UNL     1       1.969   3.659  21.217  0.00  0.00    +0.000 C 
ATOM     13  O   UNL     1       0.729   3.288  20.595  0.00  0.00    +0.000 OA
ATOM     14  C   UNL     1       0.927   2.820  19.251  0.00  0.00    +0.000 C 
ATOM     15  C   UNL     1       1.626   3.870  18.390  0.00  0.00    +0.000 C 
ENDBRANCH   7  10
ENDBRANCH   4   7
BRANCH   1  16
ATOM     16  O   UNL     1       7.552   8.508  17.367  0.00  0.00    +0.000 OA
BRANCH  16  17
ATOM     17  C   UNL     1       8.637   8.795  18.239  0.00  0.00    +0.000 C 
BRANCH  17  19
ATOM     18  O   UNL     1       9.028  10.496  19.864  0.00  0.00    +0.000 OA
ATOM     19  C   UNL     1       8.818  10.253  18.674  0.00  0.00    +0.000 C 
ATOM     20  N   UNL     1       8.733  11.194  17.669  0.00  0.00    +0.000 N 
ATOM     21  H   UNL     1       8.360  10.879  16.776  0.00  0.00    +0.000 HD
BRANCH  20  22
ATOM     22  C   UNL     1       8.998  12.585  17.792  0.00  0.00    +0.000 A 
ATOM     23  C   UNL     1       7.976  13.538  17.882  0.00  0.00    +0.000 A 
ATOM     24  C   UNL     1       8.263  14.898  18.039  0.00  0.00    +0.000 A 
ATOM     25  C   UNL     1       9.583  15.331  18.108  0.00  0.00    +0.000 A 
ATOM     26  C   UNL     1      10.618  14.401  18.016  0.00  0.00    +0.000 A 
ATOM     27  C   UNL     1      10.329  13.039  17.864  0.00  0.00    +0.000 A 
ATOM     28 CL   UNL     1      11.655  11.935  17.737  0.00  0.00    +0.000 Cl
ENDBRANCH  20  22
ENDBRANCH  17  19
ENDBRANCH  16  17
ENDBRANCH   1  16
TORSDOF 6
ENDMDL
MODEL 5
REMARK VINA RESULT:      -8.1      5.742      8.514
REMARK  Name = 
REMARK  6 active torsions:
REMARK  status: ('A' for Active; 'I' for Inactive)
REMARK    1  A    between atoms: C_2  and  C_3
REMARK    2  A    between atoms: C_3  and  O_4
REMARK    3  A    between atoms: O_4  and  C_5
REMARK    4  A    between atoms: C_8  and  S_9
REMARK    5  A    between atoms: S_9  and  N_12
REMARK    6  A    between atoms: N_20  and  C_21
REMARK                            x       y       z     vdW  Elec       q    Type
REMARK                         _______ _______ _______ _____ _____    ______ ____
ROOT
ATOM      1  C   UNL     1       1.533   7.890  20.050  0.00  0.00    +0.000 A 
ATOM      2  C   UNL     1       1.566   6.610  20.613  0.00  0.00    +0.000 A 
ATOM      3  C   UNL     1       2.303   5.580  20.008  0.00  0.00    +0.000 A 
ATOM      4  C   UNL     1       2.979   5.819  18.807  0.00  0.00    +0.000 A 
ATOM      5  C   UNL     1       2.928   7.089  18.224  0.00  0.00    +0.000 A 
ATOM      6  C   UNL     1       2.192   8.114  18.835  0.00  0.00    +0.000 A 
ENDROOT
BRANCH   4   7
ATOM      7  S   UNL     1       4.102   4.595  18.144  0.00  0.00    +0.000 S 
ATOM      8  O   UNL     1       4.657   3.883  19.279  0.00  0.00    +0.000 OA
ATOM      9  O   UNL     1       3.378   3.880  17.118  0.00  0.00    +0.000 OA
BRANCH   7  10
ATOM     10  N   UNL     1       5.353   5.434  17.410  0.00  0.00    +0.000 NA
ATOM     11  C   UNL     1       5.521   5.400  15.939  0.00  0.00    +0.000 C 
ATOM     12  C   UNL     1       6.586   4.372  15.545  0.00  0.00    +0.000 C 
ATOM     13  O   UNL     1       7.829   4.599  16.227  0.00  0.00    +0.000 OA
ATOM     14  C   UNL     1       7.664   4.589  17.654  0.00  0.00    +0.000 C 
ATOM     15  C   UNL     1       6.645   5.633  18.107  0.00  0.00    +0.000 C 
ENDBRANCH   7  10
ENDBRANCH   4   7
BRANCH   1  16
ATOM     16  O   UNL     1       0.861   8.842  20.783  0.00  0.00    +0.000 OA
BRANCH  16  17
ATOM     17  C   UNL     1       1.107  10.183  20.380  0.00  0.00    +0.000 C 
BRANCH  17  19
ATOM     18  O   UNL     1       0.692  11.626  18.526  0.00  0.00    +0.000 OA
ATOM     19  C   UNL     1       0.231  10.746  19.256  0.00  0.00    +0.000 C 
ATOM     20  N   UNL     1      -1.033  10.203  19.151  0.00  0.00    +0.000 N 
ATOM     21  H   UNL     1      -1.356   9.636  19.933  0.00  0.00    +0.000 HD
BRANCH  20  22
ATOM     22  C   UNL     1      -1.977  10.455  18.118  0.00  0.00    +0.000 A 
ATOM     23  C   UNL     1      -1.936   9.789  16.887  0.00  0.00    +0.000 A 
ATOM     24  C   UNL     1      -2.898  10.030  15.900  0.00  0.00    +0.000 A 
ATOM     25  C   UNL     1      -3.921  10.944  16.128  0.00  0.00    +0.000 A 
ATOM     26  C   UNL     1      -3.979  11.622  17.345  0.00  0.00    +0.000 A 
ATOM     27  C   UNL     1      -3.018  11.377  18.333  0.00  0.00    +0.000 A 
ATOM     28 CL   UNL     1      -3.132  12.262  19.816  0.00  0.00    +0.000 Cl
ENDBRANCH  20  22
ENDBRANCH  17  19
ENDBRANCH  16  17
ENDBRANCH   1  16
TORSDOF 6
ENDMDL
MODEL 6
REMARK VINA RESULT:      -8.0      4.367      6.484
REMARK  Name = 
REMARK  6 active torsions:
REMARK  status: ('A' for Active; 'I' for Inactive)
REMARK    1  A    between atoms: C_2  and  C_3
REMARK    2  A    between atoms: C_3  and  O_4
REMARK    3  A    between atoms: O_4  and  C_5
REMARK    4  A    between atoms: C_8  and  S_9
REMARK    5  A    between atoms: S_9  and  N_12
REMARK    6  A    between atoms: N_20  and  C_21
REMARK                            x       y       z     vdW  Elec       q    Type
REMARK                         _______ _______ _______ _____ _____    ______ ____
ROOT
ATOM      1  C   UNL     1       6.669   6.980  17.451  0.00  0.00    +0.000 A 
ATOM      2  C   UNL     1       7.027   5.858  18.206  0.00  0.00    +0.000 A 
ATOM      3  C   UNL     1       6.092   4.845  18.469  0.00  0.00    +0.000 A 
ATOM      4  C   UNL     1       4.777   4.972  18.010  0.00  0.00    +0.000 A 
ATOM      5  C   UNL     1       4.405   6.104  17.278  0.00  0.00    +0.000 A 
ATOM      6  C   UNL     1       5.345   7.111  17.017  0.00  0.00    +0.000 A 
ENDROOT
BRANCH   4   7
ATOM      7  S   UNL     1       3.641   3.598  18.136  0.00  0.00    +0.000 S 
ATOM      8  O   UNL     1       3.146   3.344  16.797  0.00  0.00    +0.000 OA
ATOM      9  O   UNL     1       4.325   2.557  18.869  0.00  0.00    +0.000 OA
BRANCH   7  10
ATOM     10  N   UNL     1       2.348   4.122  19.065  0.00  0.00    +0.000 NA
ATOM     11  C   UNL     1       2.575   4.750  20.386  0.00  0.00    +0.000 C 
ATOM     12  C   UNL     1       2.377   3.725  21.508  0.00  0.00    +0.000 C 
ATOM     13  O   UNL     1       1.095   3.083  21.426  0.00  0.00    +0.000 OA
ATOM     14  C   UNL     1       0.899   2.441  20.156  0.00  0.00    +0.000 C 
ATOM     15  C   UNL     1       1.038   3.431  19.001  0.00  0.00    +0.000 C 
ENDBRANCH   7  10
ENDBRANCH   4   7
BRANCH   1  16
ATOM     16  O   UNL     1       7.693   7.858  17.173  0.00  0.00    +0.000 OA
BRANCH  16  17
ATOM     17  C   UNL     1       8.482   8.222  18.298  0.00  0.00    +0.000 C 
BRANCH  17  19
ATOM     18  O   UNL     1       8.164  10.530  17.788  0.00  0.00    +0.000 OA
ATOM     19  C   UNL     1       8.701   9.718  18.544  0.00  0.00    +0.000 C 
ATOM     20  N   UNL     1       9.497  10.039  19.625  0.00  0.00    +0.000 N 
ATOM     21  H   UNL     1      10.036   9.280  20.039  0.00  0.00    +0.000 HD
BRANCH  20  22
ATOM     22  C   UNL     1       9.736  11.342  20.139  0.00  0.00    +0.000 A 
ATOM     23  C   UNL     1       9.036  11.855  21.238  0.00  0.00    +0.000 A 
ATOM     24  C   UNL     1       9.316  13.127  21.747  0.00  0.00    +0.000 A 
ATOM     25  C   UNL     1      10.304  13.913  21.164  0.00  0.00    +0.000 A 
ATOM     26  C   UNL     1      11.012  13.425  20.066  0.00  0.00    +0.000 A 
ATOM     27  C   UNL     1      10.734  12.149  19.560  0.00  0.00    +0.000 A 
ATOM     28 CL   UNL     1      11.632  11.606  18.185  0.00  0.00    +0.000 Cl
ENDBRANCH  20  22
ENDBRANCH  17  19
ENDBRANCH  16  17
ENDBRANCH   1  16
TORSDOF 6
ENDMDL
MODEL 7
REMARK VINA RESULT:      -8.0      4.151      6.289
REMARK  Name = 
REMARK  6 active torsions:
REMARK  status: ('A' for Active; 'I' for Inactive)
REMARK    1  A    between atoms: C_2  and  C_3
REMARK    2  A    between atoms: C_3  and  O_4
REMARK    3  A    between atoms: O_4  and  C_5
REMARK    4  A    between atoms: C_8  and  S_9
REMARK    5  A    between atoms: S_9  and  N_12
REMARK    6  A    between atoms: N_20  and  C_21
REMARK                            x       y       z     vdW  Elec       q    Type
REMARK                         _______ _______ _______ _____ _____    ______ ____
ROOT
ATOM      1  C   UNL     1       6.696   6.709  16.945  0.00  0.00    +0.000 A 
ATOM      2  C   UNL     1       5.488   7.158  17.488  0.00  0.00    +0.000 A 
ATOM      3  C   UNL     1       4.433   6.263  17.725  0.00  0.00    +0.000 A 
ATOM      4  C   UNL     1       4.569   4.916  17.377  0.00  0.00    +0.000 A 
ATOM      5  C   UNL     1       5.765   4.465  16.808  0.00  0.00    +0.000 A 
ATOM      6  C   UNL     1       6.816   5.363  16.577  0.00  0.00    +0.000 A 
ENDROOT
BRANCH   4   7
ATOM      7  S   UNL     1       3.333   3.725  17.876  0.00  0.00    +0.000 S 
ATOM      8  O   UNL     1       2.074   4.171  17.312  0.00  0.00    +0.000 OA
ATOM      9  O   UNL     1       3.857   2.419  17.547  0.00  0.00    +0.000 OA
BRANCH   7  10
ATOM     10  N   UNL     1       3.207   3.828  19.544  0.00  0.00    +0.000 NA
ATOM     11  C   UNL     1       3.340   2.618  20.386  0.00  0.00    +0.000 C 
ATOM     12  C   UNL     1       1.958   2.079  20.771  0.00  0.00    +0.000 C 
ATOM     13  O   UNL     1       1.144   3.085  21.393  0.00  0.00    +0.000 OA
ATOM     14  C   UNL     1       0.986   4.238  20.552  0.00  0.00    +0.000 C 
ATOM     15  C   UNL     1       2.336   4.847  20.178  0.00  0.00    +0.000 C 
ENDBRANCH   7  10
ENDBRANCH   4   7
BRANCH   1  16
ATOM     16  O   UNL     1       7.691   7.656  16.851  0.00  0.00    +0.000 OA
BRANCH  16  17
ATOM     17  C   UNL     1       8.310   7.991  18.086  0.00  0.00    +0.000 C 
BRANCH  17  19
ATOM     18  O   UNL     1       7.879  10.309  17.729  0.00  0.00    +0.000 OA
ATOM     19  C   UNL     1       8.509   9.480  18.388  0.00  0.00    +0.000 C 
ATOM     20  N   UNL     1       9.397   9.773  19.402  0.00  0.00    +0.000 N 
ATOM     21  H   UNL     1       9.994   9.013  19.723  0.00  0.00    +0.000 HD
BRANCH  20  22
ATOM     22  C   UNL     1       9.649  11.057  19.958  0.00  0.00    +0.000 A 
ATOM     23  C   UNL     1       9.109  11.461  21.185  0.00  0.00    +0.000 A 
ATOM     24  C   UNL     1       9.402  12.717  21.727  0.00  0.00    +0.000 A 
ATOM     25  C   UNL     1      10.242  13.594  21.049  0.00  0.00    +0.000 A 
ATOM     26  C   UNL     1      10.787  13.215  19.824  0.00  0.00    +0.000 A 
ATOM     27  C   UNL     1      10.497  11.955  19.284  0.00  0.00    +0.000 A 
ATOM     28 CL   UNL     1      11.190  11.548  17.752  0.00  0.00    +0.000 Cl
ENDBRANCH  20  22
ENDBRANCH  17  19
ENDBRANCH  16  17
ENDBRANCH   1  16
TORSDOF 6
ENDMDL
MODEL 8
REMARK VINA RESULT:      -7.8      4.829      6.880
REMARK  Name = 
REMARK  6 active torsions:
REMARK  status: ('A' for Active; 'I' for Inactive)
REMARK    1  A    between atoms: C_2  and  C_3
REMARK    2  A    between atoms: C_3  and  O_4
REMARK    3  A    between atoms: O_4  and  C_5
REMARK    4  A    between atoms: C_8  and  S_9
REMARK    5  A    between atoms: S_9  and  N_12
REMARK    6  A    between atoms: N_20  and  C_21
REMARK                            x       y       z     vdW  Elec       q    Type
REMARK                         _______ _______ _______ _____ _____    ______ ____
ROOT
ATOM      1  C   UNL     1       6.887   7.280  17.520  0.00  0.00    +0.000 A 
ATOM      2  C   UNL     1       7.272   6.362  18.503  0.00  0.00    +0.000 A 
ATOM      3  C   UNL     1       6.467   5.253  18.802  0.00  0.00    +0.000 A 
ATOM      4  C   UNL     1       5.245   5.080  18.143  0.00  0.00    +0.000 A 
ATOM      5  C   UNL     1       4.841   6.008  17.179  0.00  0.00    +0.000 A 
ATOM      6  C   UNL     1       5.651   7.113  16.883  0.00  0.00    +0.000 A 
ENDROOT
BRANCH   4   7
ATOM      7  S   UNL     1       4.319   3.563  18.342  0.00  0.00    +0.000 S 
ATOM      8  O   UNL     1       4.276   2.928  17.039  0.00  0.00    +0.000 OA
ATOM      9  O   UNL     1       4.895   2.870  19.472  0.00  0.00    +0.000 OA
BRANCH   7  10
ATOM     10  N   UNL     1       2.753   4.002  18.746  0.00  0.00    +0.000 NA
ATOM     11  C   UNL     1       2.500   5.164  19.627  0.00  0.00    +0.000 C 
ATOM     12  C   UNL     1       2.256   4.702  21.067  0.00  0.00    +0.000 C 
ATOM     13  O   UNL     1       1.208   3.724  21.147  0.00  0.00    +0.000 OA
ATOM     14  C   UNL     1       1.482   2.581  20.321  0.00  0.00    +0.000 C 
ATOM     15  C   UNL     1       1.685   2.980  18.861  0.00  0.00    +0.000 C 
ENDBRANCH   7  10
ENDBRANCH   4   7
BRANCH   1  16
ATOM     16  O   UNL     1       7.802   8.271  17.243  0.00  0.00    +0.000 OA
BRANCH  16  17
ATOM     17  C   UNL     1       8.582   8.684  18.357  0.00  0.00    +0.000 C 
BRANCH  17  19
ATOM     18  O   UNL     1       8.210  10.979  17.824  0.00  0.00    +0.000 OA
ATOM     19  C   UNL     1       8.875  10.182  18.489  0.00  0.00    +0.000 C 
ATOM     20  N   UNL     1       9.881  10.522  19.370  0.00  0.00    +0.000 N 
ATOM     21  H   UNL     1      10.478   9.765  19.698  0.00  0.00    +0.000 HD
BRANCH  20  22
ATOM     22  C   UNL     1      10.245  11.837  19.768  0.00  0.00    +0.000 A 
ATOM     23  C   UNL     1      11.162  12.612  19.045  0.00  0.00    +0.000 A 
ATOM     24  C   UNL     1      11.476  13.917  19.438  0.00  0.00    +0.000 A 
ATOM     25  C   UNL     1      10.878  14.473  20.564  0.00  0.00    +0.000 A 
ATOM     26  C   UNL     1       9.966  13.719  21.301  0.00  0.00    +0.000 A 
ATOM     27  C   UNL     1       9.649  12.414  20.904  0.00  0.00    +0.000 A 
ATOM     28 CL   UNL     1       8.524  11.522  21.869  0.00  0.00    +0.000 Cl
ENDBRANCH  20  22
ENDBRANCH  17  19
ENDBRANCH  16  17
ENDBRANCH   1  16
TORSDOF 6
ENDMDL
MODEL 9
REMARK VINA RESULT:      -7.8      7.250     10.399
REMARK  Name = 
REMARK  6 active torsions:
REMARK  status: ('A' for Active; 'I' for Inactive)
REMARK    1  A    between atoms: C_2  and  C_3
REMARK    2  A    between atoms: C_3  and  O_4
REMARK    3  A    between atoms: O_4  and  C_5
REMARK    4  A    between atoms: C_8  and  S_9
REMARK    5  A    between atoms: S_9  and  N_12
REMARK    6  A    between atoms: N_20  and  C_21
REMARK                            x       y       z     vdW  Elec       q    Type
REMARK                         _______ _______ _______ _____ _____    ______ ____
ROOT
ATOM      1  C   UNL     1       9.247  10.413  19.170  0.00  0.00    +0.000 A 
ATOM      2  C   UNL     1       9.228  11.251  18.050  0.00  0.00    +0.000 A 
ATOM      3  C   UNL     1       9.480  12.626  18.181  0.00  0.00    +0.000 A 
ATOM      4  C   UNL     1       9.711  13.176  19.445  0.00  0.00    +0.000 A 
ATOM      5  C   UNL     1       9.705  12.348  20.572  0.00  0.00    +0.000 A 
ATOM      6  C   UNL     1       9.455  10.975  20.435  0.00  0.00    +0.000 A 
ENDROOT
BRANCH   4   7
ATOM      7  S   UNL     1      10.256  14.871  19.606  0.00  0.00    +0.000 S 
ATOM      8  O   UNL     1       9.471  15.460  20.674  0.00  0.00    +0.000 OA
ATOM      9  O   UNL     1      11.698  14.837  19.697  0.00  0.00    +0.000 OA
BRANCH   7  10
ATOM     10  N   UNL     1       9.843  15.650  18.181  0.00  0.00    +0.000 NA
ATOM     11  C   UNL     1      10.887  16.051  17.212  0.00  0.00    +0.000 C 
ATOM     12  C   UNL     1      11.240  17.532  17.386  0.00  0.00    +0.000 C 
ATOM     13  O   UNL     1      10.078  18.372  17.309  0.00  0.00    +0.000 OA
ATOM     14  C   UNL     1       9.088  18.003  18.281  0.00  0.00    +0.000 C 
ATOM     15  C   UNL     1       8.663  16.544  18.121  0.00  0.00    +0.000 C 
ENDBRANCH   7  10
ENDBRANCH   4   7
BRANCH   1  16
ATOM     16  O   UNL     1       9.085   9.071  18.908  0.00  0.00    +0.000 OA
BRANCH  16  17
ATOM     17  C   UNL     1       8.169   8.778  17.861  0.00  0.00    +0.000 C 
BRANCH  17  19
ATOM     18  O   UNL     1       7.957   6.522  18.604  0.00  0.00    +0.000 OA
ATOM     19  C   UNL     1       7.477   7.412  17.900  0.00  0.00    +0.000 C 
ATOM     20  N   UNL     1       6.341   7.292  17.126  0.00  0.00    +0.000 N 
ATOM     21  H   UNL     1       6.171   8.029  16.444  0.00  0.00    +0.000 HD
BRANCH  20  22
ATOM     22  C   UNL     1       5.452   6.183  17.098  0.00  0.00    +0.000 A 
ATOM     23  C   UNL     1       4.256   6.162  17.827  0.00  0.00    +0.000 A 
ATOM     24  C   UNL     1       3.382   5.074  17.754  0.00  0.00    +0.000 A 
ATOM     25  C   UNL     1       3.688   3.982  16.948  0.00  0.00    +0.000 A 
ATOM     26  C   UNL     1       4.874   3.979  16.216  0.00  0.00    +0.000 A 
ATOM     27  C   UNL     1       5.748   5.072  16.287  0.00  0.00    +0.000 A 
ATOM     28 CL   UNL     1       7.213   5.002  15.370  0.00  0.00    +0.000 Cl
ENDBRANCH  20  22
ENDBRANCH  17  19
ENDBRANCH  16  17
ENDBRANCH   1  16
TORSDOF 6
ENDMDL
