MODEL 1
REMARK VINA RESULT:      -8.3      0.000      0.000
REMARK  Name = 
REMARK  8 active torsions:
REMARK  status: ('A' for Active; 'I' for Inactive)
REMARK    1  A    between atoms: C_1  and  O_2
REMARK    2  A    between atoms: O_2  and  C_3
REMARK    3  A    between atoms: C_7  and  N_8
REMARK    4  A    between atoms: C_9  and  C_11
REMARK    5  A    between atoms: N_13  and  C_14
REMARK    6  A    between atoms: C_14  and  C_15
REMARK    7  A    between atoms: N_19  and  S_20
REMARK    8  A    between atoms: S_20  and  C_23
REMARK                            x       y       z     vdW  Elec       q    Type
REMARK                         _______ _______ _______ _____ _____    ______ ____
ROOT
ATOM      1  C   UNL     1       2.597   8.034  18.161  0.00  0.00    +0.000 C 
ATOM      2  O   UNL     1       3.443   7.747  17.325  0.00  0.00    +0.000 OA
ATOM      3  N   UNL     1       2.357   7.319  19.341  0.00  0.00    +0.000 N 
ATOM      4  H   UNL     1       1.516   7.592  19.840  0.00  0.00    +0.000 HD
ENDROOT
BRANCH   1   6
ATOM      5  N   UNL     1       0.276   9.086  18.116  0.00  0.00    +0.000 N 
ATOM      6  C   UNL     1       1.658   9.302  17.940  0.00  0.00    +0.000 C 
ATOM      7  O   UNL     1       2.196  10.351  17.605  0.00  0.00    +0.000 OA
ATOM      8  H   UNL     1       0.008   8.127  18.311  0.00  0.00    +0.000 HD
BRANCH   5  13
ATOM      9  C   UNL     1      -2.836  10.934  17.007  0.00  0.00    +0.000 A 
ATOM     10  C   UNL     1      -3.013  11.838  18.049  0.00  0.00    +0.000 A 
ATOM     11  C   UNL     1      -2.090  11.877  19.095  0.00  0.00    +0.000 A 
ATOM     12  C   UNL     1      -0.995  10.997  19.112  0.00  0.00    +0.000 A 
ATOM     13  C   UNL     1      -0.793  10.058  18.093  0.00  0.00    +0.000 A 
ATOM     14  C   UNL     1      -1.732  10.051  17.023  0.00  0.00    +0.000 A 
BRANCH   9  16
ATOM     15  C   UNL     1      -3.667  10.354  14.830  0.00  0.00    +0.000 C 
ATOM     16  O   UNL     1      -3.847  10.999  16.081  0.00  0.00    +0.000 OA
ENDBRANCH   9  16
ENDBRANCH   5  13
ENDBRANCH   1   6
BRANCH   3  17
ATOM     17  C   UNL     1       2.931   6.003  19.733  0.00  0.00    +0.000 C 
BRANCH  17  18
ATOM     18  C   UNL     1       1.966   4.805  19.504  0.00  0.00    +0.000 C 
ATOM     19  C   UNL     1       1.590   3.963  20.728  0.00  0.00    +0.000 C 
ATOM     20  C   UNL     1       0.666   2.919  20.106  0.00  0.00    +0.000 C 
ATOM     21  C   UNL     1       1.135   2.751  18.645  0.00  0.00    +0.000 C 
ATOM     22  N   UNL     1       2.280   3.727  18.432  0.00  0.00    +0.000 NA
BRANCH  22  23
ATOM     23  S   UNL     1       3.839   2.963  18.509  0.00  0.00    +0.000 S 
ATOM     24  O   UNL     1       4.255   3.030  19.905  0.00  0.00    +0.000 OA
ATOM     25  O   UNL     1       3.738   1.683  17.844  0.00  0.00    +0.000 OA
BRANCH  23  26
ATOM     26  C   UNL     1       5.100   3.937  17.620  0.00  0.00    +0.000 A 
ATOM     27  C   UNL     1       4.852   4.300  16.283  0.00  0.00    +0.000 A 
ATOM     28  C   UNL     1       5.513   5.393  15.694  0.00  0.00    +0.000 A 
ATOM     29  C   UNL     1       6.429   6.145  16.428  0.00  0.00    +0.000 A 
ATOM     30  C   UNL     1       6.713   5.778  17.747  0.00  0.00    +0.000 A 
ATOM     31  C   UNL     1       6.052   4.684  18.340  0.00  0.00    +0.000 A 
ENDBRANCH  23  26
ENDBRANCH  22  23
ENDBRANCH  17  18
ENDBRANCH   3  17
TORSDOF 7
ENDMDL
MODEL 2
REMARK VINA RESULT:      -8.2      0.832      1.275
REMARK  Name = 
REMARK  8 active torsions:
REMARK  status: ('A' for Active; 'I' for Inactive)
REMARK    1  A    between atoms: C_1  and  O_2
REMARK    2  A    between atoms: O_2  and  C_3
REMARK    3  A    between atoms: C_7  and  N_8
REMARK    4  A    between atoms: C_9  and  C_11
REMARK    5  A    between atoms: N_13  and  C_14
REMARK    6  A    between atoms: C_14  and  C_15
REMARK    7  A    between atoms: N_19  and  S_20
REMARK    8  A    between atoms: S_20  and  C_23
REMARK                            x       y       z     vdW  Elec       q    Type
REMARK                         _______ _______ _______ _____ _____    ______ ____
ROOT
ATOM      1  C   UNL     1       2.588   8.052  18.290  0.00  0.00    +0.000 C 
ATOM      2  O   UNL     1       3.369   7.765  17.394  0.00  0.00    +0.000 OA
ATOM      3  N   UNL     1       2.440   7.339  19.487  0.00  0.00    +0.000 N 
ATOM      4  H   UNL     1       1.638   7.610  20.048  0.00  0.00    +0.000 HD
ENDROOT
BRANCH   1   6
ATOM      5  N   UNL     1       0.448   9.291  18.903  0.00  0.00    +0.000 N 
ATOM      6  C   UNL     1       1.631   9.316  18.138  0.00  0.00    +0.000 C 
ATOM      7  O   UNL     1       1.973  10.192  17.352  0.00  0.00    +0.000 OA
ATOM      8  H   UNL     1       0.292   8.442  19.436  0.00  0.00    +0.000 HD
BRANCH   5  13
ATOM      9  C   UNL     1      -2.756  11.255  18.444  0.00  0.00    +0.000 A 
ATOM     10  C   UNL     1      -2.613  12.256  19.399  0.00  0.00    +0.000 A 
ATOM     11  C   UNL     1      -1.448  12.319  20.165  0.00  0.00    +0.000 A 
ATOM     12  C   UNL     1      -0.429  11.368  19.992  0.00  0.00    +0.000 A 
ATOM     13  C   UNL     1      -0.544  10.332  19.055  0.00  0.00    +0.000 A 
ATOM     14  C   UNL     1      -1.729  10.300  18.267  0.00  0.00    +0.000 A 
BRANCH   9  16
ATOM     15  C   UNL     1      -3.994  11.273  16.387  0.00  0.00    +0.000 C 
ATOM     16  O   UNL     1      -3.969  11.313  17.805  0.00  0.00    +0.000 OA
ENDBRANCH   9  16
ENDBRANCH   5  13
ENDBRANCH   1   6
BRANCH   3  17
ATOM     17  C   UNL     1       3.046   6.026  19.838  0.00  0.00    +0.000 C 
BRANCH  17  18
ATOM     18  C   UNL     1       2.056   4.831  19.734  0.00  0.00    +0.000 C 
ATOM     19  C   UNL     1       1.855   3.977  20.990  0.00  0.00    +0.000 C 
ATOM     20  C   UNL     1       0.850   2.940  20.494  0.00  0.00    +0.000 C 
ATOM     21  C   UNL     1       1.109   2.787  18.980  0.00  0.00    +0.000 C 
ATOM     22  N   UNL     1       2.215   3.764  18.618  0.00  0.00    +0.000 NA
BRANCH  22  23
ATOM     23  S   UNL     1       3.768   2.999  18.467  0.00  0.00    +0.000 S 
ATOM     24  O   UNL     1       4.353   3.001  19.803  0.00  0.00    +0.000 OA
ATOM     25  O   UNL     1       3.580   1.750  17.762  0.00  0.00    +0.000 OA
BRANCH  23  26
ATOM     26  C   UNL     1       4.914   4.013  17.476  0.00  0.00    +0.000 A 
ATOM     27  C   UNL     1       6.110   4.456  18.071  0.00  0.00    +0.000 A 
ATOM     28  C   UNL     1       7.219   4.822  17.287  0.00  0.00    +0.000 A 
ATOM     29  C   UNL     1       7.156   4.751  15.897  0.00  0.00    +0.000 A 
ATOM     30  C   UNL     1       5.965   4.346  15.286  0.00  0.00    +0.000 A 
ATOM     31  C   UNL     1       4.852   3.978  16.069  0.00  0.00    +0.000 A 
ENDBRANCH  23  26
ENDBRANCH  22  23
ENDBRANCH  17  18
ENDBRANCH   3  17
TORSDOF 7
ENDMDL
MODEL 3
REMARK VINA RESULT:      -8.1      2.393      3.407
REMARK  Name = 
REMARK  8 active torsions:
REMARK  status: ('A' for Active; 'I' for Inactive)
REMARK    1  A    between atoms: C_1  and  O_2
REMARK    2  A    between atoms: O_2  and  C_3
REMARK    3  A    between atoms: C_7  and  N_8
REMARK    4  A    between atoms: C_9  and  C_11
REMARK    5  A    between atoms: N_13  and  C_14
REMARK    6  A    between atoms: C_14  and  C_15
REMARK    7  A    between atoms: N_19  and  S_20
REMARK    8  A    between atoms: S_20  and  C_23
REMARK                            x       y       z     vdW  Elec       q    Type
REMARK                         _______ _______ _______ _____ _____    ______ ____
ROOT
ATOM      1  C   UNL     1       1.884   8.574  18.629  0.00  0.00    +0.000 C 
ATOM      2  O   UNL     1       2.250   8.615  17.462  0.00  0.00    +0.000 OA
ATOM      3  N   UNL     1       2.219   7.567  19.543  0.00  0.00    +0.000 N 
ATOM      4  H   UNL     1       1.703   7.596  20.416  0.00  0.00    +0.000 HD
ENDROOT
BRANCH   1   6
ATOM      5  N   UNL     1       0.894   9.829  20.613  0.00  0.00    +0.000 N 
ATOM      6  C   UNL     1       0.945   9.723  19.208  0.00  0.00    +0.000 C 
ATOM      7  O   UNL     1       0.318  10.400  18.402  0.00  0.00    +0.000 OA
ATOM      8  H   UNL     1       1.418   9.125  21.121  0.00  0.00    +0.000 HD
BRANCH   5  13
ATOM      9  C   UNL     1      -0.148  13.220  21.934  0.00  0.00    +0.000 A 
ATOM     10  C   UNL     1      -1.147  12.875  22.839  0.00  0.00    +0.000 A 
ATOM     11  C   UNL     1      -1.452  11.530  23.053  0.00  0.00    +0.000 A 
ATOM     12  C   UNL     1      -0.771  10.525  22.348  0.00  0.00    +0.000 A 
ATOM     13  C   UNL     1       0.227  10.831  21.413  0.00  0.00    +0.000 A 
ATOM     14  C   UNL     1       0.539  12.207  21.227  0.00  0.00    +0.000 A 
BRANCH   9  16
ATOM     15  C   UNL     1       1.309  15.127  21.875  0.00  0.00    +0.000 C 
ATOM     16  O   UNL     1       0.002  14.579  21.814  0.00  0.00    +0.000 OA
ENDBRANCH   9  16
ENDBRANCH   5  13
ENDBRANCH   1   6
BRANCH   3  17
ATOM     17  C   UNL     1       2.914   6.282  19.257  0.00  0.00    +0.000 C 
BRANCH  17  18
ATOM     18  C   UNL     1       1.990   5.035  19.349  0.00  0.00    +0.000 C 
ATOM     19  C   UNL     1       1.822   4.387  20.728  0.00  0.00    +0.000 C 
ATOM     20  C   UNL     1       0.878   3.231  20.407  0.00  0.00    +0.000 C 
ATOM     21  C   UNL     1       1.159   2.847  18.938  0.00  0.00    +0.000 C 
ATOM     22  N   UNL     1       2.215   3.811  18.422  0.00  0.00    +0.000 NA
BRANCH  22  23
ATOM     23  S   UNL     1       3.807   3.115  18.398  0.00  0.00    +0.000 S 
ATOM     24  O   UNL     1       4.331   3.255  19.753  0.00  0.00    +0.000 OA
ATOM     25  O   UNL     1       3.710   1.806  17.792  0.00  0.00    +0.000 OA
BRANCH  23  26
ATOM     26  C   UNL     1       4.948   4.103  17.374  0.00  0.00    +0.000 A 
ATOM     27  C   UNL     1       6.182   4.493  17.925  0.00  0.00    +0.000 A 
ATOM     28  C   UNL     1       7.270   4.832  17.101  0.00  0.00    +0.000 A 
ATOM     29  C   UNL     1       7.148   4.784  15.713  0.00  0.00    +0.000 A 
ATOM     30  C   UNL     1       5.919   4.431  15.147  0.00  0.00    +0.000 A 
ATOM     31  C   UNL     1       4.827   4.091  15.971  0.00  0.00    +0.000 A 
ENDBRANCH  23  26
ENDBRANCH  22  23
ENDBRANCH  17  18
ENDBRANCH   3  17
TORSDOF 7
ENDMDL
MODEL 4
REMARK VINA RESULT:      -8.1      1.550      2.558
REMARK  Name = 
REMARK  8 active torsions:
REMARK  status: ('A' for Active; 'I' for Inactive)
REMARK    1  A    between atoms: C_1  and  O_2
REMARK    2  A    between atoms: O_2  and  C_3
REMARK    3  A    between atoms: C_7  and  N_8
REMARK    4  A    between atoms: C_9  and  C_11
REMARK    5  A    between atoms: N_13  and  C_14
REMARK    6  A    between atoms: C_14  and  C_15
REMARK    7  A    between atoms: N_19  and  S_20
REMARK    8  A    between atoms: S_20  and  C_23
REMARK                            x       y       z     vdW  Elec       q    Type
REMARK                         _______ _______ _______ _____ _____    ______ ____
ROOT
ATOM      1  C   UNL     1       2.579   8.013  18.375  0.00  0.00    +0.000 C 
ATOM      2  O   UNL     1       3.346   7.752  17.457  0.00  0.00    +0.000 OA
ATOM      3  N   UNL     1       2.463   7.276  19.560  0.00  0.00    +0.000 N 
ATOM      4  H   UNL     1       1.670   7.527  20.142  0.00  0.00    +0.000 HD
ENDROOT
BRANCH   1   6
ATOM      5  N   UNL     1       0.472   9.247  19.103  0.00  0.00    +0.000 N 
ATOM      6  C   UNL     1       1.606   9.270  18.266  0.00  0.00    +0.000 C 
ATOM      7  O   UNL     1       1.893  10.137  17.449  0.00  0.00    +0.000 OA
ATOM      8  H   UNL     1       0.356   8.403  19.654  0.00  0.00    +0.000 HD
BRANCH   5  13
ATOM      9  C   UNL     1      -1.309  12.229  20.607  0.00  0.00    +0.000 A 
ATOM     10  C   UNL     1      -2.331  12.441  19.687  0.00  0.00    +0.000 A 
ATOM     11  C   UNL     1      -2.468  11.582  18.596  0.00  0.00    +0.000 A 
ATOM     12  C   UNL     1      -1.571  10.517  18.411  0.00  0.00    +0.000 A 
ATOM     13  C   UNL     1      -0.515  10.283  19.303  0.00  0.00    +0.000 A 
ATOM     14  C   UNL     1      -0.408  11.156  20.422  0.00  0.00    +0.000 A 
BRANCH   9  16
ATOM     15  C   UNL     1      -1.181  12.756  22.946  0.00  0.00    +0.000 C 
ATOM     16  O   UNL     1      -1.291  13.180  21.597  0.00  0.00    +0.000 OA
ENDBRANCH   9  16
ENDBRANCH   5  13
ENDBRANCH   1   6
BRANCH   3  17
ATOM     17  C   UNL     1       3.090   5.963  19.873  0.00  0.00    +0.000 C 
BRANCH  17  18
ATOM     18  C   UNL     1       2.105   4.762  19.794  0.00  0.00    +0.000 C 
ATOM     19  C   UNL     1       1.933   3.912  21.057  0.00  0.00    +0.000 C 
ATOM     20  C   UNL     1       0.924   2.868  20.585  0.00  0.00    +0.000 C 
ATOM     21  C   UNL     1       1.153   2.711  19.066  0.00  0.00    +0.000 C 
ATOM     22  N   UNL     1       2.246   3.693  18.679  0.00  0.00    +0.000 NA
BRANCH  22  23
ATOM     23  S   UNL     1       3.799   2.935  18.499  0.00  0.00    +0.000 S 
ATOM     24  O   UNL     1       4.412   2.945  19.823  0.00  0.00    +0.000 OA
ATOM     25  O   UNL     1       3.603   1.682  17.802  0.00  0.00    +0.000 OA
BRANCH  23  26
ATOM     26  C   UNL     1       4.920   3.951  17.480  0.00  0.00    +0.000 A 
ATOM     27  C   UNL     1       6.128   4.398  18.047  0.00  0.00    +0.000 A 
ATOM     28  C   UNL     1       7.217   4.766  17.237  0.00  0.00    +0.000 A 
ATOM     29  C   UNL     1       7.122   4.692  15.848  0.00  0.00    +0.000 A 
ATOM     30  C   UNL     1       5.918   4.283  15.266  0.00  0.00    +0.000 A 
ATOM     31  C   UNL     1       4.826   3.913  16.075  0.00  0.00    +0.000 A 
ENDBRANCH  23  26
ENDBRANCH  22  23
ENDBRANCH  17  18
ENDBRANCH   3  17
TORSDOF 7
ENDMDL
MODEL 5
REMARK VINA RESULT:      -8.0      0.955      1.132
REMARK  Name = 
REMARK  8 active torsions:
REMARK  status: ('A' for Active; 'I' for Inactive)
REMARK    1  A    between atoms: C_1  and  O_2
REMARK    2  A    between atoms: O_2  and  C_3
REMARK    3  A    between atoms: C_7  and  N_8
REMARK    4  A    between atoms: C_9  and  C_11
REMARK    5  A    between atoms: N_13  and  C_14
REMARK    6  A    between atoms: C_14  and  C_15
REMARK    7  A    between atoms: N_19  and  S_20
REMARK    8  A    between atoms: S_20  and  C_23
REMARK                            x       y       z     vdW  Elec       q    Type
REMARK                         _______ _______ _______ _____ _____    ______ ____
ROOT
ATOM      1  C   UNL     1       2.539   7.882  18.522  0.00  0.00    +0.000 C 
ATOM      2  O   UNL     1       3.235   7.500  17.591  0.00  0.00    +0.000 OA
ATOM      3  N   UNL     1       2.399   7.217  19.748  0.00  0.00    +0.000 N 
ATOM      4  H   UNL     1       1.661   7.576  20.345  0.00  0.00    +0.000 HD
ENDROOT
BRANCH   1   6
ATOM      5  N   UNL     1       0.570   9.336  19.229  0.00  0.00    +0.000 N 
ATOM      6  C   UNL     1       1.693   9.225  18.385  0.00  0.00    +0.000 C 
ATOM      7  O   UNL     1       2.058  10.037  17.544  0.00  0.00    +0.000 OA
ATOM      8  H   UNL     1       0.376   8.523  19.804  0.00  0.00    +0.000 HD
BRANCH   5  13
ATOM      9  C   UNL     1      -2.410  11.634  18.816  0.00  0.00    +0.000 A 
ATOM     10  C   UNL     1      -2.168  12.589  19.798  0.00  0.00    +0.000 A 
ATOM     11  C   UNL     1      -1.006  12.510  20.568  0.00  0.00    +0.000 A 
ATOM     12  C   UNL     1      -0.091  11.464  20.371  0.00  0.00    +0.000 A 
ATOM     13  C   UNL     1      -0.309  10.470  19.407  0.00  0.00    +0.000 A 
ATOM     14  C   UNL     1      -1.487  10.582  18.616  0.00  0.00    +0.000 A 
BRANCH   9  16
ATOM     15  C   UNL     1      -4.386  10.702  17.821  0.00  0.00    +0.000 C 
ATOM     16  O   UNL     1      -3.608  11.834  18.177  0.00  0.00    +0.000 OA
ENDBRANCH   9  16
ENDBRANCH   5  13
ENDBRANCH   1   6
BRANCH   3  17
ATOM     17  C   UNL     1       2.904   5.863  20.104  0.00  0.00    +0.000 C 
BRANCH  17  18
ATOM     18  C   UNL     1       1.939   4.710  19.707  0.00  0.00    +0.000 C 
ATOM     19  C   UNL     1       1.533   3.725  20.809  0.00  0.00    +0.000 C 
ATOM     20  C   UNL     1       0.617   2.773  20.043  0.00  0.00    +0.000 C 
ATOM     21  C   UNL     1       1.117   2.786  18.582  0.00  0.00    +0.000 C 
ATOM     22  N   UNL     1       2.271   3.772  18.517  0.00  0.00    +0.000 NA
BRANCH  22  23
ATOM     23  S   UNL     1       3.824   2.994  18.529  0.00  0.00    +0.000 S 
ATOM     24  O   UNL     1       4.246   2.953  19.924  0.00  0.00    +0.000 OA
ATOM     25  O   UNL     1       3.711   1.767  17.771  0.00  0.00    +0.000 OA
BRANCH  23  26
ATOM     26  C   UNL     1       5.089   4.021  17.709  0.00  0.00    +0.000 A 
ATOM     27  C   UNL     1       4.879   4.410  16.373  0.00  0.00    +0.000 A 
ATOM     28  C   UNL     1       5.530   5.534  15.833  0.00  0.00    +0.000 A 
ATOM     29  C   UNL     1       6.398   6.292  16.618  0.00  0.00    +0.000 A 
ATOM     30  C   UNL     1       6.645   5.901  17.937  0.00  0.00    +0.000 A 
ATOM     31  C   UNL     1       5.994   4.775  18.480  0.00  0.00    +0.000 A 
ENDBRANCH  23  26
ENDBRANCH  22  23
ENDBRANCH  17  18
ENDBRANCH   3  17
TORSDOF 7
ENDMDL
MODEL 6
REMARK VINA RESULT:      -8.0      2.382      3.113
REMARK  Name = 
REMARK  8 active torsions:
REMARK  status: ('A' for Active; 'I' for Inactive)
REMARK    1  A    between atoms: C_1  and  O_2
REMARK    2  A    between atoms: O_2  and  C_3
REMARK    3  A    between atoms: C_7  and  N_8
REMARK    4  A    between atoms: C_9  and  C_11
REMARK    5  A    between atoms: N_13  and  C_14
REMARK    6  A    between atoms: C_14  and  C_15
REMARK    7  A    between atoms: N_19  and  S_20
REMARK    8  A    between atoms: S_20  and  C_23
REMARK                            x       y       z     vdW  Elec       q    Type
REMARK                         _______ _______ _______ _____ _____    ______ ____
ROOT
ATOM      1  C   UNL     1       1.934   8.542  18.568  0.00  0.00    +0.000 C 
ATOM      2  O   UNL     1       2.401   8.566  17.437  0.00  0.00    +0.000 OA
ATOM      3  N   UNL     1       2.194   7.553  19.525  0.00  0.00    +0.000 N 
ATOM      4  H   UNL     1       1.603   7.591  20.349  0.00  0.00    +0.000 HD
ENDROOT
BRANCH   1   6
ATOM      5  N   UNL     1       1.011  10.049  20.404  0.00  0.00    +0.000 N 
ATOM      6  C   UNL     1       0.938   9.691  19.043  0.00  0.00    +0.000 C 
ATOM      7  O   UNL     1       0.168  10.151  18.208  0.00  0.00    +0.000 OA
ATOM      8  H   UNL     1       1.654   9.498  20.964  0.00  0.00    +0.000 HD
BRANCH   5  13
ATOM      9  C   UNL     1      -1.451  11.833  22.659  0.00  0.00    +0.000 A 
ATOM     10  C   UNL     1      -0.998  13.146  22.588  0.00  0.00    +0.000 A 
ATOM     11  C   UNL     1       0.085  13.460  21.767  0.00  0.00    +0.000 A 
ATOM     12  C   UNL     1       0.733  12.457  21.028  0.00  0.00    +0.000 A 
ATOM     13  C   UNL     1       0.322  11.119  21.088  0.00  0.00    +0.000 A 
ATOM     14  C   UNL     1      -0.801  10.824  21.913  0.00  0.00    +0.000 A 
BRANCH   9  16
ATOM     15  C   UNL     1      -3.432  12.747  23.662  0.00  0.00    +0.000 C 
ATOM     16  O   UNL     1      -2.497  11.687  23.536  0.00  0.00    +0.000 OA
ENDBRANCH   9  16
ENDBRANCH   5  13
ENDBRANCH   1   6
BRANCH   3  17
ATOM     17  C   UNL     1       2.922   6.270  19.324  0.00  0.00    +0.000 C 
BRANCH  17  18
ATOM     18  C   UNL     1       2.015   5.011  19.430  0.00  0.00    +0.000 C 
ATOM     19  C   UNL     1       1.857   4.376  20.816  0.00  0.00    +0.000 C 
ATOM     20  C   UNL     1       0.929   3.204  20.508  0.00  0.00    +0.000 C 
ATOM     21  C   UNL     1       1.214   2.808  19.043  0.00  0.00    +0.000 C 
ATOM     22  N   UNL     1       2.257   3.780  18.517  0.00  0.00    +0.000 NA
BRANCH  22  23
ATOM     23  S   UNL     1       3.858   3.107  18.500  0.00  0.00    +0.000 S 
ATOM     24  O   UNL     1       4.300   3.076  19.890  0.00  0.00    +0.000 OA
ATOM     25  O   UNL     1       3.817   1.885  17.726  0.00  0.00    +0.000 OA
BRANCH  23  26
ATOM     26  C   UNL     1       5.041   4.227  17.679  0.00  0.00    +0.000 A 
ATOM     27  C   UNL     1       4.656   4.852  16.479  0.00  0.00    +0.000 A 
ATOM     28  C   UNL     1       5.281   6.034  16.043  0.00  0.00    +0.000 A 
ATOM     29  C   UNL     1       6.297   6.616  16.799  0.00  0.00    +0.000 A 
ATOM     30  C   UNL     1       6.716   5.991  17.978  0.00  0.00    +0.000 A 
ATOM     31  C   UNL     1       6.092   4.806  18.416  0.00  0.00    +0.000 A 
ENDBRANCH  23  26
ENDBRANCH  22  23
ENDBRANCH  17  18
ENDBRANCH   3  17
TORSDOF 7
ENDMDL
MODEL 7
REMARK VINA RESULT:      -7.9      1.079      1.694
REMARK  Name = 
REMARK  8 active torsions:
REMARK  status: ('A' for Active; 'I' for Inactive)
REMARK    1  A    between atoms: C_1  and  O_2
REMARK    2  A    between atoms: O_2  and  C_3
REMARK    3  A    between atoms: C_7  and  N_8
REMARK    4  A    between atoms: C_9  and  C_11
REMARK    5  A    between atoms: N_13  and  C_14
REMARK    6  A    between atoms: C_14  and  C_15
REMARK    7  A    between atoms: N_19  and  S_20
REMARK    8  A    between atoms: S_20  and  C_23
REMARK                            x       y       z     vdW  Elec       q    Type
REMARK                         _______ _______ _______ _____ _____    ______ ____
ROOT
ATOM      1  C   UNL     1       2.249   8.511  18.108  0.00  0.00    +0.000 C 
ATOM      2  O   UNL     1       3.085   8.474  17.215  0.00  0.00    +0.000 OA
ATOM      3  N   UNL     1       2.159   7.594  19.164  0.00  0.00    +0.000 N 
ATOM      4  H   UNL     1       1.316   7.670  19.723  0.00  0.00    +0.000 HD
ENDROOT
BRANCH   1   6
ATOM      5  N   UNL     1      -0.138   9.288  17.673  0.00  0.00    +0.000 N 
ATOM      6  C   UNL     1       1.146   9.660  18.119  0.00  0.00    +0.000 C 
ATOM      7  O   UNL     1       1.499  10.777  18.479  0.00  0.00    +0.000 OA
ATOM      8  H   UNL     1      -0.221   8.335  17.334  0.00  0.00    +0.000 HD
BRANCH   5  13
ATOM      9  C   UNL     1      -2.823  11.692  18.831  0.00  0.00    +0.000 A 
ATOM     10  C   UNL     1      -3.640  11.764  17.708  0.00  0.00    +0.000 A 
ATOM     11  C   UNL     1      -3.342  10.991  16.585  0.00  0.00    +0.000 A 
ATOM     12  C   UNL     1      -2.212  10.157  16.574  0.00  0.00    +0.000 A 
ATOM     13  C   UNL     1      -1.351  10.073  17.677  0.00  0.00    +0.000 A 
ATOM     14  C   UNL     1      -1.687  10.851  18.821  0.00  0.00    +0.000 A 
BRANCH   9  16
ATOM     15  C   UNL     1      -4.621  12.647  20.104  0.00  0.00    +0.000 C 
ATOM     16  O   UNL     1      -3.233  12.539  19.831  0.00  0.00    +0.000 OA
ENDBRANCH   9  16
ENDBRANCH   5  13
ENDBRANCH   1   6
BRANCH   3  17
ATOM     17  C   UNL     1       2.916   6.322  19.323  0.00  0.00    +0.000 C 
BRANCH  17  18
ATOM     18  C   UNL     1       2.009   5.062  19.426  0.00  0.00    +0.000 C 
ATOM     19  C   UNL     1       1.822   4.446  20.816  0.00  0.00    +0.000 C 
ATOM     20  C   UNL     1       0.904   3.266  20.503  0.00  0.00    +0.000 C 
ATOM     21  C   UNL     1       1.222   2.853  19.050  0.00  0.00    +0.000 C 
ATOM     22  N   UNL     1       2.273   3.821  18.534  0.00  0.00    +0.000 NA
BRANCH  22  23
ATOM     23  S   UNL     1       3.877   3.151  18.561  0.00  0.00    +0.000 S 
ATOM     24  O   UNL     1       4.297   3.162  19.958  0.00  0.00    +0.000 OA
ATOM     25  O   UNL     1       3.850   1.907  17.823  0.00  0.00    +0.000 OA
BRANCH  23  26
ATOM     26  C   UNL     1       5.069   4.250  17.727  0.00  0.00    +0.000 A 
ATOM     27  C   UNL     1       4.689   4.865  16.519  0.00  0.00    +0.000 A 
ATOM     28  C   UNL     1       5.325   6.036  16.070  0.00  0.00    +0.000 A 
ATOM     29  C   UNL     1       6.348   6.616  16.818  0.00  0.00    +0.000 A 
ATOM     30  C   UNL     1       6.762   6.000  18.003  0.00  0.00    +0.000 A 
ATOM     31  C   UNL     1       6.127   4.827  18.456  0.00  0.00    +0.000 A 
ENDBRANCH  23  26
ENDBRANCH  22  23
ENDBRANCH  17  18
ENDBRANCH   3  17
TORSDOF 7
ENDMDL
MODEL 8
REMARK VINA RESULT:      -7.8      1.236      2.156
REMARK  Name = 
REMARK  8 active torsions:
REMARK  status: ('A' for Active; 'I' for Inactive)
REMARK    1  A    between atoms: C_1  and  O_2
REMARK    2  A    between atoms: O_2  and  C_3
REMARK    3  A    between atoms: C_7  and  N_8
REMARK    4  A    between atoms: C_9  and  C_11
REMARK    5  A    between atoms: N_13  and  C_14
REMARK    6  A    between atoms: C_14  and  C_15
REMARK    7  A    between atoms: N_19  and  S_20
REMARK    8  A    between atoms: S_20  and  C_23
REMARK                            x       y       z     vdW  Elec       q    Type
REMARK                         _______ _______ _______ _____ _____    ______ ____
ROOT
ATOM      1  C   UNL     1       2.046   8.601  18.140  0.00  0.00    +0.000 C 
ATOM      2  O   UNL     1       2.695   8.564  17.104  0.00  0.00    +0.000 OA
ATOM      3  N   UNL     1       2.165   7.689  19.197  0.00  0.00    +0.000 N 
ATOM      4  H   UNL     1       1.443   7.763  19.907  0.00  0.00    +0.000 HD
ENDROOT
BRANCH   1   6
ATOM      5  N   UNL     1      -0.289   9.537  17.732  0.00  0.00    +0.000 N 
ATOM      6  C   UNL     1       0.957   9.743  18.357  0.00  0.00    +0.000 C 
ATOM      7  O   UNL     1       1.290  10.722  19.016  0.00  0.00    +0.000 OA
ATOM      8  H   UNL     1      -0.353   8.704  17.155  0.00  0.00    +0.000 HD
BRANCH   5  13
ATOM      9  C   UNL     1      -2.839  11.968  19.115  0.00  0.00    +0.000 A 
ATOM     10  C   UNL     1      -3.752  12.044  18.069  0.00  0.00    +0.000 A 
ATOM     11  C   UNL     1      -3.561  11.266  16.926  0.00  0.00    +0.000 A 
ATOM     12  C   UNL     1      -2.444  10.422  16.818  0.00  0.00    +0.000 A 
ATOM     13  C   UNL     1      -1.489  10.333  17.840  0.00  0.00    +0.000 A 
ATOM     14  C   UNL     1      -1.716  11.117  19.007  0.00  0.00    +0.000 A 
BRANCH   9  16
ATOM     15  C   UNL     1      -2.471  12.672  21.381  0.00  0.00    +0.000 C 
ATOM     16  O   UNL     1      -3.151  12.821  20.145  0.00  0.00    +0.000 OA
ENDBRANCH   9  16
ENDBRANCH   5  13
ENDBRANCH   1   6
BRANCH   3  17
ATOM     17  C   UNL     1       2.946   6.422  19.214  0.00  0.00    +0.000 C 
BRANCH  17  18
ATOM     18  C   UNL     1       2.084   5.157  19.486  0.00  0.00    +0.000 C 
ATOM     19  C   UNL     1       2.068   4.615  20.919  0.00  0.00    +0.000 C 
ATOM     20  C   UNL     1       1.144   3.407  20.776  0.00  0.00    +0.000 C 
ATOM     21  C   UNL     1       1.305   2.919  19.320  0.00  0.00    +0.000 C 
ATOM     22  N   UNL     1       2.271   3.872  18.637  0.00  0.00    +0.000 NA
BRANCH  22  23
ATOM     23  S   UNL     1       3.880   3.228  18.517  0.00  0.00    +0.000 S 
ATOM     24  O   UNL     1       4.483   3.394  19.835  0.00  0.00    +0.000 OA
ATOM     25  O   UNL     1       3.788   1.912  17.924  0.00  0.00    +0.000 OA
BRANCH  23  26
ATOM     26  C   UNL     1       4.922   4.245  17.417  0.00  0.00    +0.000 A 
ATOM     27  C   UNL     1       6.228   4.565  17.832  0.00  0.00    +0.000 A 
ATOM     28  C   UNL     1       7.218   4.923  16.901  0.00  0.00    +0.000 A 
ATOM     29  C   UNL     1       6.925   4.965  15.538  0.00  0.00    +0.000 A 
ATOM     30  C   UNL     1       5.624   4.682  15.110  0.00  0.00    +0.000 A 
ATOM     31  C   UNL     1       4.630   4.323  16.042  0.00  0.00    +0.000 A 
ENDBRANCH  23  26
ENDBRANCH  22  23
ENDBRANCH  17  18
ENDBRANCH   3  17
TORSDOF 7
ENDMDL
MODEL 9
REMARK VINA RESULT:      -7.8      1.936      2.881
REMARK  Name = 
REMARK  8 active torsions:
REMARK  status: ('A' for Active; 'I' for Inactive)
REMARK    1  A    between atoms: C_1  and  O_2
REMARK    2  A    between atoms: O_2  and  C_3
REMARK    3  A    between atoms: C_7  and  N_8
REMARK    4  A    between atoms: C_9  and  C_11
REMARK    5  A    between atoms: N_13  and  C_14
REMARK    6  A    between atoms: C_14  and  C_15
REMARK    7  A    between atoms: N_19  and  S_20
REMARK    8  A    between atoms: S_20  and  C_23
REMARK                            x       y       z     vdW  Elec       q    Type
REMARK                         _______ _______ _______ _____ _____    ______ ____
ROOT
ATOM      1  C   UNL     1       2.265   8.155  18.708  0.00  0.00    +0.000 C 
ATOM      2  O   UNL     1       2.733   7.872  17.613  0.00  0.00    +0.000 OA
ATOM      3  N   UNL     1       2.420   7.389  19.871  0.00  0.00    +0.000 N 
ATOM      4  H   UNL     1       1.836   7.674  20.649  0.00  0.00    +0.000 HD
ENDROOT
BRANCH   1   6
ATOM      5  N   UNL     1       0.412   9.439  19.895  0.00  0.00    +0.000 N 
ATOM      6  C   UNL     1       1.393   9.476  18.884  0.00  0.00    +0.000 C 
ATOM      7  O   UNL     1       1.615  10.405  18.116  0.00  0.00    +0.000 OA
ATOM      8  H   UNL     1       0.317   8.550  20.376  0.00  0.00    +0.000 HD
BRANCH   5  13
ATOM      9  C   UNL     1      -1.083  12.082  22.154  0.00  0.00    +0.000 A 
ATOM     10  C   UNL     1      -1.979  12.712  21.297  0.00  0.00    +0.000 A 
ATOM     11  C   UNL     1      -2.130  12.246  19.991  0.00  0.00    +0.000 A 
ATOM     12  C   UNL     1      -1.371  11.158  19.530  0.00  0.00    +0.000 A 
ATOM     13  C   UNL     1      -0.442  10.510  20.356  0.00  0.00    +0.000 A 
ATOM     14  C   UNL     1      -0.321  10.985  21.692  0.00  0.00    +0.000 A 
BRANCH   9  16
ATOM     15  C   UNL     1      -1.582  13.982  23.535  0.00  0.00    +0.000 C 
ATOM     16  O   UNL     1      -1.028  12.684  23.387  0.00  0.00    +0.000 OA
ENDBRANCH   9  16
ENDBRANCH   5  13
ENDBRANCH   1   6
BRANCH   3  17
ATOM     17  C   UNL     1       3.011   6.028  19.984  0.00  0.00    +0.000 C 
BRANCH  17  18
ATOM     18  C   UNL     1       2.013   4.882  19.653  0.00  0.00    +0.000 C 
ATOM     19  C   UNL     1       1.641   3.926  20.792  0.00  0.00    +0.000 C 
ATOM     20  C   UNL     1       0.679   2.973  20.086  0.00  0.00    +0.000 C 
ATOM     21  C   UNL     1       1.116   2.947  18.605  0.00  0.00    +0.000 C 
ATOM     22  N   UNL     1       2.280   3.914  18.470  0.00  0.00    +0.000 NA
BRANCH  22  23
ATOM     23  S   UNL     1       3.821   3.112  18.433  0.00  0.00    +0.000 S 
ATOM     24  O   UNL     1       4.221   2.937  19.826  0.00  0.00    +0.000 OA
ATOM     25  O   UNL     1       3.702   1.961  17.565  0.00  0.00    +0.000 OA
BRANCH  23  26
ATOM     26  C   UNL     1       5.114   4.189  17.729  0.00  0.00    +0.000 A 
ATOM     27  C   UNL     1       4.838   4.882  16.536  0.00  0.00    +0.000 A 
ATOM     28  C   UNL     1       5.555   6.040  16.187  0.00  0.00    +0.000 A 
ATOM     29  C   UNL     1       6.557   6.530  17.023  0.00  0.00    +0.000 A 
ATOM     30  C   UNL     1       6.869   5.835  18.196  0.00  0.00    +0.000 A 
ATOM     31  C   UNL     1       6.152   4.675  18.549  0.00  0.00    +0.000 A 
ENDBRANCH  23  26
ENDBRANCH  22  23
ENDBRANCH  17  18
ENDBRANCH   3  17
TORSDOF 7
ENDMDL
