MODEL 1
REMARK VINA RESULT:      -8.0      0.000      0.000
REMARK  Name = 
REMARK  5 active torsions:
REMARK  status: ('A' for Active; 'I' for Inactive)
REMARK    1  A    between atoms: C_1  and  O_2
REMARK    2  A    between atoms: O_2  and  C_3
REMARK    3  A    between atoms: C_6  and  C_7
REMARK    4  A    between atoms: N_18  and  C_19
REMARK    5  A    between atoms: C_25  and  C_26
REMARK                            x       y       z     vdW  Elec       q    Type
REMARK                         _______ _______ _______ _____ _____    ______ ____
ROOT
ATOM      1  C   UNL     1       2.132   7.899  20.212  0.00  0.00    +0.000 C 
ATOM      2  N   UNL     1       1.862   8.154  21.591  0.00  0.00    +0.000 N 
ATOM      3  C   UNL     1       1.211   9.258  22.058  0.00  0.00    +0.000 C 
ATOM      4  O   UNL     1       1.391   9.625  23.213  0.00  0.00    +0.000 OA
ATOM      5  C   UNL     1       0.248   9.906  21.140  0.00  0.00    +0.000 A 
ATOM      6  C   UNL     1       0.300   9.491  19.811  0.00  0.00    +0.000 A 
ATOM      7  N   UNL     1      -0.560   9.907  18.863  0.00  0.00    +0.000 NA
ATOM      8  C   UNL     1      -1.503  10.773  19.283  0.00  0.00    +0.000 A 
ATOM      9  C   UNL     1      -1.621  11.275  20.573  0.00  0.00    +0.000 A 
ATOM     10  C   UNL     1      -2.714  12.158  20.501  0.00  0.00    +0.000 A 
ATOM     11  N   UNL     1      -3.258  12.227  19.288  0.00  0.00    +0.000 NA
ATOM     12  N   UNL     1      -2.546  11.328  18.540  0.00  0.00    +0.000 N 
ATOM     13  C   UNL     1      -0.728  10.832  21.573  0.00  0.00    +0.000 A 
ATOM     14  C   UNL     1      -0.824  11.294  22.998  0.00  0.00    +0.000 C 
ATOM     15  N   UNL     1       1.258   8.632  19.356  0.00  0.00    +0.000 N 
ATOM     16  H   UNL     1       2.489   7.733  22.264  0.00  0.00    +0.000 HD
ATOM     17  H   UNL     1       1.153   8.342  18.395  0.00  0.00    +0.000 HD
ENDROOT
BRANCH   1  21
ATOM     18  C   UNL     1       1.869   3.662  19.354  0.00  0.00    +0.000 A 
ATOM     19  C   UNL     1       2.342   4.547  18.384  0.00  0.00    +0.000 A 
ATOM     20  C   UNL     1       2.430   5.913  18.656  0.00  0.00    +0.000 A 
ATOM     21  C   UNL     1       2.029   6.421  19.904  0.00  0.00    +0.000 A 
ATOM     22  C   UNL     1       1.543   5.527  20.865  0.00  0.00    +0.000 A 
ATOM     23  C   UNL     1       1.461   4.157  20.593  0.00  0.00    +0.000 A 
BRANCH  18  25
ATOM     24  C   UNL     1       3.010   1.797  18.456  0.00  0.00    +0.000 C 
ATOM     25  O   UNL     1       1.807   2.352  18.970  0.00  0.00    +0.000 OA
ENDBRANCH  18  25
ENDBRANCH   1  21
BRANCH  12  26
ATOM     26  C   UNL     1      -2.952  11.051  17.198  0.00  0.00    +0.000 A 
ATOM     27  C   UNL     1      -4.157  11.594  16.722  0.00  0.00    +0.000 A 
ATOM     28  C   UNL     1      -4.606  11.308  15.431  0.00  0.00    +0.000 A 
ATOM     29  C   UNL     1      -3.857  10.477  14.601  0.00  0.00    +0.000 A 
ATOM     30  C   UNL     1      -2.657   9.939  15.059  0.00  0.00    +0.000 A 
ATOM     31  C   UNL     1      -2.200  10.225  16.350  0.00  0.00    +0.000 A 
ENDBRANCH  12  26
TORSDOF 3
ENDMDL
MODEL 2
REMARK VINA RESULT:      -7.8      0.126      1.271
REMARK  Name = 
REMARK  5 active torsions:
REMARK  status: ('A' for Active; 'I' for Inactive)
REMARK    1  A    between atoms: C_1  and  O_2
REMARK    2  A    between atoms: O_2  and  C_3
REMARK    3  A    between atoms: C_6  and  C_7
REMARK    4  A    between atoms: N_18  and  C_19
REMARK    5  A    between atoms: C_25  and  C_26
REMARK                            x       y       z     vdW  Elec       q    Type
REMARK                         _______ _______ _______ _____ _____    ______ ____
ROOT
ATOM      1  C   UNL     1       2.148   7.933  20.166  0.00  0.00    +0.000 C 
ATOM      2  N   UNL     1       1.888   8.194  21.546  0.00  0.00    +0.000 N 
ATOM      3  C   UNL     1       1.225   9.290  22.012  0.00  0.00    +0.000 C 
ATOM      4  O   UNL     1       1.410   9.667  23.163  0.00  0.00    +0.000 OA
ATOM      5  C   UNL     1       0.243   9.917  21.100  0.00  0.00    +0.000 A 
ATOM      6  C   UNL     1       0.287   9.494  19.774  0.00  0.00    +0.000 A 
ATOM      7  N   UNL     1      -0.588   9.890  18.831  0.00  0.00    +0.000 NA
ATOM      8  C   UNL     1      -1.540  10.744  19.255  0.00  0.00    +0.000 A 
ATOM      9  C   UNL     1      -1.653  11.253  20.543  0.00  0.00    +0.000 A 
ATOM     10  C   UNL     1      -2.760  12.118  20.477  0.00  0.00    +0.000 A 
ATOM     11  N   UNL     1      -3.317  12.172  19.269  0.00  0.00    +0.000 NA
ATOM     12  N   UNL     1      -2.599  11.278  18.519  0.00  0.00    +0.000 N 
ATOM     13  C   UNL     1      -0.743  10.830  21.537  0.00  0.00    +0.000 A 
ATOM     14  C   UNL     1      -0.833  11.301  22.960  0.00  0.00    +0.000 C 
ATOM     15  N   UNL     1       1.254   8.647  19.314  0.00  0.00    +0.000 N 
ATOM     16  H   UNL     1       2.528   7.787  22.215  0.00  0.00    +0.000 HD
ATOM     17  H   UNL     1       1.144   8.349  18.356  0.00  0.00    +0.000 HD
ENDROOT
BRANCH   1  21
ATOM     18  C   UNL     1       1.880   3.701  19.291  0.00  0.00    +0.000 A 
ATOM     19  C   UNL     1       1.426   4.195  20.513  0.00  0.00    +0.000 A 
ATOM     20  C   UNL     1       1.508   5.558  20.799  0.00  0.00    +0.000 A 
ATOM     21  C   UNL     1       2.065   6.452  19.869  0.00  0.00    +0.000 A 
ATOM     22  C   UNL     1       2.530   5.945  18.650  0.00  0.00    +0.000 A 
ATOM     23  C   UNL     1       2.441   4.578  18.362  0.00  0.00    +0.000 A 
BRANCH  18  25
ATOM     24  C   UNL     1       2.642   1.763  18.171  0.00  0.00    +0.000 C 
ATOM     25  O   UNL     1       1.769   2.348  19.129  0.00  0.00    +0.000 OA
ENDBRANCH  18  25
ENDBRANCH   1  21
BRANCH  12  26
ATOM     26  C   UNL     1      -3.013  10.986  17.183  0.00  0.00    +0.000 A 
ATOM     27  C   UNL     1      -2.245  10.104  16.406  0.00  0.00    +0.000 A 
ATOM     28  C   UNL     1      -2.596   9.830  15.082  0.00  0.00    +0.000 A 
ATOM     29  C   UNL     1      -3.717  10.437  14.519  0.00  0.00    +0.000 A 
ATOM     30  C   UNL     1      -4.490  11.308  15.282  0.00  0.00    +0.000 A 
ATOM     31  C   UNL     1      -4.146  11.582  16.610  0.00  0.00    +0.000 A 
ENDBRANCH  12  26
TORSDOF 3
ENDMDL
MODEL 3
REMARK VINA RESULT:      -7.8      3.897      7.949
REMARK  Name = 
REMARK  5 active torsions:
REMARK  status: ('A' for Active; 'I' for Inactive)
REMARK    1  A    between atoms: C_1  and  O_2
REMARK    2  A    between atoms: O_2  and  C_3
REMARK    3  A    between atoms: C_6  and  C_7
REMARK    4  A    between atoms: N_18  and  C_19
REMARK    5  A    between atoms: C_25  and  C_26
REMARK                            x       y       z     vdW  Elec       q    Type
REMARK                         _______ _______ _______ _____ _____    ______ ____
ROOT
ATOM      1  C   UNL     1       0.504  12.324  18.837  0.00  0.00    +0.000 C 
ATOM      2  N   UNL     1       0.101  12.284  20.207  0.00  0.00    +0.000 N 
ATOM      3  C   UNL     1      -0.214  11.143  20.885  0.00  0.00    +0.000 C 
ATOM      4  O   UNL     1      -0.942  11.205  21.869  0.00  0.00    +0.000 OA
ATOM      5  C   UNL     1       0.424   9.891  20.423  0.00  0.00    +0.000 A 
ATOM      6  C   UNL     1       1.066   9.955  19.188  0.00  0.00    +0.000 A 
ATOM      7  N   UNL     1       1.773   8.940  18.659  0.00  0.00    +0.000 NA
ATOM      8  C   UNL     1       1.829   7.824  19.413  0.00  0.00    +0.000 A 
ATOM      9  C   UNL     1       1.199   7.646  20.638  0.00  0.00    +0.000 A 
ATOM     10  C   UNL     1       1.518   6.325  21.001  0.00  0.00    +0.000 A 
ATOM     11  N   UNL     1       2.280   5.700  20.106  0.00  0.00    +0.000 NA
ATOM     12  N   UNL     1       2.523   6.644  19.143  0.00  0.00    +0.000 N 
ATOM     13  C   UNL     1       0.466   8.713  21.202  0.00  0.00    +0.000 A 
ATOM     14  C   UNL     1      -0.202   8.608  22.542  0.00  0.00    +0.000 C 
ATOM     15  N   UNL     1       1.006  11.064  18.395  0.00  0.00    +0.000 N 
ATOM     16  H   UNL     1      -0.340  13.116  20.577  0.00  0.00    +0.000 HD
ATOM     17  H   UNL     1       1.570  11.026  17.559  0.00  0.00    +0.000 HD
ENDROOT
BRANCH   1  21
ATOM     18  C   UNL     1       3.465  15.408  18.150  0.00  0.00    +0.000 A 
ATOM     19  C   UNL     1       3.806  14.063  18.008  0.00  0.00    +0.000 A 
ATOM     20  C   UNL     1       2.855  13.066  18.226  0.00  0.00    +0.000 A 
ATOM     21  C   UNL     1       1.544  13.398  18.609  0.00  0.00    +0.000 A 
ATOM     22  C   UNL     1       1.215  14.750  18.764  0.00  0.00    +0.000 A 
ATOM     23  C   UNL     1       2.169  15.750  18.538  0.00  0.00    +0.000 A 
BRANCH  18  25
ATOM     24  C   UNL     1       5.072  16.862  19.095  0.00  0.00    +0.000 C 
ATOM     25  O   UNL     1       4.481  16.296  17.932  0.00  0.00    +0.000 OA
ENDBRANCH  18  25
ENDBRANCH   1  21
BRANCH  12  26
ATOM     26  C   UNL     1       3.428   6.346  18.077  0.00  0.00    +0.000 A 
ATOM     27  C   UNL     1       3.602   5.009  17.683  0.00  0.00    +0.000 A 
ATOM     28  C   UNL     1       4.511   4.677  16.675  0.00  0.00    +0.000 A 
ATOM     29  C   UNL     1       5.255   5.676  16.051  0.00  0.00    +0.000 A 
ATOM     30  C   UNL     1       5.085   7.005  16.429  0.00  0.00    +0.000 A 
ATOM     31  C   UNL     1       4.173   7.344  17.435  0.00  0.00    +0.000 A 
ENDBRANCH  12  26
TORSDOF 3
ENDMDL
MODEL 4
REMARK VINA RESULT:      -7.7      6.169      8.352
REMARK  Name = 
REMARK  5 active torsions:
REMARK  status: ('A' for Active; 'I' for Inactive)
REMARK    1  A    between atoms: C_1  and  O_2
REMARK    2  A    between atoms: O_2  and  C_3
REMARK    3  A    between atoms: C_6  and  C_7
REMARK    4  A    between atoms: N_18  and  C_19
REMARK    5  A    between atoms: C_25  and  C_26
REMARK                            x       y       z     vdW  Elec       q    Type
REMARK                         _______ _______ _______ _____ _____    ______ ____
ROOT
ATOM      1  C   UNL     1       4.647  15.253  17.790  0.00  0.00    +0.000 C 
ATOM      2  N   UNL     1       3.797  16.274  18.313  0.00  0.00    +0.000 N 
ATOM      3  C   UNL     1       2.438  16.183  18.386  0.00  0.00    +0.000 C 
ATOM      4  O   UNL     1       1.763  17.204  18.426  0.00  0.00    +0.000 OA
ATOM      5  C   UNL     1       1.862  14.824  18.495  0.00  0.00    +0.000 A 
ATOM      6  C   UNL     1       2.738  13.770  18.243  0.00  0.00    +0.000 A 
ATOM      7  N   UNL     1       2.409  12.473  18.385  0.00  0.00    +0.000 NA
ATOM      8  C   UNL     1       1.147  12.243  18.798  0.00  0.00    +0.000 A 
ATOM      9  C   UNL     1       0.187  13.217  19.042  0.00  0.00    +0.000 A 
ATOM     10  C   UNL     1      -0.961  12.488  19.402  0.00  0.00    +0.000 A 
ATOM     11  N   UNL     1      -0.773  11.170  19.395  0.00  0.00    +0.000 NA
ATOM     12  N   UNL     1       0.549  11.012  19.075  0.00  0.00    +0.000 N 
ATOM     13  C   UNL     1       0.533  14.579  18.905  0.00  0.00    +0.000 A 
ATOM     14  C   UNL     1      -0.438  15.687  19.198  0.00  0.00    +0.000 C 
ATOM     15  N   UNL     1       4.014  13.975  17.804  0.00  0.00    +0.000 N 
ATOM     16  H   UNL     1       4.142  17.224  18.266  0.00  0.00    +0.000 HD
ATOM     17  H   UNL     1       4.581  13.144  17.728  0.00  0.00    +0.000 HD
ENDROOT
BRANCH   1  21
ATOM     18  C   UNL     1       8.378  15.025  19.977  0.00  0.00    +0.000 A 
ATOM     19  C   UNL     1       7.166  15.104  20.663  0.00  0.00    +0.000 A 
ATOM     20  C   UNL     1       5.961  15.175  19.963  0.00  0.00    +0.000 A 
ATOM     21  C   UNL     1       5.950  15.187  18.557  0.00  0.00    +0.000 A 
ATOM     22  C   UNL     1       7.172  15.121  17.878  0.00  0.00    +0.000 A 
ATOM     23  C   UNL     1       8.379  15.043  18.582  0.00  0.00    +0.000 A 
BRANCH  18  25
ATOM     24  C   UNL     1      10.583  14.220  20.258  0.00  0.00    +0.000 C 
ATOM     25  O   UNL     1       9.494  14.981  20.765  0.00  0.00    +0.000 OA
ENDBRANCH  18  25
ENDBRANCH   1  21
BRANCH  12  26
ATOM     26  C   UNL     1       1.130   9.706  19.102  0.00  0.00    +0.000 A 
ATOM     27  C   UNL     1       1.139   8.988  20.309  0.00  0.00    +0.000 A 
ATOM     28  C   UNL     1       1.737   7.728  20.383  0.00  0.00    +0.000 A 
ATOM     29  C   UNL     1       2.333   7.173  19.253  0.00  0.00    +0.000 A 
ATOM     30  C   UNL     1       2.323   7.873  18.050  0.00  0.00    +0.000 A 
ATOM     31  C   UNL     1       1.722   9.133  17.969  0.00  0.00    +0.000 A 
ENDBRANCH  12  26
TORSDOF 3
ENDMDL
MODEL 5
REMARK VINA RESULT:      -7.7      3.890      7.937
REMARK  Name = 
REMARK  5 active torsions:
REMARK  status: ('A' for Active; 'I' for Inactive)
REMARK    1  A    between atoms: C_1  and  O_2
REMARK    2  A    between atoms: O_2  and  C_3
REMARK    3  A    between atoms: C_6  and  C_7
REMARK    4  A    between atoms: N_18  and  C_19
REMARK    5  A    between atoms: C_25  and  C_26
REMARK                            x       y       z     vdW  Elec       q    Type
REMARK                         _______ _______ _______ _____ _____    ______ ____
ROOT
ATOM      1  C   UNL     1       0.476  12.299  18.796  0.00  0.00    +0.000 C 
ATOM      2  N   UNL     1       0.058  12.268  20.161  0.00  0.00    +0.000 N 
ATOM      3  C   UNL     1      -0.253  11.131  20.847  0.00  0.00    +0.000 C 
ATOM      4  O   UNL     1      -0.992  11.194  21.822  0.00  0.00    +0.000 OA
ATOM      5  C   UNL     1       0.403   9.881  20.404  0.00  0.00    +0.000 A 
ATOM      6  C   UNL     1       1.058   9.939  19.176  0.00  0.00    +0.000 A 
ATOM      7  N   UNL     1       1.781   8.926  18.664  0.00  0.00    +0.000 NA
ATOM      8  C   UNL     1       1.840   7.819  19.430  0.00  0.00    +0.000 A 
ATOM      9  C   UNL     1       1.198   7.645  20.649  0.00  0.00    +0.000 A 
ATOM     10  C   UNL     1       1.526   6.331  21.028  0.00  0.00    +0.000 A 
ATOM     11  N   UNL     1       2.304   5.706  20.148  0.00  0.00    +0.000 NA
ATOM     12  N   UNL     1       2.549   6.643  19.179  0.00  0.00    +0.000 N 
ATOM     13  C   UNL     1       0.447   8.710  21.194  0.00  0.00    +0.000 A 
ATOM     14  C   UNL     1      -0.234   8.612  22.528  0.00  0.00    +0.000 C 
ATOM     15  N   UNL     1       0.996  11.040  18.372  0.00  0.00    +0.000 N 
ATOM     16  H   UNL     1      -0.395  13.099  20.518  0.00  0.00    +0.000 HD
ATOM     17  H   UNL     1       1.569  10.999  17.542  0.00  0.00    +0.000 HD
ENDROOT
BRANCH   1  21
ATOM     18  C   UNL     1       3.448  15.389  18.183  0.00  0.00    +0.000 A 
ATOM     19  C   UNL     1       2.141  15.731  18.530  0.00  0.00    +0.000 A 
ATOM     20  C   UNL     1       1.180  14.739  18.730  0.00  0.00    +0.000 A 
ATOM     21  C   UNL     1       1.509  13.382  18.569  0.00  0.00    +0.000 A 
ATOM     22  C   UNL     1       2.819  13.049  18.208  0.00  0.00    +0.000 A 
ATOM     23  C   UNL     1       3.783  14.045  18.013  0.00  0.00    +0.000 A 
BRANCH  18  25
ATOM     24  C   UNL     1       5.126  16.781  19.095  0.00  0.00    +0.000 C 
ATOM     25  O   UNL     1       4.297  16.443  17.991  0.00  0.00    +0.000 OA
ENDBRANCH  18  25
ENDBRANCH   1  21
BRANCH  12  26
ATOM     26  C   UNL     1       3.468   6.344  18.126  0.00  0.00    +0.000 A 
ATOM     27  C   UNL     1       4.081   7.401  17.433  0.00  0.00    +0.000 A 
ATOM     28  C   UNL     1       4.950   7.146  16.370  0.00  0.00    +0.000 A 
ATOM     29  C   UNL     1       5.215   5.832  15.987  0.00  0.00    +0.000 A 
ATOM     30  C   UNL     1       4.619   4.777  16.671  0.00  0.00    +0.000 A 
ATOM     31  C   UNL     1       3.751   5.027  17.740  0.00  0.00    +0.000 A 
ENDBRANCH  12  26
TORSDOF 3
ENDMDL
MODEL 6
REMARK VINA RESULT:      -7.6      6.008      8.307
REMARK  Name = 
REMARK  5 active torsions:
REMARK  status: ('A' for Active; 'I' for Inactive)
REMARK    1  A    between atoms: C_1  and  O_2
REMARK    2  A    between atoms: O_2  and  C_3
REMARK    3  A    between atoms: C_6  and  C_7
REMARK    4  A    between atoms: N_18  and  C_19
REMARK    5  A    between atoms: C_25  and  C_26
REMARK                            x       y       z     vdW  Elec       q    Type
REMARK                         _______ _______ _______ _____ _____    ______ ____
ROOT
ATOM      1  C   UNL     1       3.757  15.433  17.609  0.00  0.00    +0.000 C 
ATOM      2  N   UNL     1       2.908  16.321  18.337  0.00  0.00    +0.000 N 
ATOM      3  C   UNL     1       1.607  16.059  18.652  0.00  0.00    +0.000 C 
ATOM      4  O   UNL     1       0.838  16.987  18.874  0.00  0.00    +0.000 OA
ATOM      5  C   UNL     1       1.224  14.636  18.786  0.00  0.00    +0.000 A 
ATOM      6  C   UNL     1       2.152  13.709  18.318  0.00  0.00    +0.000 A 
ATOM      7  N   UNL     1       2.008  12.377  18.442  0.00  0.00    +0.000 NA
ATOM      8  C   UNL     1       0.882  11.977  19.065  0.00  0.00    +0.000 A 
ATOM      9  C   UNL     1      -0.121  12.815  19.536  0.00  0.00    +0.000 A 
ATOM     10  C   UNL     1      -1.088  11.936  20.058  0.00  0.00    +0.000 A 
ATOM     11  N   UNL     1      -0.754  10.653  19.940  0.00  0.00    +0.000 NA
ATOM     12  N   UNL     1       0.494  10.673  19.375  0.00  0.00    +0.000 N 
ATOM     13  C   UNL     1       0.033  14.213  19.418  0.00  0.00    +0.000 A 
ATOM     14  C   UNL     1      -0.987  15.180  19.946  0.00  0.00    +0.000 C 
ATOM     15  N   UNL     1       3.290  14.087  17.665  0.00  0.00    +0.000 N 
ATOM     16  H   UNL     1       3.125  17.307  18.283  0.00  0.00    +0.000 HD
ATOM     17  H   UNL     1       3.925  13.336  17.439  0.00  0.00    +0.000 HD
ENDROOT
BRANCH   1  21
ATOM     18  C   UNL     1       7.836  15.662  19.046  0.00  0.00    +0.000 A 
ATOM     19  C   UNL     1       7.433  14.594  18.245  0.00  0.00    +0.000 A 
ATOM     20  C   UNL     1       6.120  14.517  17.778  0.00  0.00    +0.000 A 
ATOM     21  C   UNL     1       5.179  15.503  18.120  0.00  0.00    +0.000 A 
ATOM     22  C   UNL     1       5.590  16.564  18.936  0.00  0.00    +0.000 A 
ATOM     23  C   UNL     1       6.909  16.643  19.399  0.00  0.00    +0.000 A 
BRANCH  18  25
ATOM     24  C   UNL     1       9.879  14.473  19.075  0.00  0.00    +0.000 C 
ATOM     25  O   UNL     1       9.138  15.623  19.462  0.00  0.00    +0.000 OA
ENDBRANCH  18  25
ENDBRANCH   1  21
BRANCH  12  26
ATOM     26  C   UNL     1       1.216   9.449  19.220  0.00  0.00    +0.000 A 
ATOM     27  C   UNL     1       1.750   9.125  17.962  0.00  0.00    +0.000 A 
ATOM     28  C   UNL     1       2.423   7.917  17.764  0.00  0.00    +0.000 A 
ATOM     29  C   UNL     1       2.570   7.020  18.820  0.00  0.00    +0.000 A 
ATOM     30  C   UNL     1       2.051   7.334  20.073  0.00  0.00    +0.000 A 
ATOM     31  C   UNL     1       1.380   8.545  20.279  0.00  0.00    +0.000 A 
ENDBRANCH  12  26
TORSDOF 3
ENDMDL
MODEL 7
REMARK VINA RESULT:      -7.5      6.352      8.500
REMARK  Name = 
REMARK  5 active torsions:
REMARK  status: ('A' for Active; 'I' for Inactive)
REMARK    1  A    between atoms: C_1  and  O_2
REMARK    2  A    between atoms: O_2  and  C_3
REMARK    3  A    between atoms: C_6  and  C_7
REMARK    4  A    between atoms: N_18  and  C_19
REMARK    5  A    between atoms: C_25  and  C_26
REMARK                            x       y       z     vdW  Elec       q    Type
REMARK                         _______ _______ _______ _____ _____    ______ ____
ROOT
ATOM      1  C   UNL     1       4.956  15.398  17.778  0.00  0.00    +0.000 C 
ATOM      2  N   UNL     1       4.139  16.457  18.278  0.00  0.00    +0.000 N 
ATOM      3  C   UNL     1       2.776  16.420  18.333  0.00  0.00    +0.000 C 
ATOM      4  O   UNL     1       2.142  17.467  18.354  0.00  0.00    +0.000 OA
ATOM      5  C   UNL     1       2.147  15.085  18.448  0.00  0.00    +0.000 A 
ATOM      6  C   UNL     1       2.984  13.995  18.220  0.00  0.00    +0.000 A 
ATOM      7  N   UNL     1       2.603  12.714  18.370  0.00  0.00    +0.000 NA
ATOM      8  C   UNL     1       1.327  12.537  18.768  0.00  0.00    +0.000 A 
ATOM      9  C   UNL     1       0.403  13.551  18.989  0.00  0.00    +0.000 A 
ATOM     10  C   UNL     1      -0.777  12.871  19.340  0.00  0.00    +0.000 A 
ATOM     11  N   UNL     1      -0.641  11.547  19.350  0.00  0.00    +0.000 NA
ATOM     12  N   UNL     1       0.678  11.334  19.049  0.00  0.00    +0.000 N 
ATOM     13  C   UNL     1       0.803  14.897  18.843  0.00  0.00    +0.000 A 
ATOM     14  C   UNL     1      -0.127  16.045  19.110  0.00  0.00    +0.000 C 
ATOM     15  N   UNL     1       4.273  14.146  17.796  0.00  0.00    +0.000 N 
ATOM     16  H   UNL     1       4.521  17.392  18.227  0.00  0.00    +0.000 HD
ATOM     17  H   UNL     1       4.808  13.293  17.736  0.00  0.00    +0.000 HD
ENDROOT
BRANCH   1  21
ATOM     18  C   UNL     1       8.647  15.050  20.016  0.00  0.00    +0.000 A 
ATOM     19  C   UNL     1       7.422  15.085  20.683  0.00  0.00    +0.000 A 
ATOM     20  C   UNL     1       6.230  15.195  19.966  0.00  0.00    +0.000 A 
ATOM     21  C   UNL     1       6.244  15.290  18.564  0.00  0.00    +0.000 A 
ATOM     22  C   UNL     1       7.479  15.267  17.904  0.00  0.00    +0.000 A 
ATOM     23  C   UNL     1       8.673  15.150  18.624  0.00  0.00    +0.000 A 
BRANCH  18  25
ATOM     24  C   UNL     1       9.510  14.544  22.158  0.00  0.00    +0.000 C 
ATOM     25  O   UNL     1       9.749  14.961  20.820  0.00  0.00    +0.000 OA
ENDBRANCH  18  25
ENDBRANCH   1  21
BRANCH  12  26
ATOM     26  C   UNL     1       1.207  10.007  19.098  0.00  0.00    +0.000 A 
ATOM     27  C   UNL     1       1.729   9.436  17.926  0.00  0.00    +0.000 A 
ATOM     28  C   UNL     1       2.213   8.126  17.927  0.00  0.00    +0.000 A 
ATOM     29  C   UNL     1       2.180   7.372  19.099  0.00  0.00    +0.000 A 
ATOM     30  C   UNL     1       1.671   7.930  20.268  0.00  0.00    +0.000 A 
ATOM     31  C   UNL     1       1.189   9.244  20.274  0.00  0.00    +0.000 A 
ENDBRANCH  12  26
TORSDOF 3
ENDMDL
MODEL 8
REMARK VINA RESULT:      -7.4      3.851      6.399
REMARK  Name = 
REMARK  5 active torsions:
REMARK  status: ('A' for Active; 'I' for Inactive)
REMARK    1  A    between atoms: C_1  and  O_2
REMARK    2  A    between atoms: O_2  and  C_3
REMARK    3  A    between atoms: C_6  and  C_7
REMARK    4  A    between atoms: N_18  and  C_19
REMARK    5  A    between atoms: C_25  and  C_26
REMARK                            x       y       z     vdW  Elec       q    Type
REMARK                         _______ _______ _______ _____ _____    ______ ____
ROOT
ATOM      1  C   UNL     1       5.847   4.466  18.300  0.00  0.00    +0.000 C 
ATOM      2  N   UNL     1       5.097   3.321  18.708  0.00  0.00    +0.000 N 
ATOM      3  C   UNL     1       4.139   3.332  19.679  0.00  0.00    +0.000 C 
ATOM      4  O   UNL     1       3.859   2.294  20.266  0.00  0.00    +0.000 OA
ATOM      5  C   UNL     1       3.430   4.611  19.905  0.00  0.00    +0.000 A 
ATOM      6  C   UNL     1       3.990   5.734  19.299  0.00  0.00    +0.000 A 
ATOM      7  N   UNL     1       3.429   6.957  19.324  0.00  0.00    +0.000 NA
ATOM      8  C   UNL     1       2.259   7.038  19.988  0.00  0.00    +0.000 A 
ATOM      9  C   UNL     1       1.634   5.991  20.654  0.00  0.00    +0.000 A 
ATOM     10  C   UNL     1       0.484   6.576  21.214  0.00  0.00    +0.000 A 
ATOM     11  N   UNL     1       0.366   7.874  20.943  0.00  0.00    +0.000 NA
ATOM     12  N   UNL     1       1.436   8.155  20.135  0.00  0.00    +0.000 N 
ATOM     13  C   UNL     1       2.214   4.704  20.620  0.00  0.00    +0.000 A 
ATOM     14  C   UNL     1       1.572   3.516  21.276  0.00  0.00    +0.000 C 
ATOM     15  N   UNL     1       5.184   5.683  18.640  0.00  0.00    +0.000 N 
ATOM     16  H   UNL     1       5.534   2.419  18.574  0.00  0.00    +0.000 HD
ATOM     17  H   UNL     1       5.456   6.537  18.176  0.00  0.00    +0.000 HD
ENDROOT
BRANCH   1  21
ATOM     18  C   UNL     1       6.622   4.405  14.040  0.00  0.00    +0.000 A 
ATOM     19  C   UNL     1       5.529   3.715  14.565  0.00  0.00    +0.000 A 
ATOM     20  C   UNL     1       5.274   3.734  15.936  0.00  0.00    +0.000 A 
ATOM     21  C   UNL     1       6.122   4.432  16.813  0.00  0.00    +0.000 A 
ATOM     22  C   UNL     1       7.224   5.110  16.278  0.00  0.00    +0.000 A 
ATOM     23  C   UNL     1       7.475   5.096  14.902  0.00  0.00    +0.000 A 
BRANCH  18  25
ATOM     24  C   UNL     1       6.061   3.255  12.052  0.00  0.00    +0.000 C 
ATOM     25  O   UNL     1       6.786   4.300  12.687  0.00  0.00    +0.000 OA
ENDBRANCH  18  25
ENDBRANCH   1  21
BRANCH  12  26
ATOM     26  C   UNL     1       1.551   9.452  19.546  0.00  0.00    +0.000 A 
ATOM     27  C   UNL     1       1.101  10.572  20.265  0.00  0.00    +0.000 A 
ATOM     28  C   UNL     1       1.158  11.849  19.703  0.00  0.00    +0.000 A 
ATOM     29  C   UNL     1       1.664  12.022  18.415  0.00  0.00    +0.000 A 
ATOM     30  C   UNL     1       2.119  10.920  17.697  0.00  0.00    +0.000 A 
ATOM     31  C   UNL     1       2.069   9.639  18.257  0.00  0.00    +0.000 A 
ENDBRANCH  12  26
TORSDOF 3
ENDMDL
MODEL 9
REMARK VINA RESULT:      -7.4      7.078      8.137
REMARK  Name = 
REMARK  5 active torsions:
REMARK  status: ('A' for Active; 'I' for Inactive)
REMARK    1  A    between atoms: C_1  and  O_2
REMARK    2  A    between atoms: O_2  and  C_3
REMARK    3  A    between atoms: C_6  and  C_7
REMARK    4  A    between atoms: N_18  and  C_19
REMARK    5  A    between atoms: C_25  and  C_26
REMARK                            x       y       z     vdW  Elec       q    Type
REMARK                         _______ _______ _______ _____ _____    ______ ____
ROOT
ATOM      1  C   UNL     1       6.662  15.071  17.810  0.00  0.00    +0.000 C 
ATOM      2  N   UNL     1       6.647  16.184  18.705  0.00  0.00    +0.000 N 
ATOM      3  C   UNL     1       5.523  16.868  19.066  0.00  0.00    +0.000 C 
ATOM      4  O   UNL     1       5.617  18.023  19.461  0.00  0.00    +0.000 OA
ATOM      5  C   UNL     1       4.246  16.122  19.032  0.00  0.00    +0.000 A 
ATOM      6  C   UNL     1       4.277  14.889  18.384  0.00  0.00    +0.000 A 
ATOM      7  N   UNL     1       3.234  14.040  18.337  0.00  0.00    +0.000 NA
ATOM      8  C   UNL     1       2.122  14.462  18.973  0.00  0.00    +0.000 A 
ATOM      9  C   UNL     1       1.975  15.683  19.618  0.00  0.00    +0.000 A 
ATOM     10  C   UNL     1       0.646  15.673  20.078  0.00  0.00    +0.000 A 
ATOM     11  N   UNL     1      -0.011  14.558  19.768  0.00  0.00    +0.000 NA
ATOM     12  N   UNL     1       0.916  13.778  19.130  0.00  0.00    +0.000 N 
ATOM     13  C   UNL     1       3.072  16.571  19.678  0.00  0.00    +0.000 A 
ATOM     14  C   UNL     1       3.001  17.887  20.398  0.00  0.00    +0.000 C 
ATOM     15  N   UNL     1       5.383  14.449  17.715  0.00  0.00    +0.000 N 
ATOM     16  H   UNL     1       7.496  16.729  18.770  0.00  0.00    +0.000 HD
ATOM     17  H   UNL     1       5.318  13.511  17.349  0.00  0.00    +0.000 HD
ENDROOT
BRANCH   1  21
ATOM     18  C   UNL     1       9.654  12.177  19.008  0.00  0.00    +0.000 A 
ATOM     19  C   UNL     1       8.963  12.017  17.807  0.00  0.00    +0.000 A 
ATOM     20  C   UNL     1       8.000  12.948  17.415  0.00  0.00    +0.000 A 
ATOM     21  C   UNL     1       7.697  14.051  18.232  0.00  0.00    +0.000 A 
ATOM     22  C   UNL     1       8.386  14.196  19.442  0.00  0.00    +0.000 A 
ATOM     23  C   UNL     1       9.356  13.265  19.830  0.00  0.00    +0.000 A 
BRANCH  18  25
ATOM     24  C   UNL     1      11.927  11.546  19.148  0.00  0.00    +0.000 C 
ATOM     25  O   UNL     1      10.558  11.195  19.298  0.00  0.00    +0.000 OA
ENDBRANCH  18  25
ENDBRANCH   1  21
BRANCH  12  26
ATOM     26  C   UNL     1       0.578  12.437  18.765  0.00  0.00    +0.000 A 
ATOM     27  C   UNL     1      -0.760  12.125  18.474  0.00  0.00    +0.000 A 
ATOM     28  C   UNL     1      -1.133  10.817  18.157  0.00  0.00    +0.000 A 
ATOM     29  C   UNL     1      -0.174   9.806  18.129  0.00  0.00    +0.000 A 
ATOM     30  C   UNL     1       1.157  10.106  18.409  0.00  0.00    +0.000 A 
ATOM     31  C   UNL     1       1.537  11.416  18.722  0.00  0.00    +0.000 A 
ENDBRANCH  12  26
TORSDOF 3
ENDMDL
