MODEL 1
REMARK VINA RESULT:      -7.5      0.000      0.000
REMARK  Name = 
REMARK  11 active torsions:
REMARK  status: ('A' for Active; 'I' for Inactive)
REMARK    1  A    between atoms: C_1  and  C_2
REMARK    2  A    between atoms: C_2  and  S_3
REMARK    3  A    between atoms: S_3  and  N_6
REMARK    4  A    between atoms: C_10  and  C_11
REMARK    5  A    between atoms: N_13  and  C_14
REMARK    6  A    between atoms: C_14  and  C_15
REMARK    7  A    between atoms: C_15  and  C_16
REMARK    8  A    between atoms: C_19  and  O_20
REMARK    9  A    between atoms: O_20  and  C_21
REMARK   10  A    between atoms: C_22  and  O_23
REMARK   11  A    between atoms: O_23  and  C_24
REMARK                            x       y       z     vdW  Elec       q    Type
REMARK                         _______ _______ _______ _____ _____    ______ ____
ROOT
ATOM      1  C   UNL     1       7.636   5.803  18.667  0.00  0.00    +0.000 C 
ATOM      2  O   UNL     1       8.365   5.615  19.630  0.00  0.00    +0.000 OA
ATOM      3  N   UNL     1       7.585   7.022  18.022  0.00  0.00    +0.000 N 
ATOM      4  H   UNL     1       7.189   7.080  17.092  0.00  0.00    +0.000 HD
ENDROOT
BRANCH   1   9
ATOM      5  N   UNL     1       4.293   4.087  17.952  0.00  0.00    +0.000 NA
ATOM      6  C   UNL     1       4.338   4.159  16.464  0.00  0.00    +0.000 C 
ATOM      7  C   UNL     1       5.736   3.781  15.981  0.00  0.00    +0.000 C 
ATOM      8  C   UNL     1       6.797   4.702  16.570  0.00  0.00    +0.000 C 
ATOM      9  C   UNL     1       6.729   4.712  18.100  0.00  0.00    +0.000 C 
ATOM     10  C   UNL     1       5.298   4.992  18.595  0.00  0.00    +0.000 C 
BRANCH   5  11
ATOM     11  S   UNL     1       2.704   4.198  18.615  0.00  0.00    +0.000 S 
ATOM     12  O   UNL     1       2.041   5.320  17.982  0.00  0.00    +0.000 OA
ATOM     13  O   UNL     1       2.800   4.096  20.057  0.00  0.00    +0.000 OA
BRANCH  11  15
ATOM     14  C   UNL     1       0.778   2.258  18.845  0.00  0.00    +0.000 C 
ATOM     15  C   UNL     1       1.943   2.705  17.977  0.00  0.00    +0.000 C 
ENDBRANCH  11  15
ENDBRANCH   5  11
ENDBRANCH   1   9
BRANCH   3  16
ATOM     16  C   UNL     1       8.445   8.086  18.517  0.00  0.00    +0.000 C 
BRANCH  16  17
ATOM     17  C   UNL     1       8.282   9.414  17.784  0.00  0.00    +0.000 C 
BRANCH  17  18
ATOM     18  C   UNL     1       8.974  10.541  18.513  0.00  0.00    +0.000 A 
ATOM     19  C   UNL     1       9.412  10.403  19.831  0.00  0.00    +0.000 A 
ATOM     20  C   UNL     1      10.066  11.466  20.463  0.00  0.00    +0.000 A 
ATOM     21  C   UNL     1      10.303  12.680  19.797  0.00  0.00    +0.000 A 
ATOM     22  C   UNL     1       9.833  12.840  18.482  0.00  0.00    +0.000 A 
ATOM     23  C   UNL     1       9.162  11.772  17.868  0.00  0.00    +0.000 A 
BRANCH  21  24
ATOM     24  O   UNL     1      10.996  13.581  20.568  0.00  0.00    +0.000 OA
ATOM     25  C   UNL     1      10.255  14.501  21.358  0.00  0.00    +0.000 C 
ENDBRANCH  21  24
BRANCH  22  26
ATOM     26  O   UNL     1      10.044  14.034  17.844  0.00  0.00    +0.000 OA
ATOM     27  C   UNL     1      11.244  14.197  17.101  0.00  0.00    +0.000 C 
ENDBRANCH  22  26
ENDBRANCH  17  18
ENDBRANCH  16  17
ENDBRANCH   3  16
TORSDOF 8
ENDMDL
MODEL 2
REMARK VINA RESULT:      -7.5      1.228      1.959
REMARK  Name = 
REMARK  11 active torsions:
REMARK  status: ('A' for Active; 'I' for Inactive)
REMARK    1  A    between atoms: C_1  and  C_2
REMARK    2  A    between atoms: C_2  and  S_3
REMARK    3  A    between atoms: S_3  and  N_6
REMARK    4  A    between atoms: C_10  and  C_11
REMARK    5  A    between atoms: N_13  and  C_14
REMARK    6  A    between atoms: C_14  and  C_15
REMARK    7  A    between atoms: C_15  and  C_16
REMARK    8  A    between atoms: C_19  and  O_20
REMARK    9  A    between atoms: O_20  and  C_21
REMARK   10  A    between atoms: C_22  and  O_23
REMARK   11  A    between atoms: O_23  and  C_24
REMARK                            x       y       z     vdW  Elec       q    Type
REMARK                         _______ _______ _______ _____ _____    ______ ____
ROOT
ATOM      1  C   UNL     1       7.567   5.855  18.637  0.00  0.00    +0.000 C 
ATOM      2  O   UNL     1       8.224   5.634  19.644  0.00  0.00    +0.000 OA
ATOM      3  N   UNL     1       7.632   7.068  17.981  0.00  0.00    +0.000 N 
ATOM      4  H   UNL     1       7.297   7.140  17.028  0.00  0.00    +0.000 HD
ENDROOT
BRANCH   1   9
ATOM      5  N   UNL     1       4.431   3.672  18.475  0.00  0.00    +0.000 NA
ATOM      6  C   UNL     1       3.851   4.235  17.222  0.00  0.00    +0.000 C 
ATOM      7  C   UNL     1       4.958   4.407  16.185  0.00  0.00    +0.000 C 
ATOM      8  C   UNL     1       6.062   5.324  16.695  0.00  0.00    +0.000 C 
ATOM      9  C   UNL     1       6.630   4.816  18.024  0.00  0.00    +0.000 C 
ATOM     10  C   UNL     1       5.508   4.542  19.043  0.00  0.00    +0.000 C 
BRANCH   5  11
ATOM     11  S   UNL     1       3.254   3.148  19.623  0.00  0.00    +0.000 S 
ATOM     12  O   UNL     1       2.456   4.301  19.990  0.00  0.00    +0.000 OA
ATOM     13  O   UNL     1       3.918   2.342  20.626  0.00  0.00    +0.000 OA
BRANCH  11  15
ATOM     14  C   UNL     1       0.744   2.425  18.783  0.00  0.00    +0.000 C 
ATOM     15  C   UNL     1       2.217   2.087  18.616  0.00  0.00    +0.000 C 
ENDBRANCH  11  15
ENDBRANCH   5  11
ENDBRANCH   1   9
BRANCH   3  16
ATOM     16  C   UNL     1       8.525   8.082  18.518  0.00  0.00    +0.000 C 
BRANCH  16  17
ATOM     17  C   UNL     1       8.238   9.495  18.021  0.00  0.00    +0.000 C 
BRANCH  17  18
ATOM     18  C   UNL     1       9.250  10.486  18.545  0.00  0.00    +0.000 A 
ATOM     19  C   UNL     1      10.259  11.005  17.732  0.00  0.00    +0.000 A 
ATOM     20  C   UNL     1      11.164  11.937  18.252  0.00  0.00    +0.000 A 
ATOM     21  C   UNL     1      11.079  12.374  19.584  0.00  0.00    +0.000 A 
ATOM     22  C   UNL     1      10.089  11.830  20.420  0.00  0.00    +0.000 A 
ATOM     23  C   UNL     1       9.200  10.883  19.889  0.00  0.00    +0.000 A 
BRANCH  21  24
ATOM     24  O   UNL     1      12.026  13.321  19.892  0.00  0.00    +0.000 OA
ATOM     25  C   UNL     1      11.673  14.692  19.767  0.00  0.00    +0.000 C 
ENDBRANCH  21  24
BRANCH  22  26
ATOM     26  O   UNL     1      10.025  12.241  21.725  0.00  0.00    +0.000 OA
ATOM     27  C   UNL     1       8.747  12.514  22.282  0.00  0.00    +0.000 C 
ENDBRANCH  22  26
ENDBRANCH  17  18
ENDBRANCH  16  17
ENDBRANCH   3  16
TORSDOF 8
ENDMDL
MODEL 3
REMARK VINA RESULT:      -7.4      1.788      2.160
REMARK  Name = 
REMARK  11 active torsions:
REMARK  status: ('A' for Active; 'I' for Inactive)
REMARK    1  A    between atoms: C_1  and  C_2
REMARK    2  A    between atoms: C_2  and  S_3
REMARK    3  A    between atoms: S_3  and  N_6
REMARK    4  A    between atoms: C_10  and  C_11
REMARK    5  A    between atoms: N_13  and  C_14
REMARK    6  A    between atoms: C_14  and  C_15
REMARK    7  A    between atoms: C_15  and  C_16
REMARK    8  A    between atoms: C_19  and  O_20
REMARK    9  A    between atoms: O_20  and  C_21
REMARK   10  A    between atoms: C_22  and  O_23
REMARK   11  A    between atoms: O_23  and  C_24
REMARK                            x       y       z     vdW  Elec       q    Type
REMARK                         _______ _______ _______ _____ _____    ______ ____
ROOT
ATOM      1  C   UNL     1       6.549   6.628  17.114  0.00  0.00    +0.000 C 
ATOM      2  O   UNL     1       7.508   5.979  16.724  0.00  0.00    +0.000 OA
ATOM      3  N   UNL     1       6.680   7.938  17.530  0.00  0.00    +0.000 N 
ATOM      4  H   UNL     1       5.859   8.527  17.594  0.00  0.00    +0.000 HD
ENDROOT
BRANCH   1   9
ATOM      5  N   UNL     1       3.768   4.373  18.459  0.00  0.00    +0.000 NA
ATOM      6  C   UNL     1       2.834   5.444  18.913  0.00  0.00    +0.000 C 
ATOM      7  C   UNL     1       2.758   6.534  17.847  0.00  0.00    +0.000 C 
ATOM      8  C   UNL     1       4.129   7.135  17.566  0.00  0.00    +0.000 C 
ATOM      9  C   UNL     1       5.136   6.051  17.170  0.00  0.00    +0.000 C 
ATOM     10  C   UNL     1       5.144   4.897  18.189  0.00  0.00    +0.000 C 
BRANCH   5  11
ATOM     11  S   UNL     1       3.722   2.943  19.424  0.00  0.00    +0.000 S 
ATOM     12  O   UNL     1       5.054   2.728  19.952  0.00  0.00    +0.000 OA
ATOM     13  O   UNL     1       3.031   1.909  18.679  0.00  0.00    +0.000 OA
BRANCH  11  15
ATOM     14  C   UNL     1       1.412   2.642  20.871  0.00  0.00    +0.000 C 
ATOM     15  C   UNL     1       2.687   3.465  20.792  0.00  0.00    +0.000 C 
ENDBRANCH  11  15
ENDBRANCH   5  11
ENDBRANCH   1   9
BRANCH   3  16
ATOM     16  C   UNL     1       8.005   8.536  17.478  0.00  0.00    +0.000 C 
BRANCH  16  17
ATOM     17  C   UNL     1       8.685   8.669  18.836  0.00  0.00    +0.000 C 
BRANCH  17  18
ATOM     18  C   UNL     1       9.154  10.083  19.088  0.00  0.00    +0.000 A 
ATOM     19  C   UNL     1       9.327  10.580  20.380  0.00  0.00    +0.000 A 
ATOM     20  C   UNL     1       9.783  11.889  20.569  0.00  0.00    +0.000 A 
ATOM     21  C   UNL     1      10.081  12.724  19.480  0.00  0.00    +0.000 A 
ATOM     22  C   UNL     1       9.876  12.244  18.175  0.00  0.00    +0.000 A 
ATOM     23  C   UNL     1       9.401  10.935  18.002  0.00  0.00    +0.000 A 
BRANCH  21  24
ATOM     24  O   UNL     1      10.556  13.953  19.869  0.00  0.00    +0.000 OA
ATOM     25  C   UNL     1       9.700  15.079  19.736  0.00  0.00    +0.000 C 
ENDBRANCH  21  24
BRANCH  22  26
ATOM     26  O   UNL     1      10.145  13.069  17.115  0.00  0.00    +0.000 OA
ATOM     27  C   UNL     1      11.500  13.241  16.723  0.00  0.00    +0.000 C 
ENDBRANCH  22  26
ENDBRANCH  17  18
ENDBRANCH  16  17
ENDBRANCH   3  16
TORSDOF 8
ENDMDL
MODEL 4
REMARK VINA RESULT:      -7.3      1.280      1.479
REMARK  Name = 
REMARK  11 active torsions:
REMARK  status: ('A' for Active; 'I' for Inactive)
REMARK    1  A    between atoms: C_1  and  C_2
REMARK    2  A    between atoms: C_2  and  S_3
REMARK    3  A    between atoms: S_3  and  N_6
REMARK    4  A    between atoms: C_10  and  C_11
REMARK    5  A    between atoms: N_13  and  C_14
REMARK    6  A    between atoms: C_14  and  C_15
REMARK    7  A    between atoms: C_15  and  C_16
REMARK    8  A    between atoms: C_19  and  O_20
REMARK    9  A    between atoms: O_20  and  C_21
REMARK   10  A    between atoms: C_22  and  O_23
REMARK   11  A    between atoms: O_23  and  C_24
REMARK                            x       y       z     vdW  Elec       q    Type
REMARK                         _______ _______ _______ _____ _____    ______ ____
ROOT
ATOM      1  C   UNL     1       7.538   6.191  18.334  0.00  0.00    +0.000 C 
ATOM      2  O   UNL     1       8.085   5.974  19.406  0.00  0.00    +0.000 OA
ATOM      3  N   UNL     1       7.609   7.425  17.720  0.00  0.00    +0.000 N 
ATOM      4  H   UNL     1       7.384   7.509  16.737  0.00  0.00    +0.000 HD
ENDROOT
BRANCH   1   9
ATOM      5  N   UNL     1       4.830   3.518  17.947  0.00  0.00    +0.000 NA
ATOM      6  C   UNL     1       4.039   4.179  16.870  0.00  0.00    +0.000 C 
ATOM      7  C   UNL     1       4.989   4.746  15.818  0.00  0.00    +0.000 C 
ATOM      8  C   UNL     1       5.962   5.747  16.428  0.00  0.00    +0.000 C 
ATOM      9  C   UNL     1       6.740   5.122  17.590  0.00  0.00    +0.000 C 
ATOM     10  C   UNL     1       5.791   4.458  18.605  0.00  0.00    +0.000 C 
BRANCH   5  11
ATOM     11  S   UNL     1       3.884   2.579  19.042  0.00  0.00    +0.000 S 
ATOM     12  O   UNL     1       4.601   2.514  20.299  0.00  0.00    +0.000 OA
ATOM     13  O   UNL     1       3.450   1.376  18.359  0.00  0.00    +0.000 OA
BRANCH  11  15
ATOM     14  C   UNL     1       2.683   4.592  20.467  0.00  0.00    +0.000 C 
ATOM     15  C   UNL     1       2.465   3.646  19.297  0.00  0.00    +0.000 C 
ENDBRANCH  11  15
ENDBRANCH   5  11
ENDBRANCH   1   9
BRANCH   3  16
ATOM     16  C   UNL     1       8.374   8.469  18.384  0.00  0.00    +0.000 C 
BRANCH  16  17
ATOM     17  C   UNL     1       8.502   9.758  17.580  0.00  0.00    +0.000 C 
BRANCH  17  18
ATOM     18  C   UNL     1       9.125  10.865  18.397  0.00  0.00    +0.000 A 
ATOM     19  C   UNL     1       9.561  10.655  19.706  0.00  0.00    +0.000 A 
ATOM     20  C   UNL     1      10.152  11.703  20.421  0.00  0.00    +0.000 A 
ATOM     21  C   UNL     1      10.326  12.973  19.848  0.00  0.00    +0.000 A 
ATOM     22  C   UNL     1       9.857  13.204  18.544  0.00  0.00    +0.000 A 
ATOM     23  C   UNL     1       9.251  12.148  17.845  0.00  0.00    +0.000 A 
BRANCH  21  24
ATOM     24  O   UNL     1      10.963  13.851  20.691  0.00  0.00    +0.000 OA
ATOM     25  C   UNL     1      10.167  14.674  21.533  0.00  0.00    +0.000 C 
ENDBRANCH  21  24
BRANCH  22  26
ATOM     26  O   UNL     1      10.007  14.450  17.996  0.00  0.00    +0.000 OA
ATOM     27  C   UNL     1      11.114  14.680  17.137  0.00  0.00    +0.000 C 
ENDBRANCH  22  26
ENDBRANCH  17  18
ENDBRANCH  16  17
ENDBRANCH   3  16
TORSDOF 8
ENDMDL
MODEL 5
REMARK VINA RESULT:      -7.2      6.528      9.274
REMARK  Name = 
REMARK  11 active torsions:
REMARK  status: ('A' for Active; 'I' for Inactive)
REMARK    1  A    between atoms: C_1  and  C_2
REMARK    2  A    between atoms: C_2  and  S_3
REMARK    3  A    between atoms: S_3  and  N_6
REMARK    4  A    between atoms: C_10  and  C_11
REMARK    5  A    between atoms: N_13  and  C_14
REMARK    6  A    between atoms: C_14  and  C_15
REMARK    7  A    between atoms: C_15  and  C_16
REMARK    8  A    between atoms: C_19  and  O_20
REMARK    9  A    between atoms: O_20  and  C_21
REMARK   10  A    between atoms: C_22  and  O_23
REMARK   11  A    between atoms: O_23  and  C_24
REMARK                            x       y       z     vdW  Elec       q    Type
REMARK                         _______ _______ _______ _____ _____    ______ ____
ROOT
ATOM      1  C   UNL     1       2.035   7.489  19.893  0.00  0.00    +0.000 C 
ATOM      2  O   UNL     1       1.441   7.148  20.906  0.00  0.00    +0.000 OA
ATOM      3  N   UNL     1       1.712   8.649  19.219  0.00  0.00    +0.000 N 
ATOM      4  H   UNL     1       2.369   9.043  18.556  0.00  0.00    +0.000 HD
ENDROOT
BRANCH   1   9
ATOM      5  N   UNL     1       3.828   4.276  18.850  0.00  0.00    +0.000 NA
ATOM      6  C   UNL     1       3.887   4.538  17.383  0.00  0.00    +0.000 C 
ATOM      7  C   UNL     1       4.296   5.989  17.144  0.00  0.00    +0.000 C 
ATOM      8  C   UNL     1       3.320   6.959  17.799  0.00  0.00    +0.000 C 
ATOM      9  C   UNL     1       3.177   6.669  19.297  0.00  0.00    +0.000 C 
ATOM     10  C   UNL     1       2.865   5.182  19.551  0.00  0.00    +0.000 C 
BRANCH   5  11
ATOM     11  S   UNL     1       3.671   2.608  19.261  0.00  0.00    +0.000 S 
ATOM     12  O   UNL     1       4.715   2.291  20.216  0.00  0.00    +0.000 OA
ATOM     13  O   UNL     1       3.512   1.846  18.039  0.00  0.00    +0.000 OA
BRANCH  11  15
ATOM     14  C   UNL     1       2.339   2.532  21.658  0.00  0.00    +0.000 C 
ATOM     15  C   UNL     1       2.117   2.603  20.156  0.00  0.00    +0.000 C 
ENDBRANCH  11  15
ENDBRANCH   5  11
ENDBRANCH   1   9
BRANCH   3  16
ATOM     16  C   UNL     1       0.642   9.472  19.760  0.00  0.00    +0.000 C 
BRANCH  16  17
ATOM     17  C   UNL     1       0.375  10.750  18.972  0.00  0.00    +0.000 C 
BRANCH  17  18
ATOM     18  C   UNL     1      -1.050  10.810  18.474  0.00  0.00    +0.000 A 
ATOM     19  C   UNL     1      -2.027  11.557  19.132  0.00  0.00    +0.000 A 
ATOM     20  C   UNL     1      -3.331  11.602  18.625  0.00  0.00    +0.000 A 
ATOM     21  C   UNL     1      -3.685  10.912  17.454  0.00  0.00    +0.000 A 
ATOM     22  C   UNL     1      -2.716  10.128  16.805  0.00  0.00    +0.000 A 
ATOM     23  C   UNL     1      -1.418  10.078  17.335  0.00  0.00    +0.000 A 
BRANCH  21  24
ATOM     24  O   UNL     1      -4.995  11.115  17.095  0.00  0.00    +0.000 OA
ATOM     25  C   UNL     1      -5.603  12.352  17.442  0.00  0.00    +0.000 C 
ENDBRANCH  21  24
BRANCH  22  26
ATOM     26  O   UNL     1      -3.070   9.437  15.677  0.00  0.00    +0.000 OA
ATOM     27  C   UNL     1      -3.121  10.141  14.443  0.00  0.00    +0.000 C 
ENDBRANCH  22  26
ENDBRANCH  17  18
ENDBRANCH  16  17
ENDBRANCH   3  16
TORSDOF 8
ENDMDL
MODEL 6
REMARK VINA RESULT:      -7.2      1.109      1.318
REMARK  Name = 
REMARK  11 active torsions:
REMARK  status: ('A' for Active; 'I' for Inactive)
REMARK    1  A    between atoms: C_1  and  C_2
REMARK    2  A    between atoms: C_2  and  S_3
REMARK    3  A    between atoms: S_3  and  N_6
REMARK    4  A    between atoms: C_10  and  C_11
REMARK    5  A    between atoms: N_13  and  C_14
REMARK    6  A    between atoms: C_14  and  C_15
REMARK    7  A    between atoms: C_15  and  C_16
REMARK    8  A    between atoms: C_19  and  O_20
REMARK    9  A    between atoms: O_20  and  C_21
REMARK   10  A    between atoms: C_22  and  O_23
REMARK   11  A    between atoms: O_23  and  C_24
REMARK                            x       y       z     vdW  Elec       q    Type
REMARK                         _______ _______ _______ _____ _____    ______ ____
ROOT
ATOM      1  C   UNL     1       7.774   6.028  18.599  0.00  0.00    +0.000 C 
ATOM      2  O   UNL     1       8.135   5.960  19.765  0.00  0.00    +0.000 OA
ATOM      3  N   UNL     1       7.889   7.196  17.871  0.00  0.00    +0.000 N 
ATOM      4  H   UNL     1       7.836   7.163  16.861  0.00  0.00    +0.000 HD
ENDROOT
BRANCH   1   9
ATOM      5  N   UNL     1       5.060   3.471  17.749  0.00  0.00    +0.000 NA
ATOM      6  C   UNL     1       4.852   3.856  16.324  0.00  0.00    +0.000 C 
ATOM      7  C   UNL     1       6.207   4.079  15.657  0.00  0.00    +0.000 C 
ATOM      8  C   UNL     1       7.007   5.162  16.368  0.00  0.00    +0.000 C 
ATOM      9  C   UNL     1       7.175   4.836  17.855  0.00  0.00    +0.000 C 
ATOM     10  C   UNL     1       5.821   4.510  18.513  0.00  0.00    +0.000 C 
BRANCH   5  11
ATOM     11  S   UNL     1       3.637   2.901  18.540  0.00  0.00    +0.000 S 
ATOM     12  O   UNL     1       3.409   3.745  19.696  0.00  0.00    +0.000 OA
ATOM     13  O   UNL     1       3.727   1.460  18.666  0.00  0.00    +0.000 OA
BRANCH  11  15
ATOM     14  C   UNL     1       1.557   4.512  17.763  0.00  0.00    +0.000 C 
ATOM     15  C   UNL     1       2.370   3.301  17.335  0.00  0.00    +0.000 C 
ENDBRANCH  11  15
ENDBRANCH   5  11
ENDBRANCH   1   9
BRANCH   3  16
ATOM     16  C   UNL     1       8.470   8.353  18.533  0.00  0.00    +0.000 C 
BRANCH  16  17
ATOM     17  C   UNL     1       8.168   9.682  17.850  0.00  0.00    +0.000 C 
BRANCH  17  18
ATOM     18  C   UNL     1       8.953  10.816  18.466  0.00  0.00    +0.000 A 
ATOM     19  C   UNL     1       9.837  10.607  19.525  0.00  0.00    +0.000 A 
ATOM     20  C   UNL     1      10.561  11.682  20.052  0.00  0.00    +0.000 A 
ATOM     21  C   UNL     1      10.424  12.980  19.535  0.00  0.00    +0.000 A 
ATOM     22  C   UNL     1       9.510  13.207  18.492  0.00  0.00    +0.000 A 
ATOM     23  C   UNL     1       8.778  12.122  17.985  0.00  0.00    +0.000 A 
BRANCH  21  24
ATOM     24  O   UNL     1      11.249  13.887  20.155  0.00  0.00    +0.000 OA
ATOM     25  C   UNL     1      10.666  14.827  21.047  0.00  0.00    +0.000 C 
ENDBRANCH  21  24
BRANCH  22  26
ATOM     26  O   UNL     1       9.361  14.478  18.005  0.00  0.00    +0.000 OA
ATOM     27  C   UNL     1       8.044  14.983  17.832  0.00  0.00    +0.000 C 
ENDBRANCH  22  26
ENDBRANCH  17  18
ENDBRANCH  16  17
ENDBRANCH   3  16
TORSDOF 8
ENDMDL
MODEL 7
REMARK VINA RESULT:      -7.2      6.295      8.916
REMARK  Name = 
REMARK  11 active torsions:
REMARK  status: ('A' for Active; 'I' for Inactive)
REMARK    1  A    between atoms: C_1  and  C_2
REMARK    2  A    between atoms: C_2  and  S_3
REMARK    3  A    between atoms: S_3  and  N_6
REMARK    4  A    between atoms: C_10  and  C_11
REMARK    5  A    between atoms: N_13  and  C_14
REMARK    6  A    between atoms: C_14  and  C_15
REMARK    7  A    between atoms: C_15  and  C_16
REMARK    8  A    between atoms: C_19  and  O_20
REMARK    9  A    between atoms: O_20  and  C_21
REMARK   10  A    between atoms: C_22  and  O_23
REMARK   11  A    between atoms: O_23  and  C_24
REMARK                            x       y       z     vdW  Elec       q    Type
REMARK                         _______ _______ _______ _____ _____    ______ ____
ROOT
ATOM      1  C   UNL     1       3.045   7.566  18.045  0.00  0.00    +0.000 C 
ATOM      2  O   UNL     1       3.297   7.777  16.868  0.00  0.00    +0.000 OA
ATOM      3  N   UNL     1       2.085   8.291  18.723  0.00  0.00    +0.000 N 
ATOM      4  H   UNL     1       1.712   7.935  19.594  0.00  0.00    +0.000 HD
ENDROOT
BRANCH   1   9
ATOM      5  N   UNL     1       3.308   4.292  20.004  0.00  0.00    +0.000 NA
ATOM      6  C   UNL     1       4.282   3.596  19.115  0.00  0.00    +0.000 C 
ATOM      7  C   UNL     1       5.388   4.570  18.716  0.00  0.00    +0.000 C 
ATOM      8  C   UNL     1       4.824   5.792  18.001  0.00  0.00    +0.000 C 
ATOM      9  C   UNL     1       3.761   6.489  18.857  0.00  0.00    +0.000 C 
ATOM     10  C   UNL     1       2.696   5.491  19.348  0.00  0.00    +0.000 C 
BRANCH   5  11
ATOM     11  S   UNL     1       2.175   3.238  20.768  0.00  0.00    +0.000 S 
ATOM     12  O   UNL     1       0.917   3.949  20.875  0.00  0.00    +0.000 OA
ATOM     13  O   UNL     1       2.808   2.648  21.930  0.00  0.00    +0.000 OA
BRANCH  11  15
ATOM     14  C   UNL     1       0.780   2.278  18.610  0.00  0.00    +0.000 C 
ATOM     15  C   UNL     1       1.961   1.971  19.517  0.00  0.00    +0.000 C 
ENDBRANCH  11  15
ENDBRANCH   5  11
ENDBRANCH   1   9
BRANCH   3  16
ATOM     16  C   UNL     1       1.364   9.316  17.985  0.00  0.00    +0.000 C 
BRANCH  16  17
ATOM     17  C   UNL     1       0.770  10.415  18.859  0.00  0.00    +0.000 C 
BRANCH  17  18
ATOM     18  C   UNL     1      -0.680  10.673  18.522  0.00  0.00    +0.000 A 
ATOM     19  C   UNL     1      -1.467  11.540  19.281  0.00  0.00    +0.000 A 
ATOM     20  C   UNL     1      -2.800  11.767  18.923  0.00  0.00    +0.000 A 
ATOM     21  C   UNL     1      -3.373  11.142  17.802  0.00  0.00    +0.000 A 
ATOM     22  C   UNL     1      -2.598  10.240  17.053  0.00  0.00    +0.000 A 
ATOM     23  C   UNL     1      -1.268  10.009  17.436  0.00  0.00    +0.000 A 
BRANCH  21  24
ATOM     24  O   UNL     1      -4.675  11.525  17.590  0.00  0.00    +0.000 OA
ATOM     25  C   UNL     1      -5.350  12.219  18.630  0.00  0.00    +0.000 C 
ENDBRANCH  21  24
BRANCH  22  26
ATOM     26  O   UNL     1      -3.167   9.614  15.976  0.00  0.00    +0.000 OA
ATOM     27  C   UNL     1      -3.031  10.218  14.697  0.00  0.00    +0.000 C 
ENDBRANCH  22  26
ENDBRANCH  17  18
ENDBRANCH  16  17
ENDBRANCH   3  16
TORSDOF 8
ENDMDL
MODEL 8
REMARK VINA RESULT:      -7.2      6.494      8.278
REMARK  Name = 
REMARK  11 active torsions:
REMARK  status: ('A' for Active; 'I' for Inactive)
REMARK    1  A    between atoms: C_1  and  C_2
REMARK    2  A    between atoms: C_2  and  S_3
REMARK    3  A    between atoms: S_3  and  N_6
REMARK    4  A    between atoms: C_10  and  C_11
REMARK    5  A    between atoms: N_13  and  C_14
REMARK    6  A    between atoms: C_14  and  C_15
REMARK    7  A    between atoms: C_15  and  C_16
REMARK    8  A    between atoms: C_19  and  O_20
REMARK    9  A    between atoms: O_20  and  C_21
REMARK   10  A    between atoms: C_22  and  O_23
REMARK   11  A    between atoms: O_23  and  C_24
REMARK                            x       y       z     vdW  Elec       q    Type
REMARK                         _______ _______ _______ _____ _____    ______ ____
ROOT
ATOM      1  C   UNL     1       2.629   7.288  18.265  0.00  0.00    +0.000 C 
ATOM      2  O   UNL     1       2.651   8.284  17.556  0.00  0.00    +0.000 OA
ATOM      3  N   UNL     1       2.048   7.302  19.517  0.00  0.00    +0.000 N 
ATOM      4  H   UNL     1       1.808   6.427  19.967  0.00  0.00    +0.000 HD
ENDROOT
BRANCH   1   9
ATOM      5  N   UNL     1       5.473   4.843  17.515  0.00  0.00    +0.000 NA
ATOM      6  C   UNL     1       5.128   3.807  18.531  0.00  0.00    +0.000 C 
ATOM      7  C   UNL     1       3.622   3.564  18.516  0.00  0.00    +0.000 C 
ATOM      8  C   UNL     1       2.848   4.844  18.806  0.00  0.00    +0.000 C 
ATOM      9  C   UNL     1       3.234   5.956  17.826  0.00  0.00    +0.000 C 
ATOM     10  C   UNL     1       4.762   6.137  17.760  0.00  0.00    +0.000 C 
BRANCH   5  11
ATOM     11  S   UNL     1       7.164   5.001  17.215  0.00  0.00    +0.000 S 
ATOM     12  O   UNL     1       7.411   4.572  15.853  0.00  0.00    +0.000 OA
ATOM     13  O   UNL     1       7.884   4.418  18.329  0.00  0.00    +0.000 OA
BRANCH  11  15
ATOM     14  C   UNL     1       8.159   7.223  18.478  0.00  0.00    +0.000 C 
ATOM     15  C   UNL     1       7.372   6.781  17.255  0.00  0.00    +0.000 C 
ENDBRANCH  11  15
ENDBRANCH   5  11
ENDBRANCH   1   9
BRANCH   3  16
ATOM     16  C   UNL     1       1.444   8.544  19.970  0.00  0.00    +0.000 C 
BRANCH  16  17
ATOM     17  C   UNL     1       1.287   8.649  21.484  0.00  0.00    +0.000 C 
BRANCH  17  18
ATOM     18  C   UNL     1       0.407   9.813  21.874  0.00  0.00    +0.000 A 
ATOM     19  C   UNL     1      -0.531   9.711  22.902  0.00  0.00    +0.000 A 
ATOM     20  C   UNL     1      -1.312  10.820  23.245  0.00  0.00    +0.000 A 
ATOM     21  C   UNL     1      -1.172  12.049  22.579  0.00  0.00    +0.000 A 
ATOM     22  C   UNL     1      -0.255  12.150  21.519  0.00  0.00    +0.000 A 
ATOM     23  C   UNL     1       0.508  11.024  21.174  0.00  0.00    +0.000 A 
BRANCH  21  24
ATOM     24  O   UNL     1      -1.993  13.025  23.089  0.00  0.00    +0.000 OA
ATOM     25  C   UNL     1      -3.324  13.109  22.598  0.00  0.00    +0.000 C 
ENDBRANCH  21  24
BRANCH  22  26
ATOM     26  O   UNL     1      -0.138  13.342  20.855  0.00  0.00    +0.000 OA
ATOM     27  C   UNL     1      -0.765  13.471  19.587  0.00  0.00    +0.000 C 
ENDBRANCH  22  26
ENDBRANCH  17  18
ENDBRANCH  16  17
ENDBRANCH   3  16
TORSDOF 8
ENDMDL
MODEL 9
REMARK VINA RESULT:      -7.1      6.614      8.455
REMARK  Name = 
REMARK  11 active torsions:
REMARK  status: ('A' for Active; 'I' for Inactive)
REMARK    1  A    between atoms: C_1  and  C_2
REMARK    2  A    between atoms: C_2  and  S_3
REMARK    3  A    between atoms: S_3  and  N_6
REMARK    4  A    between atoms: C_10  and  C_11
REMARK    5  A    between atoms: N_13  and  C_14
REMARK    6  A    between atoms: C_14  and  C_15
REMARK    7  A    between atoms: C_15  and  C_16
REMARK    8  A    between atoms: C_19  and  O_20
REMARK    9  A    between atoms: O_20  and  C_21
REMARK   10  A    between atoms: C_22  and  O_23
REMARK   11  A    between atoms: O_23  and  C_24
REMARK                            x       y       z     vdW  Elec       q    Type
REMARK                         _______ _______ _______ _____ _____    ______ ____
ROOT
ATOM      1  C   UNL     1       2.578   7.142  18.724  0.00  0.00    +0.000 C 
ATOM      2  O   UNL     1       2.409   7.998  17.868  0.00  0.00    +0.000 OA
ATOM      3  N   UNL     1       2.177   7.334  20.031  0.00  0.00    +0.000 N 
ATOM      4  H   UNL     1       2.084   6.536  20.648  0.00  0.00    +0.000 HD
ENDROOT
BRANCH   1   9
ATOM      5  N   UNL     1       5.355   4.845  17.444  0.00  0.00    +0.000 NA
ATOM      6  C   UNL     1       5.677   4.171  18.734  0.00  0.00    +0.000 C 
ATOM      7  C   UNL     1       4.381   3.805  19.452  0.00  0.00    +0.000 C 
ATOM      8  C   UNL     1       3.524   5.036  19.717  0.00  0.00    +0.000 C 
ATOM      9  C   UNL     1       3.236   5.798  18.420  0.00  0.00    +0.000 C 
ATOM     10  C   UNL     1       4.533   6.081  17.638  0.00  0.00    +0.000 C 
BRANCH   5  11
ATOM     11  S   UNL     1       6.711   5.045  16.395  0.00  0.00    +0.000 S 
ATOM     12  O   UNL     1       7.844   4.387  17.013  0.00  0.00    +0.000 OA
ATOM     13  O   UNL     1       6.776   6.434  15.989  0.00  0.00    +0.000 OA
BRANCH  11  15
ATOM     14  C   UNL     1       6.905   4.519  13.710  0.00  0.00    +0.000 C 
ATOM     15  C   UNL     1       6.225   4.048  14.985  0.00  0.00    +0.000 C 
ENDBRANCH  11  15
ENDBRANCH   5  11
ENDBRANCH   1   9
BRANCH   3  16
ATOM     16  C   UNL     1       1.528   8.592  20.363  0.00  0.00    +0.000 C 
BRANCH  16  17
ATOM     17  C   UNL     1       0.627   8.526  21.592  0.00  0.00    +0.000 C 
BRANCH  17  18
ATOM     18  C   UNL     1      -0.210   9.775  21.736  0.00  0.00    +0.000 A 
ATOM     19  C   UNL     1      -0.691  10.197  22.976  0.00  0.00    +0.000 A 
ATOM     20  C   UNL     1      -1.446  11.371  23.069  0.00  0.00    +0.000 A 
ATOM     21  C   UNL     1      -1.730  12.150  21.935  0.00  0.00    +0.000 A 
ATOM     22  C   UNL     1      -1.280  11.714  20.677  0.00  0.00    +0.000 A 
ATOM     23  C   UNL     1      -0.540  10.524  20.597  0.00  0.00    +0.000 A 
BRANCH  21  24
ATOM     24  O   UNL     1      -2.443  13.285  22.237  0.00  0.00    +0.000 OA
ATOM     25  C   UNL     1      -2.803  13.513  23.592  0.00  0.00    +0.000 C 
ENDBRANCH  21  24
BRANCH  22  26
ATOM     26  O   UNL     1      -1.580  12.462  19.570  0.00  0.00    +0.000 OA
ATOM     27  C   UNL     1      -0.631  13.424  19.130  0.00  0.00    +0.000 C 
ENDBRANCH  22  26
ENDBRANCH  17  18
ENDBRANCH  16  17
ENDBRANCH   3  16
TORSDOF 8
ENDMDL
