MODEL 1
REMARK VINA RESULT:      -8.4      0.000      0.000
REMARK  Name = 
REMARK  2 active torsions:
REMARK  status: ('A' for Active; 'I' for Inactive)
REMARK    1  A    between atoms: C_5  and  O_6
REMARK    2  A    between atoms: O_6  and  C_7
REMARK                            x       y       z     vdW  Elec       q    Type
REMARK                         _______ _______ _______ _____ _____    ______ ____
ROOT
ATOM      1  C   UNL     1       3.045   5.857  18.697  0.00  0.00    +0.000 A 
ATOM      2  C   UNL     1       2.275   4.726  19.038  0.00  0.00    +0.000 A 
ATOM      3  C   UNL     1       2.460   3.578  18.263  0.00  0.00    +0.000 A 
ATOM      4  N   UNL     1       3.355   3.503  17.250  0.00  0.00    +0.000 NA
ATOM      5  C   UNL     1       4.126   4.560  16.970  0.00  0.00    +0.000 A 
ATOM      6  C   UNL     1       5.073   4.434  15.958  0.00  0.00    +0.000 A 
ATOM      7  C   UNL     1       5.935   5.479  15.621  0.00  0.00    +0.000 A 
ATOM      8  C   UNL     1       5.853   6.684  16.305  0.00  0.00    +0.000 A 
ATOM      9  C   UNL     1       4.905   6.834  17.319  0.00  0.00    +0.000 A 
ATOM     10  C   UNL     1       4.025   5.776  17.668  0.00  0.00    +0.000 A 
ATOM     11  C   UNL     1       1.742   2.282  18.553  0.00  0.00    +0.000 C 
ATOM     12  C   UNL     1       0.573   2.401  19.522  0.00  0.00    +0.000 C 
ATOM     13  C   UNL     1       0.941   3.312  20.681  0.00  0.00    +0.000 C 
ATOM     14  C   UNL     1       1.250   4.704  20.145  0.00  0.00    +0.000 C 
ENDROOT
BRANCH   1  15
ATOM     15  O   UNL     1       3.038   7.061  19.385  0.00  0.00    +0.000 OA
BRANCH  15  20
ATOM     16 CL   UNL     1      -1.139  11.074  18.359  0.00  0.00    +0.000 Cl
ATOM     17  C   UNL     1       0.138   9.960  18.653  0.00  0.00    +0.000 A 
ATOM     18  C   UNL     1       0.905   9.491  17.587  0.00  0.00    +0.000 A 
ATOM     19  C   UNL     1       1.939   8.578  17.818  0.00  0.00    +0.000 A 
ATOM     20  C   UNL     1       2.140   8.063  19.102  0.00  0.00    +0.000 A 
ATOM     21  C   UNL     1       1.395   8.582  20.173  0.00  0.00    +0.000 A 
ATOM     22 CL   UNL     1       1.660   8.045  21.794  0.00  0.00    +0.000 Cl
ATOM     23  C   UNL     1       0.396   9.531  19.951  0.00  0.00    +0.000 A 
ENDBRANCH  15  20
ENDBRANCH   1  15
TORSDOF 2
ENDMDL
MODEL 2
REMARK VINA RESULT:      -8.1      0.269      3.826
REMARK  Name = 
REMARK  2 active torsions:
REMARK  status: ('A' for Active; 'I' for Inactive)
REMARK    1  A    between atoms: C_5  and  O_6
REMARK    2  A    between atoms: O_6  and  C_7
REMARK                            x       y       z     vdW  Elec       q    Type
REMARK                         _______ _______ _______ _____ _____    ______ ____
ROOT
ATOM      1  C   UNL     1       3.292   5.804  18.768  0.00  0.00    +0.000 A 
ATOM      2  C   UNL     1       4.138   5.714  17.643  0.00  0.00    +0.000 A 
ATOM      3  C   UNL     1       4.156   4.493  16.962  0.00  0.00    +0.000 A 
ATOM      4  N   UNL     1       3.384   3.437  17.311  0.00  0.00    +0.000 NA
ATOM      5  C   UNL     1       2.540   3.549  18.343  0.00  0.00    +0.000 A 
ATOM      6  C   UNL     1       1.722   2.464  18.643  0.00  0.00    +0.000 A 
ATOM      7  C   UNL     1       0.794   2.507  19.685  0.00  0.00    +0.000 A 
ATOM      8  C   UNL     1       0.676   3.658  20.452  0.00  0.00    +0.000 A 
ATOM      9  C   UNL     1       1.492   4.755  20.172  0.00  0.00    +0.000 A 
ATOM     10  C   UNL     1       2.438   4.719  19.114  0.00  0.00    +0.000 A 
ATOM     11  C   UNL     1       4.974   4.278  15.712  0.00  0.00    +0.000 C 
ATOM     12  C   UNL     1       6.016   5.353  15.435  0.00  0.00    +0.000 C 
ATOM     13  C   UNL     1       5.436   6.731  15.704  0.00  0.00    +0.000 C 
ATOM     14  C   UNL     1       5.039   6.829  17.172  0.00  0.00    +0.000 C 
ENDROOT
BRANCH   1  15
ATOM     15  O   UNL     1       3.099   6.948  19.529  0.00  0.00    +0.000 OA
BRANCH  15  20
ATOM     16 CL   UNL     1      -1.018  10.912  18.140  0.00  0.00    +0.000 Cl
ATOM     17  C   UNL     1       0.242   9.811  18.536  0.00  0.00    +0.000 A 
ATOM     18  C   UNL     1       1.028   9.266  17.523  0.00  0.00    +0.000 A 
ATOM     19  C   UNL     1       2.049   8.364  17.838  0.00  0.00    +0.000 A 
ATOM     20  C   UNL     1       2.216   7.935  19.158  0.00  0.00    +0.000 A 
ATOM     21  C   UNL     1       1.452   8.531  20.175  0.00  0.00    +0.000 A 
ATOM     22 CL   UNL     1       1.677   8.103  21.834  0.00  0.00    +0.000 Cl
ATOM     23  C   UNL     1       0.467   9.470  19.867  0.00  0.00    +0.000 A 
ENDBRANCH  15  20
ENDBRANCH   1  15
TORSDOF 2
ENDMDL
MODEL 3
REMARK VINA RESULT:      -7.5      1.191      1.605
REMARK  Name = 
REMARK  2 active torsions:
REMARK  status: ('A' for Active; 'I' for Inactive)
REMARK    1  A    between atoms: C_5  and  O_6
REMARK    2  A    between atoms: O_6  and  C_7
REMARK                            x       y       z     vdW  Elec       q    Type
REMARK                         _______ _______ _______ _____ _____    ______ ____
ROOT
ATOM      1  C   UNL     1       3.138   5.729  18.831  0.00  0.00    +0.000 A 
ATOM      2  C   UNL     1       2.314   4.624  19.130  0.00  0.00    +0.000 A 
ATOM      3  C   UNL     1       2.381   3.532  18.260  0.00  0.00    +0.000 A 
ATOM      4  N   UNL     1       3.214   3.483  17.193  0.00  0.00    +0.000 NA
ATOM      5  C   UNL     1       4.037   4.510  16.950  0.00  0.00    +0.000 A 
ATOM      6  C   UNL     1       4.918   4.406  15.878  0.00  0.00    +0.000 A 
ATOM      7  C   UNL     1       5.827   5.420  15.572  0.00  0.00    +0.000 A 
ATOM      8  C   UNL     1       5.862   6.569  16.349  0.00  0.00    +0.000 A 
ATOM      9  C   UNL     1       4.982   6.695  17.425  0.00  0.00    +0.000 A 
ATOM     10  C   UNL     1       4.054   5.670  17.744  0.00  0.00    +0.000 A 
ATOM     11  C   UNL     1       1.595   2.264  18.492  0.00  0.00    +0.000 C 
ATOM     12  C   UNL     1       0.491   2.378  19.534  0.00  0.00    +0.000 C 
ATOM     13  C   UNL     1       0.979   3.169  20.735  0.00  0.00    +0.000 C 
ATOM     14  C   UNL     1       1.350   4.577  20.290  0.00  0.00    +0.000 C 
ENDROOT
BRANCH   1  15
ATOM     15  O   UNL     1       3.248   6.873  19.609  0.00  0.00    +0.000 OA
BRANCH  15  20
ATOM     16 CL   UNL     1      -1.055  10.761  20.594  0.00  0.00    +0.000 Cl
ATOM     17  C   UNL     1       0.146   9.568  20.292  0.00  0.00    +0.000 A 
ATOM     18  C   UNL     1       0.454   8.632  21.279  0.00  0.00    +0.000 A 
ATOM     19  C   UNL     1       1.436   7.664  21.042  0.00  0.00    +0.000 A 
ATOM     20  C   UNL     1       2.175   7.697  19.857  0.00  0.00    +0.000 A 
ATOM     21  C   UNL     1       1.819   8.611  18.852  0.00  0.00    +0.000 A 
ATOM     22 CL   UNL     1       2.641   8.639  17.332  0.00  0.00    +0.000 Cl
ATOM     23  C   UNL     1       0.805   9.545  19.066  0.00  0.00    +0.000 A 
ENDBRANCH  15  20
ENDBRANCH   1  15
TORSDOF 2
ENDMDL
MODEL 4
REMARK VINA RESULT:      -7.4      1.667      4.091
REMARK  Name = 
REMARK  2 active torsions:
REMARK  status: ('A' for Active; 'I' for Inactive)
REMARK    1  A    between atoms: C_5  and  O_6
REMARK    2  A    between atoms: O_6  and  C_7
REMARK                            x       y       z     vdW  Elec       q    Type
REMARK                         _______ _______ _______ _____ _____    ______ ____
ROOT
ATOM      1  C   UNL     1       3.502   5.574  18.090  0.00  0.00    +0.000 A 
ATOM      2  C   UNL     1       4.867   5.932  18.081  0.00  0.00    +0.000 A 
ATOM      3  C   UNL     1       5.779   4.956  18.493  0.00  0.00    +0.000 A 
ATOM      4  N   UNL     1       5.413   3.703  18.852  0.00  0.00    +0.000 NA
ATOM      5  C   UNL     1       4.123   3.351  18.800  0.00  0.00    +0.000 A 
ATOM      6  C   UNL     1       3.786   2.040  19.125  0.00  0.00    +0.000 A 
ATOM      7  C   UNL     1       2.468   1.584  19.072  0.00  0.00    +0.000 A 
ATOM      8  C   UNL     1       1.456   2.453  18.687  0.00  0.00    +0.000 A 
ATOM      9  C   UNL     1       1.772   3.773  18.364  0.00  0.00    +0.000 A 
ATOM     10  C   UNL     1       3.110   4.245  18.416  0.00  0.00    +0.000 A 
ATOM     11  C   UNL     1       7.270   5.187  18.479  0.00  0.00    +0.000 C 
ATOM     12  C   UNL     1       7.692   6.640  18.308  0.00  0.00    +0.000 C 
ATOM     13  C   UNL     1       6.835   7.316  17.251  0.00  0.00    +0.000 C 
ATOM     14  C   UNL     1       5.379   7.299  17.701  0.00  0.00    +0.000 C 
ENDROOT
BRANCH   1  15
ATOM     15  O   UNL     1       2.464   6.387  17.662  0.00  0.00    +0.000 OA
BRANCH  15  20
ATOM     16 CL   UNL     1       0.750  11.283  20.437  0.00  0.00    +0.000 Cl
ATOM     17  C   UNL     1       1.328   9.877  19.632  0.00  0.00    +0.000 A 
ATOM     18  C   UNL     1       1.703   9.953  18.292  0.00  0.00    +0.000 A 
ATOM     19  C   UNL     1       2.166   8.811  17.629  0.00  0.00    +0.000 A 
ATOM     20  C   UNL     1       2.160   7.576  18.283  0.00  0.00    +0.000 A 
ATOM     21  C   UNL     1       1.829   7.524  19.647  0.00  0.00    +0.000 A 
ATOM     22 CL   UNL     1       1.888   6.038  20.528  0.00  0.00    +0.000 Cl
ATOM     23  C   UNL     1       1.416   8.672  20.323  0.00  0.00    +0.000 A 
ENDBRANCH  15  20
ENDBRANCH   1  15
TORSDOF 2
ENDMDL
MODEL 5
REMARK VINA RESULT:      -7.3      1.578      2.405
REMARK  Name = 
REMARK  2 active torsions:
REMARK  status: ('A' for Active; 'I' for Inactive)
REMARK    1  A    between atoms: C_5  and  O_6
REMARK    2  A    between atoms: O_6  and  C_7
REMARK                            x       y       z     vdW  Elec       q    Type
REMARK                         _______ _______ _______ _____ _____    ______ ____
ROOT
ATOM      1  C   UNL     1       3.430   5.782  17.807  0.00  0.00    +0.000 A 
ATOM      2  C   UNL     1       2.909   4.488  18.016  0.00  0.00    +0.000 A 
ATOM      3  C   UNL     1       3.825   3.431  18.021  0.00  0.00    +0.000 A 
ATOM      4  N   UNL     1       5.159   3.604  17.876  0.00  0.00    +0.000 NA
ATOM      5  C   UNL     1       5.653   4.840  17.739  0.00  0.00    +0.000 A 
ATOM      6  C   UNL     1       7.034   4.989  17.646  0.00  0.00    +0.000 A 
ATOM      7  C   UNL     1       7.633   6.245  17.528  0.00  0.00    +0.000 A 
ATOM      8  C   UNL     1       6.840   7.383  17.499  0.00  0.00    +0.000 A 
ATOM      9  C   UNL     1       5.453   7.255  17.585  0.00  0.00    +0.000 A 
ATOM     10  C   UNL     1       4.836   5.983  17.705  0.00  0.00    +0.000 A 
ATOM     11  C   UNL     1       3.410   2.004  18.288  0.00  0.00    +0.000 C 
ATOM     12  C   UNL     1       1.910   1.750  18.221  0.00  0.00    +0.000 C 
ATOM     13  C   UNL     1       1.154   2.875  18.908  0.00  0.00    +0.000 C 
ATOM     14  C   UNL     1       1.441   4.185  18.186  0.00  0.00    +0.000 C 
ENDROOT
BRANCH   1  15
ATOM     15  O   UNL     1       2.686   6.952  17.828  0.00  0.00    +0.000 OA
BRANCH  15  20
ATOM     16 CL   UNL     1       0.578   9.374  22.756  0.00  0.00    +0.000 Cl
ATOM     17  C   UNL     1       1.123   8.628  21.305  0.00  0.00    +0.000 A 
ATOM     18  C   UNL     1       1.514   7.291  21.321  0.00  0.00    +0.000 A 
ATOM     19  C   UNL     1       1.966   6.681  20.146  0.00  0.00    +0.000 A 
ATOM     20  C   UNL     1       2.117   7.439  18.981  0.00  0.00    +0.000 A 
ATOM     21  C   UNL     1       1.671   8.770  18.967  0.00  0.00    +0.000 A 
ATOM     22 CL   UNL     1       1.753   9.729  17.531  0.00  0.00    +0.000 Cl
ATOM     23  C   UNL     1       1.172   9.366  20.126  0.00  0.00    +0.000 A 
ENDBRANCH  15  20
ENDBRANCH   1  15
TORSDOF 2
ENDMDL
MODEL 6
REMARK VINA RESULT:      -7.3      1.733      4.347
REMARK  Name = 
REMARK  2 active torsions:
REMARK  status: ('A' for Active; 'I' for Inactive)
REMARK    1  A    between atoms: C_5  and  O_6
REMARK    2  A    between atoms: O_6  and  C_7
REMARK                            x       y       z     vdW  Elec       q    Type
REMARK                         _______ _______ _______ _____ _____    ______ ____
ROOT
ATOM      1  C   UNL     1       3.549   5.745  18.252  0.00  0.00    +0.000 A 
ATOM      2  C   UNL     1       4.939   5.961  18.155  0.00  0.00    +0.000 A 
ATOM      3  C   UNL     1       5.765   4.843  18.306  0.00  0.00    +0.000 A 
ATOM      4  N   UNL     1       5.290   3.590  18.498  0.00  0.00    +0.000 NA
ATOM      5  C   UNL     1       3.968   3.383  18.528  0.00  0.00    +0.000 A 
ATOM      6  C   UNL     1       3.511   2.076  18.674  0.00  0.00    +0.000 A 
ATOM      7  C   UNL     1       2.150   1.769  18.688  0.00  0.00    +0.000 A 
ATOM      8  C   UNL     1       1.216   2.787  18.557  0.00  0.00    +0.000 A 
ATOM      9  C   UNL     1       1.653   4.105  18.417  0.00  0.00    +0.000 A 
ATOM     10  C   UNL     1       3.035   4.426  18.401  0.00  0.00    +0.000 A 
ATOM     11  C   UNL     1       7.266   4.924  18.172  0.00  0.00    +0.000 C 
ATOM     12  C   UNL     1       7.836   6.336  18.191  0.00  0.00    +0.000 C 
ATOM     13  C   UNL     1       6.974   7.263  17.352  0.00  0.00    +0.000 C 
ATOM     14  C   UNL     1       5.571   7.315  17.945  0.00  0.00    +0.000 C 
ENDROOT
BRANCH   1  15
ATOM     15  O   UNL     1       2.578   6.719  18.071  0.00  0.00    +0.000 OA
BRANCH  15  20
ATOM     16 CL   UNL     1       0.410   9.818  22.576  0.00  0.00    +0.000 Cl
ATOM     17  C   UNL     1       0.970   8.880  21.248  0.00  0.00    +0.000 A 
ATOM     18  C   UNL     1       1.240   7.524  21.426  0.00  0.00    +0.000 A 
ATOM     19  C   UNL     1       1.704   6.757  20.352  0.00  0.00    +0.000 A 
ATOM     20  C   UNL     1       1.988   7.371  19.129  0.00  0.00    +0.000 A 
ATOM     21  C   UNL     1       1.663   8.725  18.949  0.00  0.00    +0.000 A 
ATOM     22 CL   UNL     1       1.912   9.515  17.432  0.00  0.00    +0.000 Cl
ATOM     23  C   UNL     1       1.152   9.480  20.006  0.00  0.00    +0.000 A 
ENDBRANCH  15  20
ENDBRANCH   1  15
TORSDOF 2
ENDMDL
MODEL 7
REMARK VINA RESULT:      -6.9      3.301      6.421
REMARK  Name = 
REMARK  2 active torsions:
REMARK  status: ('A' for Active; 'I' for Inactive)
REMARK    1  A    between atoms: C_5  and  O_6
REMARK    2  A    between atoms: O_6  and  C_7
REMARK                            x       y       z     vdW  Elec       q    Type
REMARK                         _______ _______ _______ _____ _____    ______ ____
ROOT
ATOM      1  C   UNL     1       4.100   4.649  18.836  0.00  0.00    +0.000 A 
ATOM      2  C   UNL     1       3.644   5.925  18.443  0.00  0.00    +0.000 A 
ATOM      3  C   UNL     1       2.433   6.359  18.989  0.00  0.00    +0.000 A 
ATOM      4  N   UNL     1       1.722   5.637  19.887  0.00  0.00    +0.000 NA
ATOM      5  C   UNL     1       2.190   4.454  20.301  0.00  0.00    +0.000 A 
ATOM      6  C   UNL     1       1.463   3.760  21.264  0.00  0.00    +0.000 A 
ATOM      7  C   UNL     1       1.894   2.532  21.770  0.00  0.00    +0.000 A 
ATOM      8  C   UNL     1       3.079   1.977  21.307  0.00  0.00    +0.000 A 
ATOM      9  C   UNL     1       3.820   2.654  20.337  0.00  0.00    +0.000 A 
ATOM     10  C   UNL     1       3.389   3.902  19.817  0.00  0.00    +0.000 A 
ATOM     11  C   UNL     1       1.858   7.724  18.697  0.00  0.00    +0.000 C 
ATOM     12  C   UNL     1       2.504   8.454  17.527  0.00  0.00    +0.000 C 
ATOM     13  C   UNL     1       4.014   8.287  17.571  0.00  0.00    +0.000 C 
ATOM     14  C   UNL     1       4.358   6.808  17.450  0.00  0.00    +0.000 C 
ENDROOT
BRANCH   1  15
ATOM     15  O   UNL     1       5.302   4.079  18.445  0.00  0.00    +0.000 OA
BRANCH  15  20
ATOM     16 CL   UNL     1       7.382   5.077  13.033  0.00  0.00    +0.000 Cl
ATOM     17  C   UNL     1       6.803   4.709  14.611  0.00  0.00    +0.000 A 
ATOM     18  C   UNL     1       5.634   3.964  14.761  0.00  0.00    +0.000 A 
ATOM     19  C   UNL     1       5.154   3.669  16.041  0.00  0.00    +0.000 A 
ATOM     20  C   UNL     1       5.790   4.203  17.165  0.00  0.00    +0.000 A 
ATOM     21  C   UNL     1       6.994   4.908  17.001  0.00  0.00    +0.000 A 
ATOM     22 CL   UNL     1       7.870   5.517  18.360  0.00  0.00    +0.000 Cl
ATOM     23  C   UNL     1       7.503   5.159  15.726  0.00  0.00    +0.000 A 
ENDBRANCH  15  20
ENDBRANCH   1  15
TORSDOF 2
ENDMDL
MODEL 8
REMARK VINA RESULT:      -6.9      1.753      2.344
REMARK  Name = 
REMARK  2 active torsions:
REMARK  status: ('A' for Active; 'I' for Inactive)
REMARK    1  A    between atoms: C_5  and  O_6
REMARK    2  A    between atoms: O_6  and  C_7
REMARK                            x       y       z     vdW  Elec       q    Type
REMARK                         _______ _______ _______ _____ _____    ______ ____
ROOT
ATOM      1  C   UNL     1       3.316   5.785  18.619  0.00  0.00    +0.000 A 
ATOM      2  C   UNL     1       2.887   4.644  19.327  0.00  0.00    +0.000 A 
ATOM      3  C   UNL     1       3.850   3.665  19.592  0.00  0.00    +0.000 A 
ATOM      4  N   UNL     1       5.151   3.789  19.238  0.00  0.00    +0.000 NA
ATOM      5  C   UNL     1       5.564   4.902  18.620  0.00  0.00    +0.000 A 
ATOM      6  C   UNL     1       6.917   5.022  18.316  0.00  0.00    +0.000 A 
ATOM      7  C   UNL     1       7.435   6.160  17.696  0.00  0.00    +0.000 A 
ATOM      8  C   UNL     1       6.586   7.208  17.366  0.00  0.00    +0.000 A 
ATOM      9  C   UNL     1       5.225   7.105  17.656  0.00  0.00    +0.000 A 
ATOM     10  C   UNL     1       4.690   5.951  18.286  0.00  0.00    +0.000 A 
ATOM     11  C   UNL     1       3.540   2.421  20.388  0.00  0.00    +0.000 C 
ATOM     12  C   UNL     1       2.057   2.146  20.593  0.00  0.00    +0.000 C 
ATOM     13  C   UNL     1       1.323   3.433  20.929  0.00  0.00    +0.000 C 
ATOM     14  C   UNL     1       1.464   4.407  19.766  0.00  0.00    +0.000 C 
ENDROOT
BRANCH   1  15
ATOM     15  O   UNL     1       2.520   6.880  18.317  0.00  0.00    +0.000 OA
BRANCH  15  20
ATOM     16 CL   UNL     1       0.274  10.427  22.438  0.00  0.00    +0.000 Cl
ATOM     17  C   UNL     1       0.857   9.355  21.226  0.00  0.00    +0.000 A 
ATOM     18  C   UNL     1       1.154   8.034  21.557  0.00  0.00    +0.000 A 
ATOM     19  C   UNL     1       1.637   7.159  20.577  0.00  0.00    +0.000 A 
ATOM     20  C   UNL     1       1.914   7.636  19.293  0.00  0.00    +0.000 A 
ATOM     21  C   UNL     1       1.562   8.955  18.960  0.00  0.00    +0.000 A 
ATOM     22 CL   UNL     1       1.801   9.572  17.364  0.00  0.00    +0.000 Cl
ATOM     23  C   UNL     1       1.032   9.814  19.924  0.00  0.00    +0.000 A 
ENDBRANCH  15  20
ENDBRANCH   1  15
TORSDOF 2
ENDMDL
MODEL 9
REMARK VINA RESULT:      -6.8      4.261      8.321
REMARK  Name = 
REMARK  2 active torsions:
REMARK  status: ('A' for Active; 'I' for Inactive)
REMARK    1  A    between atoms: C_5  and  O_6
REMARK    2  A    between atoms: O_6  and  C_7
REMARK                            x       y       z     vdW  Elec       q    Type
REMARK                         _______ _______ _______ _____ _____    ______ ____
ROOT
ATOM      1  C   UNL     1      -0.864  11.332  19.646  0.00  0.00    +0.000 A 
ATOM      2  C   UNL     1      -1.782  11.026  18.619  0.00  0.00    +0.000 A 
ATOM      3  C   UNL     1      -3.071  11.551  18.747  0.00  0.00    +0.000 A 
ATOM      4  N   UNL     1      -3.448  12.352  19.772  0.00  0.00    +0.000 NA
ATOM      5  C   UNL     1      -2.556  12.688  20.710  0.00  0.00    +0.000 A 
ATOM      6  C   UNL     1      -2.960  13.555  21.721  0.00  0.00    +0.000 A 
ATOM      7  C   UNL     1      -2.084  13.977  22.723  0.00  0.00    +0.000 A 
ATOM      8  C   UNL     1      -0.773  13.524  22.724  0.00  0.00    +0.000 A 
ATOM      9  C   UNL     1      -0.349  12.648  21.723  0.00  0.00    +0.000 A 
ATOM     10  C   UNL     1      -1.233  12.214  20.701  0.00  0.00    +0.000 A 
ATOM     11  C   UNL     1      -4.134  11.347  17.695  0.00  0.00    +0.000 C 
ATOM     12  C   UNL     1      -3.817  10.272  16.664  0.00  0.00    +0.000 C 
ATOM     13  C   UNL     1      -2.365  10.371  16.230  0.00  0.00    +0.000 C 
ATOM     14  C   UNL     1      -1.465  10.143  17.438  0.00  0.00    +0.000 C 
ENDROOT
BRANCH   1  15
ATOM     15  O   UNL     1       0.469  10.949  19.661  0.00  0.00    +0.000 OA
BRANCH  15  20
ATOM     16 CL   UNL     1       1.947   5.375  20.820  0.00  0.00    +0.000 Cl
ATOM     17  C   UNL     1       1.574   7.029  20.531  0.00  0.00    +0.000 A 
ATOM     18  C   UNL     1       0.852   7.750  21.480  0.00  0.00    +0.000 A 
ATOM     19  C   UNL     1       0.538   9.094  21.247  0.00  0.00    +0.000 A 
ATOM     20  C   UNL     1       0.864   9.683  20.023  0.00  0.00    +0.000 A 
ATOM     21  C   UNL     1       1.636   8.961  19.098  0.00  0.00    +0.000 A 
ATOM     22 CL   UNL     1       2.143   9.668  17.605  0.00  0.00    +0.000 Cl
ATOM     23  C   UNL     1       1.994   7.636  19.351  0.00  0.00    +0.000 A 
ENDBRANCH  15  20
ENDBRANCH   1  15
TORSDOF 2
ENDMDL
