MODEL 1
REMARK VINA RESULT:      -8.6      0.000      0.000
REMARK  Name = 
REMARK  7 active torsions:
REMARK  status: ('A' for Active; 'I' for Inactive)
REMARK    1  A    between atoms: C_1  and  C_2
REMARK    2  A    between atoms: C_3  and  C_4
REMARK    3  A    between atoms: N_6  and  N_7
REMARK    4  A    between atoms: C_18  and  C_19
REMARK    5  A    between atoms: N_20  and  C_21
REMARK    6  A    between atoms: C_22  and  C_23
REMARK    7  A    between atoms: N_25  and  N_26
REMARK                            x       y       z     vdW  Elec       q    Type
REMARK                         _______ _______ _______ _____ _____    ______ ____
ROOT
ATOM      1  C   UNL     1      -0.620   9.400  20.687  0.00  0.00    +0.000 C 
ATOM      2  C   UNL     1       0.138  10.555  20.111  0.00  0.00    +0.000 A 
ATOM      3  C   UNL     1       1.163  10.483  19.091  0.00  0.00    +0.000 A 
ATOM      4  C   UNL     1       1.623  11.786  18.927  0.00  0.00    +0.000 A 
ATOM      5  C   UNL     1       2.702  12.315  18.033  0.00  0.00    +0.000 C 
ATOM      6  N   UNL     1       0.896  12.620  19.751  0.00  0.00    +0.000 N 
ATOM      7  C   UNL     1       1.057  14.061  19.752  0.00  0.00    +0.000 C 
ATOM      8  C   UNL     1       0.025  11.892  20.551  0.00  0.00    +0.000 A 
ENDROOT
BRANCH   3   9
ATOM      9  C   UNL     1       1.746   9.321  18.375  0.00  0.00    +0.000 C 
ATOM     10  O   UNL     1       1.815   9.305  17.146  0.00  0.00    +0.000 OA
ATOM     11  N   UNL     1       2.135   8.245  19.168  0.00  0.00    +0.000 N 
ATOM     12  H   UNL     1       1.918   8.242  20.164  0.00  0.00    +0.000 HD
BRANCH  11  13
ATOM     13  N   UNL     1       2.637   7.094  18.574  0.00  0.00    +0.000 NA
ATOM     14  C   UNL     1       2.493   5.977  19.217  0.00  0.00    +0.000 C 
ATOM     15  C   UNL     1       1.796   5.755  20.561  0.00  0.00    +0.000 C 
ATOM     16  O   UNL     1       1.253   6.621  21.212  0.00  0.00    +0.000 OA
ATOM     17  N   UNL     1       1.920   4.410  20.833  0.00  0.00    +0.000 N 
ATOM     18  C   UNL     1       2.592   3.758  19.804  0.00  0.00    +0.000 A 
ATOM     19  C   UNL     1       2.884   2.413  19.735  0.00  0.00    +0.000 A 
ATOM     20  C   UNL     1       3.550   1.955  18.592  0.00  0.00    +0.000 A 
ATOM     21  C   UNL     1       3.903   2.849  17.556  0.00  0.00    +0.000 A 
ATOM     22  C   UNL     1       3.612   4.215  17.653  0.00  0.00    +0.000 A 
ATOM     23  C   UNL     1       2.956   4.648  18.791  0.00  0.00    +0.000 A 
ATOM     24  H   UNL     1       1.541   3.974  21.660  0.00  0.00    +0.000 HD
ENDBRANCH  11  13
ENDBRANCH   3   9
BRANCH   8  25
ATOM     25  C   UNL     1      -0.867  12.409  21.619  0.00  0.00    +0.000 C 
ATOM     26  O   UNL     1      -0.543  12.375  22.809  0.00  0.00    +0.000 OA
ATOM     27  N   UNL     1      -2.078  12.968  21.194  0.00  0.00    +0.000 N 
ATOM     28  H   UNL     1      -2.246  13.106  20.205  0.00  0.00    +0.000 HD
BRANCH  27  29
ATOM     29  N   UNL     1      -3.017  13.488  22.064  0.00  0.00    +0.000 NA
ATOM     30  C   UNL     1      -4.256  13.449  21.673  0.00  0.00    +0.000 C 
ATOM     31  C   UNL     1      -4.831  12.869  20.370  0.00  0.00    +0.000 C 
ATOM     32  O   UNL     1      -4.191  12.266  19.536  0.00  0.00    +0.000 OA
ATOM     33  N   UNL     1      -6.175  13.161  20.379  0.00  0.00    +0.000 N 
ATOM     34  C   UNL     1      -6.524  13.809  21.557  0.00  0.00    +0.000 A 
ATOM     35  C   UNL     1      -7.785  14.231  21.928  0.00  0.00    +0.000 A 
ATOM     36  C   UNL     1      -7.914  14.831  23.186  0.00  0.00    +0.000 A 
ATOM     37  C   UNL     1      -6.795  14.995  24.029  0.00  0.00    +0.000 A 
ATOM     38  C   UNL     1      -5.521  14.575  23.630  0.00  0.00    +0.000 A 
ATOM     39  C   UNL     1      -5.415  13.987  22.388  0.00  0.00    +0.000 A 
ATOM     40  H   UNL     1      -6.810  12.894  19.640  0.00  0.00    +0.000 HD
ENDBRANCH  27  29
ENDBRANCH   8  25
TORSDOF 4
ENDMDL
MODEL 2
REMARK VINA RESULT:      -8.4      0.388     10.766
REMARK  Name = 
REMARK  7 active torsions:
REMARK  status: ('A' for Active; 'I' for Inactive)
REMARK    1  A    between atoms: C_1  and  C_2
REMARK    2  A    between atoms: C_3  and  C_4
REMARK    3  A    between atoms: N_6  and  N_7
REMARK    4  A    between atoms: C_18  and  C_19
REMARK    5  A    between atoms: N_20  and  C_21
REMARK    6  A    between atoms: C_22  and  C_23
REMARK    7  A    between atoms: N_25  and  N_26
REMARK                            x       y       z     vdW  Elec       q    Type
REMARK                         _______ _______ _______ _____ _____    ______ ____
ROOT
ATOM      1  C   UNL     1      -0.581   9.314  20.683  0.00  0.00    +0.000 C 
ATOM      2  C   UNL     1       0.195  10.468  20.129  0.00  0.00    +0.000 A 
ATOM      3  C   UNL     1       0.066  11.855  20.525  0.00  0.00    +0.000 A 
ATOM      4  C   UNL     1       0.931  12.564  19.697  0.00  0.00    +0.000 A 
ATOM      5  C   UNL     1       1.196  14.037  19.625  0.00  0.00    +0.000 C 
ATOM      6  N   UNL     1       1.592  11.672  18.878  0.00  0.00    +0.000 N 
ATOM      7  C   UNL     1       2.641  12.075  17.960  0.00  0.00    +0.000 C 
ATOM      8  C   UNL     1       1.113  10.382  19.060  0.00  0.00    +0.000 A 
ENDROOT
BRANCH   3   9
ATOM      9  C   UNL     1      -0.826  12.507  21.515  0.00  0.00    +0.000 C 
ATOM     10  O   UNL     1      -0.431  12.762  22.652  0.00  0.00    +0.000 OA
ATOM     11  N   UNL     1      -2.135  12.742  21.100  0.00  0.00    +0.000 N 
ATOM     12  H   UNL     1      -2.458  12.375  20.205  0.00  0.00    +0.000 HD
BRANCH  11  13
ATOM     13  N   UNL     1      -3.052  13.295  21.983  0.00  0.00    +0.000 NA
ATOM     14  C   UNL     1      -4.296  13.321  21.617  0.00  0.00    +0.000 C 
ATOM     15  C   UNL     1      -4.900  12.777  20.321  0.00  0.00    +0.000 C 
ATOM     16  O   UNL     1      -4.276  12.215  19.447  0.00  0.00    +0.000 OA
ATOM     17  N   UNL     1      -6.247  13.056  20.386  0.00  0.00    +0.000 N 
ATOM     18  C   UNL     1      -6.563  13.691  21.584  0.00  0.00    +0.000 A 
ATOM     19  C   UNL     1      -7.813  14.104  21.991  0.00  0.00    +0.000 A 
ATOM     20  C   UNL     1      -7.916  14.703  23.252  0.00  0.00    +0.000 A 
ATOM     21  C   UNL     1      -6.772  14.869  24.067  0.00  0.00    +0.000 A 
ATOM     22  C   UNL     1      -5.509  14.457  23.628  0.00  0.00    +0.000 A 
ATOM     23  C   UNL     1      -5.428  13.870  22.378  0.00  0.00    +0.000 A 
ATOM     24  H   UNL     1      -6.903  12.800  19.664  0.00  0.00    +0.000 HD
ENDBRANCH  11  13
ENDBRANCH   3   9
BRANCH   8  25
ATOM     25  C   UNL     1       1.506   9.158  18.316  0.00  0.00    +0.000 C 
ATOM     26  O   UNL     1       1.147   8.962  17.152  0.00  0.00    +0.000 OA
ATOM     27  N   UNL     1       2.335   8.261  18.998  0.00  0.00    +0.000 N 
ATOM     28  H   UNL     1       2.723   8.522  19.897  0.00  0.00    +0.000 HD
BRANCH  27  29
ATOM     29  N   UNL     1       2.784   7.077  18.446  0.00  0.00    +0.000 NA
ATOM     30  C   UNL     1       2.589   5.999  19.146  0.00  0.00    +0.000 C 
ATOM     31  C   UNL     1       1.892   5.855  20.509  0.00  0.00    +0.000 C 
ATOM     32  O   UNL     1       1.329   6.751  21.099  0.00  0.00    +0.000 OA
ATOM     33  N   UNL     1       2.033   4.537  20.876  0.00  0.00    +0.000 N 
ATOM     34  C   UNL     1       2.688   3.822  19.881  0.00  0.00    +0.000 A 
ATOM     35  C   UNL     1       2.983   2.474  19.887  0.00  0.00    +0.000 A 
ATOM     36  C   UNL     1       3.619   1.953  18.755  0.00  0.00    +0.000 A 
ATOM     37  C   UNL     1       3.943   2.782  17.661  0.00  0.00    +0.000 A 
ATOM     38  C   UNL     1       3.652   4.151  17.678  0.00  0.00    +0.000 A 
ATOM     39  C   UNL     1       3.025   4.644  18.803  0.00  0.00    +0.000 A 
ATOM     40  H   UNL     1       1.664   4.154  21.735  0.00  0.00    +0.000 HD
ENDBRANCH  27  29
ENDBRANCH   8  25
TORSDOF 4
ENDMDL
MODEL 3
REMARK VINA RESULT:      -8.3      2.257     11.531
REMARK  Name = 
REMARK  7 active torsions:
REMARK  status: ('A' for Active; 'I' for Inactive)
REMARK    1  A    between atoms: C_1  and  C_2
REMARK    2  A    between atoms: C_3  and  C_4
REMARK    3  A    between atoms: N_6  and  N_7
REMARK    4  A    between atoms: C_18  and  C_19
REMARK    5  A    between atoms: N_20  and  C_21
REMARK    6  A    between atoms: C_22  and  C_23
REMARK    7  A    between atoms: N_25  and  N_26
REMARK                            x       y       z     vdW  Elec       q    Type
REMARK                         _______ _______ _______ _____ _____    ______ ____
ROOT
ATOM      1  C   UNL     1      -0.956  12.281  18.004  0.00  0.00    +0.000 C 
ATOM      2  C   UNL     1      -0.708  11.680  19.352  0.00  0.00    +0.000 A 
ATOM      3  C   UNL     1      -1.464  11.945  20.559  0.00  0.00    +0.000 A 
ATOM      4  C   UNL     1      -0.831  11.221  21.565  0.00  0.00    +0.000 A 
ATOM      5  C   UNL     1      -1.148  11.134  23.026  0.00  0.00    +0.000 C 
ATOM      6  N   UNL     1       0.215  10.513  21.011  0.00  0.00    +0.000 N 
ATOM      7  C   UNL     1       1.021   9.577  21.772  0.00  0.00    +0.000 C 
ATOM      8  C   UNL     1       0.371  10.826  19.668  0.00  0.00    +0.000 A 
ENDROOT
BRANCH   3   9
ATOM      9  C   UNL     1      -2.618  12.844  20.809  0.00  0.00    +0.000 C 
ATOM     10  O   UNL     1      -3.770  12.473  20.584  0.00  0.00    +0.000 OA
ATOM     11  N   UNL     1      -2.309  14.132  21.240  0.00  0.00    +0.000 N 
ATOM     12  H   UNL     1      -1.338  14.440  21.265  0.00  0.00    +0.000 HD
BRANCH  11  13
ATOM     13  N   UNL     1      -3.326  15.055  21.442  0.00  0.00    +0.000 NA
ATOM     14  C   UNL     1      -3.470  15.535  22.638  0.00  0.00    +0.000 C 
ATOM     15  C   UNL     1      -2.623  15.231  23.876  0.00  0.00    +0.000 C 
ATOM     16  O   UNL     1      -1.663  14.492  23.893  0.00  0.00    +0.000 OA
ATOM     17  N   UNL     1      -3.177  15.964  24.902  0.00  0.00    +0.000 N 
ATOM     18  C   UNL     1      -4.259  16.711  24.447  0.00  0.00    +0.000 A 
ATOM     19  C   UNL     1      -5.041  17.565  25.194  0.00  0.00    +0.000 A 
ATOM     20  C   UNL     1      -6.071  18.244  24.532  0.00  0.00    +0.000 A 
ATOM     21  C   UNL     1      -6.286  18.053  23.148  0.00  0.00    +0.000 A 
ATOM     22  C   UNL     1      -5.491  17.169  22.410  0.00  0.00    +0.000 A 
ATOM     23  C   UNL     1      -4.481  16.505  23.083  0.00  0.00    +0.000 A 
ATOM     24  H   UNL     1      -2.813  15.965  25.842  0.00  0.00    +0.000 HD
ENDBRANCH  11  13
ENDBRANCH   3   9
BRANCH   8  25
ATOM     25  C   UNL     1       1.426  10.341  18.743  0.00  0.00    +0.000 C 
ATOM     26  O   UNL     1       2.193  11.117  18.167  0.00  0.00    +0.000 OA
ATOM     27  N   UNL     1       1.523   8.953  18.592  0.00  0.00    +0.000 N 
ATOM     28  H   UNL     1       0.972   8.345  19.187  0.00  0.00    +0.000 HD
BRANCH  27  29
ATOM     29  N   UNL     1       2.448   8.345  17.766  0.00  0.00    +0.000 NA
ATOM     30  C   UNL     1       2.987   7.247  18.205  0.00  0.00    +0.000 C 
ATOM     31  C   UNL     1       2.711   6.505  19.524  0.00  0.00    +0.000 C 
ATOM     32  O   UNL     1       1.854   6.809  20.325  0.00  0.00    +0.000 OA
ATOM     33  N   UNL     1       3.603   5.459  19.571  0.00  0.00    +0.000 N 
ATOM     34  C   UNL     1       4.372   5.422  18.415  0.00  0.00    +0.000 A 
ATOM     35  C   UNL     1       5.349   4.500  18.099  0.00  0.00    +0.000 A 
ATOM     36  C   UNL     1       5.974   4.632  16.854  0.00  0.00    +0.000 A 
ATOM     37  C   UNL     1       5.614   5.670  15.969  0.00  0.00    +0.000 A 
ATOM     38  C   UNL     1       4.632   6.606  16.312  0.00  0.00    +0.000 A 
ATOM     39  C   UNL     1       4.028   6.458  17.543  0.00  0.00    +0.000 A 
ATOM     40  H   UNL     1       3.646   4.796  20.332  0.00  0.00    +0.000 HD
ENDBRANCH  27  29
ENDBRANCH   8  25
TORSDOF 4
ENDMDL
MODEL 4
REMARK VINA RESULT:      -8.2      5.637      8.882
REMARK  Name = 
REMARK  7 active torsions:
REMARK  status: ('A' for Active; 'I' for Inactive)
REMARK    1  A    between atoms: C_1  and  C_2
REMARK    2  A    between atoms: C_3  and  C_4
REMARK    3  A    between atoms: N_6  and  N_7
REMARK    4  A    between atoms: C_18  and  C_19
REMARK    5  A    between atoms: N_20  and  C_21
REMARK    6  A    between atoms: C_22  and  C_23
REMARK    7  A    between atoms: N_25  and  N_26
REMARK                            x       y       z     vdW  Elec       q    Type
REMARK                         _______ _______ _______ _____ _____    ______ ____
ROOT
ATOM      1  C   UNL     1       3.644  15.577  17.512  0.00  0.00    +0.000 C 
ATOM      2  C   UNL     1       3.413  16.264  18.822  0.00  0.00    +0.000 A 
ATOM      3  C   UNL     1       4.423  16.892  19.648  0.00  0.00    +0.000 A 
ATOM      4  C   UNL     1       3.757  17.331  20.787  0.00  0.00    +0.000 A 
ATOM      5  C   UNL     1       4.293  18.023  22.003  0.00  0.00    +0.000 C 
ATOM      6  N   UNL     1       2.414  17.043  20.655  0.00  0.00    +0.000 N 
ATOM      7  C   UNL     1       1.421  17.459  21.627  0.00  0.00    +0.000 C 
ATOM      8  C   UNL     1       2.173  16.320  19.495  0.00  0.00    +0.000 A 
ENDROOT
BRANCH   3   9
ATOM      9  C   UNL     1       5.891  17.017  19.468  0.00  0.00    +0.000 C 
ATOM     10  O   UNL     1       6.399  18.086  19.130  0.00  0.00    +0.000 OA
ATOM     11  N   UNL     1       6.630  15.848  19.635  0.00  0.00    +0.000 N 
ATOM     12  H   UNL     1       6.151  14.958  19.763  0.00  0.00    +0.000 HD
BRANCH  11  13
ATOM     13  N   UNL     1       8.003  15.863  19.428  0.00  0.00    +0.000 NA
ATOM     14  C   UNL     1       8.501  14.960  18.642  0.00  0.00    +0.000 C 
ATOM     15  C   UNL     1       7.746  13.874  17.871  0.00  0.00    +0.000 C 
ATOM     16  O   UNL     1       6.543  13.727  17.880  0.00  0.00    +0.000 OA
ATOM     17  N   UNL     1       8.707  13.153  17.197  0.00  0.00    +0.000 N 
ATOM     18  C   UNL     1       9.975  13.675  17.437  0.00  0.00    +0.000 A 
ATOM     19  C   UNL     1      11.166  13.214  16.918  0.00  0.00    +0.000 A 
ATOM     20  C   UNL     1      12.332  13.903  17.269  0.00  0.00    +0.000 A 
ATOM     21  C   UNL     1      12.276  15.029  18.122  0.00  0.00    +0.000 A 
ATOM     22  C   UNL     1      11.058  15.472  18.650  0.00  0.00    +0.000 A 
ATOM     23  C   UNL     1       9.917  14.776  18.294  0.00  0.00    +0.000 A 
ATOM     24  H   UNL     1       8.495  12.374  16.594  0.00  0.00    +0.000 HD
ENDBRANCH  11  13
ENDBRANCH   3   9
BRANCH   8  25
ATOM     25  C   UNL     1       0.881  15.753  19.035  0.00  0.00    +0.000 C 
ATOM     26  O   UNL     1       0.198  16.309  18.170  0.00  0.00    +0.000 OA
ATOM     27  N   UNL     1       0.501  14.535  19.610  0.00  0.00    +0.000 N 
ATOM     28  H   UNL     1       1.151  14.040  20.209  0.00  0.00    +0.000 HD
BRANCH  27  29
ATOM     29  N   UNL     1      -0.674  13.882  19.292  0.00  0.00    +0.000 NA
ATOM     30  C   UNL     1      -0.561  12.664  18.854  0.00  0.00    +0.000 C 
ATOM     31  C   UNL     1       0.715  11.827  18.666  0.00  0.00    +0.000 C 
ATOM     32  O   UNL     1       1.828  12.175  18.998  0.00  0.00    +0.000 OA
ATOM     33  N   UNL     1       0.320  10.647  18.081  0.00  0.00    +0.000 N 
ATOM     34  C   UNL     1      -1.060  10.619  17.928  0.00  0.00    +0.000 A 
ATOM     35  C   UNL     1      -1.814   9.588  17.403  0.00  0.00    +0.000 A 
ATOM     36  C   UNL     1      -3.203   9.760  17.380  0.00  0.00    +0.000 A 
ATOM     37  C   UNL     1      -3.795  10.942  17.871  0.00  0.00    +0.000 A 
ATOM     38  C   UNL     1      -3.014  11.984  18.384  0.00  0.00    +0.000 A 
ATOM     39  C   UNL     1      -1.649  11.795  18.399  0.00  0.00    +0.000 A 
ATOM     40  H   UNL     1       0.958   9.900  17.844  0.00  0.00    +0.000 HD
ENDBRANCH  27  29
ENDBRANCH   8  25
TORSDOF 4
ENDMDL
MODEL 5
REMARK VINA RESULT:      -8.1      2.172      3.286
REMARK  Name = 
REMARK  7 active torsions:
REMARK  status: ('A' for Active; 'I' for Inactive)
REMARK    1  A    between atoms: C_1  and  C_2
REMARK    2  A    between atoms: C_3  and  C_4
REMARK    3  A    between atoms: N_6  and  N_7
REMARK    4  A    between atoms: C_18  and  C_19
REMARK    5  A    between atoms: N_20  and  C_21
REMARK    6  A    between atoms: C_22  and  C_23
REMARK    7  A    between atoms: N_25  and  N_26
REMARK                            x       y       z     vdW  Elec       q    Type
REMARK                         _______ _______ _______ _____ _____    ______ ____
ROOT
ATOM      1  C   UNL     1      -0.917  12.475  18.183  0.00  0.00    +0.000 C 
ATOM      2  C   UNL     1      -0.622  11.806  19.489  0.00  0.00    +0.000 A 
ATOM      3  C   UNL     1       0.458  10.876  19.750  0.00  0.00    +0.000 A 
ATOM      4  C   UNL     1       0.293  10.470  21.070  0.00  0.00    +0.000 A 
ATOM      5  C   UNL     1       1.091   9.493  21.878  0.00  0.00    +0.000 C 
ATOM      6  N   UNL     1      -0.784  11.142  21.610  0.00  0.00    +0.000 N 
ATOM      7  C   UNL     1      -1.168  11.022  23.004  0.00  0.00    +0.000 C 
ATOM      8  C   UNL     1      -1.420  11.916  20.648  0.00  0.00    +0.000 A 
ENDROOT
BRANCH   3   9
ATOM      9  C   UNL     1       1.510  10.329  18.858  0.00  0.00    +0.000 C 
ATOM     10  O   UNL     1       2.239  11.077  18.206  0.00  0.00    +0.000 OA
ATOM     11  N   UNL     1       1.568   8.941  18.758  0.00  0.00    +0.000 N 
ATOM     12  H   UNL     1       0.847   8.369  19.196  0.00  0.00    +0.000 HD
BRANCH  11  13
ATOM     13  N   UNL     1       2.485   8.348  17.901  0.00  0.00    +0.000 NA
ATOM     14  C   UNL     1       2.981   7.203  18.254  0.00  0.00    +0.000 C 
ATOM     15  C   UNL     1       2.652   6.389  19.508  0.00  0.00    +0.000 C 
ATOM     16  O   UNL     1       1.844   6.711  20.351  0.00  0.00    +0.000 OA
ATOM     17  N   UNL     1       3.444   5.263  19.446  0.00  0.00    +0.000 N 
ATOM     18  C   UNL     1       4.214   5.265  18.286  0.00  0.00    +0.000 A 
ATOM     19  C   UNL     1       5.109   4.293  17.892  0.00  0.00    +0.000 A 
ATOM     20  C   UNL     1       5.765   4.479  16.670  0.00  0.00    +0.000 A 
ATOM     21  C   UNL     1       5.509   5.622  15.879  0.00  0.00    +0.000 A 
ATOM     22  C   UNL     1       4.608   6.605  16.305  0.00  0.00    +0.000 A 
ATOM     23  C   UNL     1       3.972   6.406  17.517  0.00  0.00    +0.000 A 
ATOM     24  H   UNL     1       3.430   4.535  20.143  0.00  0.00    +0.000 HD
ENDBRANCH  11  13
ENDBRANCH   3   9
BRANCH   8  25
ATOM     25  C   UNL     1      -2.657  12.721  20.808  0.00  0.00    +0.000 C 
ATOM     26  O   UNL     1      -3.760  12.295  20.454  0.00  0.00    +0.000 OA
ATOM     27  N   UNL     1      -2.505  13.971  21.417  0.00  0.00    +0.000 N 
ATOM     28  H   UNL     1      -1.611  14.226  21.822  0.00  0.00    +0.000 HD
BRANCH  27  29
ATOM     29  N   UNL     1      -3.557  14.840  21.634  0.00  0.00    +0.000 NA
ATOM     30  C   UNL     1      -3.546  15.498  22.755  0.00  0.00    +0.000 C 
ATOM     31  C   UNL     1      -2.493  15.464  23.875  0.00  0.00    +0.000 C 
ATOM     32  O   UNL     1      -1.444  14.860  23.824  0.00  0.00    +0.000 OA
ATOM     33  N   UNL     1      -2.985  16.252  24.890  0.00  0.00    +0.000 N 
ATOM     34  C   UNL     1      -4.197  16.821  24.520  0.00  0.00    +0.000 A 
ATOM     35  C   UNL     1      -4.969  17.686  25.269  0.00  0.00    +0.000 A 
ATOM     36  C   UNL     1      -6.142  18.170  24.679  0.00  0.00    +0.000 A 
ATOM     37  C   UNL     1      -6.511  17.780  23.375  0.00  0.00    +0.000 A 
ATOM     38  C   UNL     1      -5.725  16.890  22.635  0.00  0.00    +0.000 A 
ATOM     39  C   UNL     1      -4.574  16.425  23.234  0.00  0.00    +0.000 A 
ATOM     40  H   UNL     1      -2.495  16.414  25.758  0.00  0.00    +0.000 HD
ENDBRANCH  27  29
ENDBRANCH   8  25
TORSDOF 4
ENDMDL
MODEL 6
REMARK VINA RESULT:      -8.1      1.864     11.307
REMARK  Name = 
REMARK  7 active torsions:
REMARK  status: ('A' for Active; 'I' for Inactive)
REMARK    1  A    between atoms: C_1  and  C_2
REMARK    2  A    between atoms: C_3  and  C_4
REMARK    3  A    between atoms: N_6  and  N_7
REMARK    4  A    between atoms: C_18  and  C_19
REMARK    5  A    between atoms: N_20  and  C_21
REMARK    6  A    between atoms: C_22  and  C_23
REMARK    7  A    between atoms: N_25  and  N_26
REMARK                            x       y       z     vdW  Elec       q    Type
REMARK                         _______ _______ _______ _____ _____    ______ ____
ROOT
ATOM      1  C   UNL     1      -0.412  10.047  23.511  0.00  0.00    +0.000 C 
ATOM      2  C   UNL     1      -0.130  10.557  22.132  0.00  0.00    +0.000 A 
ATOM      3  C   UNL     1      -0.213  11.936  21.697  0.00  0.00    +0.000 A 
ATOM      4  C   UNL     1       0.066  11.918  20.334  0.00  0.00    +0.000 A 
ATOM      5  C   UNL     1       0.095  13.044  19.347  0.00  0.00    +0.000 C 
ATOM      6  N   UNL     1       0.356  10.622  19.958  0.00  0.00    +0.000 N 
ATOM      7  C   UNL     1       0.788  10.269  18.619  0.00  0.00    +0.000 C 
ATOM      8  C   UNL     1       0.172   9.744  21.018  0.00  0.00    +0.000 A 
ENDROOT
BRANCH   3   9
ATOM      9  C   UNL     1      -0.596  13.168  22.430  0.00  0.00    +0.000 C 
ATOM     10  O   UNL     1       0.227  14.060  22.642  0.00  0.00    +0.000 OA
ATOM     11  N   UNL     1      -1.901  13.215  22.912  0.00  0.00    +0.000 N 
ATOM     12  H   UNL     1      -2.498  12.391  22.844  0.00  0.00    +0.000 HD
BRANCH  11  13
ATOM     13  N   UNL     1      -2.324  14.306  23.658  0.00  0.00    +0.000 NA
ATOM     14  C   UNL     1      -3.449  14.860  23.326  0.00  0.00    +0.000 C 
ATOM     15  C   UNL     1      -4.407  14.434  22.210  0.00  0.00    +0.000 C 
ATOM     16  O   UNL     1      -4.241  13.480  21.482  0.00  0.00    +0.000 OA
ATOM     17  N   UNL     1      -5.445  15.339  22.238  0.00  0.00    +0.000 N 
ATOM     18  C   UNL     1      -5.262  16.269  23.257  0.00  0.00    +0.000 A 
ATOM     19  C   UNL     1      -6.106  17.308  23.583  0.00  0.00    +0.000 A 
ATOM     20  C   UNL     1      -5.746  18.118  24.667  0.00  0.00    +0.000 A 
ATOM     21  C   UNL     1      -4.559  17.865  25.392  0.00  0.00    +0.000 A 
ATOM     22  C   UNL     1      -3.707  16.813  25.035  0.00  0.00    +0.000 A 
ATOM     23  C   UNL     1      -4.079  16.027  23.959  0.00  0.00    +0.000 A 
ATOM     24  H   UNL     1      -6.235  15.296  21.613  0.00  0.00    +0.000 HD
ENDBRANCH  11  13
ENDBRANCH   3   9
BRANCH   8  25
ATOM     25  C   UNL     1       0.301   8.266  21.000  0.00  0.00    +0.000 C 
ATOM     26  O   UNL     1      -0.671   7.526  21.178  0.00  0.00    +0.000 OA
ATOM     27  N   UNL     1       1.579   7.761  20.733  0.00  0.00    +0.000 N 
ATOM     28  H   UNL     1       2.318   8.394  20.453  0.00  0.00    +0.000 HD
BRANCH  27  29
ATOM     29  N   UNL     1       1.863   6.410  20.686  0.00  0.00    +0.000 NA
ATOM     30  C   UNL     1       2.468   5.980  19.618  0.00  0.00    +0.000 C 
ATOM     31  C   UNL     1       2.942   6.785  18.397  0.00  0.00    +0.000 C 
ATOM     32  O   UNL     1       2.893   7.992  18.298  0.00  0.00    +0.000 OA
ATOM     33  N   UNL     1       3.426   5.866  17.495  0.00  0.00    +0.000 N 
ATOM     34  C   UNL     1       3.363   4.584  18.025  0.00  0.00    +0.000 A 
ATOM     35  C   UNL     1       3.782   3.416  17.421  0.00  0.00    +0.000 A 
ATOM     36  C   UNL     1       3.658   2.234  18.160  0.00  0.00    +0.000 A 
ATOM     37  C   UNL     1       3.123   2.247  19.465  0.00  0.00    +0.000 A 
ATOM     38  C   UNL     1       2.688   3.439  20.056  0.00  0.00    +0.000 A 
ATOM     39  C   UNL     1       2.819   4.592  19.312  0.00  0.00    +0.000 A 
ATOM     40  H   UNL     1       3.810   6.116  16.595  0.00  0.00    +0.000 HD
ENDBRANCH  27  29
ENDBRANCH   8  25
TORSDOF 4
ENDMDL
MODEL 7
REMARK VINA RESULT:      -8.1      2.138      2.754
REMARK  Name = 
REMARK  7 active torsions:
REMARK  status: ('A' for Active; 'I' for Inactive)
REMARK    1  A    between atoms: C_1  and  C_2
REMARK    2  A    between atoms: C_3  and  C_4
REMARK    3  A    between atoms: N_6  and  N_7
REMARK    4  A    between atoms: C_18  and  C_19
REMARK    5  A    between atoms: N_20  and  C_21
REMARK    6  A    between atoms: C_22  and  C_23
REMARK    7  A    between atoms: N_25  and  N_26
REMARK                            x       y       z     vdW  Elec       q    Type
REMARK                         _______ _______ _______ _____ _____    ______ ____
ROOT
ATOM      1  C   UNL     1       1.892  12.676  20.304  0.00  0.00    +0.000 C 
ATOM      2  C   UNL     1       0.601  12.165  19.746  0.00  0.00    +0.000 A 
ATOM      3  C   UNL     1       0.435  11.003  18.897  0.00  0.00    +0.000 A 
ATOM      4  C   UNL     1      -0.918  10.961  18.577  0.00  0.00    +0.000 A 
ATOM      5  C   UNL     1      -1.667  10.001  17.704  0.00  0.00    +0.000 C 
ATOM      6  N   UNL     1      -1.560  11.995  19.227  0.00  0.00    +0.000 N 
ATOM      7  C   UNL     1      -2.999  12.178  19.186  0.00  0.00    +0.000 C 
ATOM      8  C   UNL     1      -0.650  12.804  19.895  0.00  0.00    +0.000 A 
ENDROOT
BRANCH   3   9
ATOM      9  C   UNL     1       1.429  10.050  18.345  0.00  0.00    +0.000 C 
ATOM     10  O   UNL     1       2.028  10.294  17.298  0.00  0.00    +0.000 OA
ATOM     11  N   UNL     1       1.583   8.853  19.041  0.00  0.00    +0.000 N 
ATOM     12  H   UNL     1       0.956   8.631  19.815  0.00  0.00    +0.000 HD
BRANCH  11  13
ATOM     13  N   UNL     1       2.449   7.881  18.562  0.00  0.00    +0.000 NA
ATOM     14  C   UNL     1       2.541   6.775  19.234  0.00  0.00    +0.000 C 
ATOM     15  C   UNL     1       1.772   6.384  20.499  0.00  0.00    +0.000 C 
ATOM     16  O   UNL     1       0.936   7.073  21.042  0.00  0.00    +0.000 OA
ATOM     17  N   UNL     1       2.226   5.131  20.844  0.00  0.00    +0.000 N 
ATOM     18  C   UNL     1       3.173   4.679  19.929  0.00  0.00    +0.000 A 
ATOM     19  C   UNL     1       3.828   3.467  19.955  0.00  0.00    +0.000 A 
ATOM     20  C   UNL     1       4.730   3.199  18.918  0.00  0.00    +0.000 A 
ATOM     21  C   UNL     1       4.948   4.143  17.889  0.00  0.00    +0.000 A 
ATOM     22  C   UNL     1       4.283   5.375  17.890  0.00  0.00    +0.000 A 
ATOM     23  C   UNL     1       3.399   5.623  18.925  0.00  0.00    +0.000 A 
ATOM     24  H   UNL     1       1.883   4.616  21.640  0.00  0.00    +0.000 HD
ENDBRANCH  11  13
ENDBRANCH   3   9
BRANCH   8  25
ATOM     25  C   UNL     1      -0.930  14.056  20.641  0.00  0.00    +0.000 C 
ATOM     26  O   UNL     1      -0.948  15.155  20.082  0.00  0.00    +0.000 OA
ATOM     27  N   UNL     1      -1.210  13.911  22.005  0.00  0.00    +0.000 N 
ATOM     28  H   UNL     1      -1.326  12.984  22.397  0.00  0.00    +0.000 HD
BRANCH  27  29
ATOM     29  N   UNL     1      -1.486  14.979  22.837  0.00  0.00    +0.000 NA
ATOM     30  C   UNL     1      -2.730  15.141  23.181  0.00  0.00    +0.000 C 
ATOM     31  C   UNL     1      -3.947  14.278  22.808  0.00  0.00    +0.000 C 
ATOM     32  O   UNL     1      -3.897  13.238  22.189  0.00  0.00    +0.000 OA
ATOM     33  N   UNL     1      -5.047  14.919  23.329  0.00  0.00    +0.000 N 
ATOM     34  C   UNL     1      -4.661  16.054  24.032  0.00  0.00    +0.000 A 
ATOM     35  C   UNL     1      -5.486  16.929  24.709  0.00  0.00    +0.000 A 
ATOM     36  C   UNL     1      -4.875  17.991  25.385  0.00  0.00    +0.000 A 
ATOM     37  C   UNL     1      -3.474  18.152  25.365  0.00  0.00    +0.000 A 
ATOM     38  C   UNL     1      -2.653  17.264  24.659  0.00  0.00    +0.000 A 
ATOM     39  C   UNL     1      -3.275  16.225  24.000  0.00  0.00    +0.000 A 
ATOM     40  H   UNL     1      -5.991  14.572  23.238  0.00  0.00    +0.000 HD
ENDBRANCH  27  29
ENDBRANCH   8  25
TORSDOF 4
ENDMDL
MODEL 8
REMARK VINA RESULT:      -8.0      1.931     11.528
REMARK  Name = 
REMARK  7 active torsions:
REMARK  status: ('A' for Active; 'I' for Inactive)
REMARK    1  A    between atoms: C_1  and  C_2
REMARK    2  A    between atoms: C_3  and  C_4
REMARK    3  A    between atoms: N_6  and  N_7
REMARK    4  A    between atoms: C_18  and  C_19
REMARK    5  A    between atoms: N_20  and  C_21
REMARK    6  A    between atoms: C_22  and  C_23
REMARK    7  A    between atoms: N_25  and  N_26
REMARK                            x       y       z     vdW  Elec       q    Type
REMARK                         _______ _______ _______ _____ _____    ______ ____
ROOT
ATOM      1  C   UNL     1       0.613  12.335  18.962  0.00  0.00    +0.000 C 
ATOM      2  C   UNL     1       0.419  11.248  19.973  0.00  0.00    +0.000 A 
ATOM      3  C   UNL     1      -0.060  11.417  21.329  0.00  0.00    +0.000 A 
ATOM      4  C   UNL     1      -0.010  10.151  21.905  0.00  0.00    +0.000 A 
ATOM      5  C   UNL     1      -0.353   9.719  23.298  0.00  0.00    +0.000 C 
ATOM      6  N   UNL     1       0.420   9.248  20.956  0.00  0.00    +0.000 N 
ATOM      7  C   UNL     1       0.489   7.820  21.202  0.00  0.00    +0.000 C 
ATOM      8  C   UNL     1       0.767   9.894  19.776  0.00  0.00    +0.000 A 
ENDROOT
BRANCH   3   9
ATOM      9  C   UNL     1      -0.454  12.635  22.079  0.00  0.00    +0.000 C 
ATOM     10  O   UNL     1       0.387  13.465  22.425  0.00  0.00    +0.000 OA
ATOM     11  N   UNL     1      -1.800  12.736  22.419  0.00  0.00    +0.000 N 
ATOM     12  H   UNL     1      -2.429  11.953  22.245  0.00  0.00    +0.000 HD
BRANCH  11  13
ATOM     13  N   UNL     1      -2.244  13.816  23.171  0.00  0.00    +0.000 NA
ATOM     14  C   UNL     1      -3.465  14.214  22.986  0.00  0.00    +0.000 C 
ATOM     15  C   UNL     1      -4.512  13.611  22.046  0.00  0.00    +0.000 C 
ATOM     16  O   UNL     1      -4.336  12.638  21.345  0.00  0.00    +0.000 OA
ATOM     17  N   UNL     1      -5.639  14.389  22.189  0.00  0.00    +0.000 N 
ATOM     18  C   UNL     1      -5.429  15.396  23.126  0.00  0.00    +0.000 A 
ATOM     19  C   UNL     1      -6.341  16.349  23.528  0.00  0.00    +0.000 A 
ATOM     20  C   UNL     1      -5.932  17.260  24.508  0.00  0.00    +0.000 A 
ATOM     21  C   UNL     1      -4.631  17.192  25.059  0.00  0.00    +0.000 A 
ATOM     22  C   UNL     1      -3.715  16.227  24.626  0.00  0.00    +0.000 A 
ATOM     23  C   UNL     1      -4.137  15.337  23.654  0.00  0.00    +0.000 A 
ATOM     24  H   UNL     1      -6.499  14.216  21.692  0.00  0.00    +0.000 HD
ENDBRANCH  11  13
ENDBRANCH   3   9
BRANCH   8  25
ATOM     25  C   UNL     1       1.346   9.289  18.551  0.00  0.00    +0.000 C 
ATOM     26  O   UNL     1       0.741   9.295  17.475  0.00  0.00    +0.000 OA
ATOM     27  N   UNL     1       2.629   8.746  18.678  0.00  0.00    +0.000 N 
ATOM     28  H   UNL     1       3.149   8.885  19.537  0.00  0.00    +0.000 HD
BRANCH  27  29
ATOM     29  N   UNL     1       3.303   8.144  17.633  0.00  0.00    +0.000 NA
ATOM     30  C   UNL     1       3.683   6.914  17.818  0.00  0.00    +0.000 C 
ATOM     31  C   UNL     1       3.458   6.017  19.046  0.00  0.00    +0.000 C 
ATOM     32  O   UNL     1       2.791   6.317  20.013  0.00  0.00    +0.000 OA
ATOM     33  N   UNL     1       4.138   4.847  18.798  0.00  0.00    +0.000 N 
ATOM     34  C   UNL     1       4.720   4.881  17.537  0.00  0.00    +0.000 A 
ATOM     35  C   UNL     1       5.455   3.879  16.937  0.00  0.00    +0.000 A 
ATOM     36  C   UNL     1       5.916   4.115  15.637  0.00  0.00    +0.000 A 
ATOM     37  C   UNL     1       5.637   5.331  14.979  0.00  0.00    +0.000 A 
ATOM     38  C   UNL     1       4.903   6.342  15.608  0.00  0.00    +0.000 A 
ATOM     39  C   UNL     1       4.458   6.090  16.888  0.00  0.00    +0.000 A 
ATOM     40  H   UNL     1       4.161   4.068  19.440  0.00  0.00    +0.000 HD
ENDBRANCH  27  29
ENDBRANCH   8  25
TORSDOF 4
ENDMDL
MODEL 9
REMARK VINA RESULT:      -8.0      1.876      2.686
REMARK  Name = 
REMARK  7 active torsions:
REMARK  status: ('A' for Active; 'I' for Inactive)
REMARK    1  A    between atoms: C_1  and  C_2
REMARK    2  A    between atoms: C_3  and  C_4
REMARK    3  A    between atoms: N_6  and  N_7
REMARK    4  A    between atoms: C_18  and  C_19
REMARK    5  A    between atoms: N_20  and  C_21
REMARK    6  A    between atoms: C_22  and  C_23
REMARK    7  A    between atoms: N_25  and  N_26
REMARK                            x       y       z     vdW  Elec       q    Type
REMARK                         _______ _______ _______ _____ _____    ______ ____
ROOT
ATOM      1  C   UNL     1      -0.590  10.217  23.454  0.00  0.00    +0.000 C 
ATOM      2  C   UNL     1      -0.300  10.613  22.040  0.00  0.00    +0.000 A 
ATOM      3  C   UNL     1       0.063   9.721  20.959  0.00  0.00    +0.000 A 
ATOM      4  C   UNL     1       0.300  10.540  19.859  0.00  0.00    +0.000 A 
ATOM      5  C   UNL     1       0.739  10.179  18.473  0.00  0.00    +0.000 C 
ATOM      6  N   UNL     1       0.050  11.848  20.218  0.00  0.00    +0.000 N 
ATOM      7  C   UNL     1       0.106  12.948  19.274  0.00  0.00    +0.000 C 
ATOM      8  C   UNL     1      -0.248  11.944  21.571  0.00  0.00    +0.000 A 
ENDROOT
BRANCH   3   9
ATOM      9  C   UNL     1       0.263   8.251  20.933  0.00  0.00    +0.000 C 
ATOM     10  O   UNL     1      -0.675   7.481  21.139  0.00  0.00    +0.000 OA
ATOM     11  N   UNL     1       1.571   7.814  20.735  0.00  0.00    +0.000 N 
ATOM     12  H   UNL     1       2.336   8.488  20.722  0.00  0.00    +0.000 HD
BRANCH  11  13
ATOM     13  N   UNL     1       1.856   6.455  20.755  0.00  0.00    +0.000 NA
ATOM     14  C   UNL     1       2.435   5.949  19.711  0.00  0.00    +0.000 C 
ATOM     15  C   UNL     1       2.885   6.682  18.445  0.00  0.00    +0.000 C 
ATOM     16  O   UNL     1       2.770   7.873  18.256  0.00  0.00    +0.000 OA
ATOM     17  N   UNL     1       3.426   5.718  17.623  0.00  0.00    +0.000 N 
ATOM     18  C   UNL     1       3.391   4.469  18.237  0.00  0.00    +0.000 A 
ATOM     19  C   UNL     1       3.856   3.282  17.713  0.00  0.00    +0.000 A 
ATOM     20  C   UNL     1       3.746   2.137  18.512  0.00  0.00    +0.000 A 
ATOM     21  C   UNL     1       3.180   2.212  19.805  0.00  0.00    +0.000 A 
ATOM     22  C   UNL     1       2.700   3.425  20.312  0.00  0.00    +0.000 A 
ATOM     23  C   UNL     1       2.814   4.543  19.507  0.00  0.00    +0.000 A 
ATOM     24  H   UNL     1       3.816   5.917  16.715  0.00  0.00    +0.000 HD
ENDBRANCH  11  13
ENDBRANCH   3   9
BRANCH   8  25
ATOM     25  C   UNL     1      -0.497  13.179  22.357  0.00  0.00    +0.000 C 
ATOM     26  O   UNL     1       0.375  14.037  22.513  0.00  0.00    +0.000 OA
ATOM     27  N   UNL     1      -1.788  13.329  22.876  0.00  0.00    +0.000 N 
ATOM     28  H   UNL     1      -2.515  12.676  22.608  0.00  0.00    +0.000 HD
BRANCH  27  29
ATOM     29  N   UNL     1      -2.177  14.419  23.631  0.00  0.00    +0.000 NA
ATOM     30  C   UNL     1      -3.379  14.869  23.426  0.00  0.00    +0.000 C 
ATOM     31  C   UNL     1      -4.453  14.331  22.466  0.00  0.00    +0.000 C 
ATOM     32  O   UNL     1      -4.351  13.319  21.807  0.00  0.00    +0.000 OA
ATOM     33  N   UNL     1      -5.509  15.209  22.538  0.00  0.00    +0.000 N 
ATOM     34  C   UNL     1      -5.250  16.206  23.469  0.00  0.00    +0.000 A 
ATOM     35  C   UNL     1      -6.088  17.243  23.828  0.00  0.00    +0.000 A 
ATOM     36  C   UNL     1      -5.634  18.116  24.823  0.00  0.00    +0.000 A 
ATOM     37  C   UNL     1      -4.372  17.936  25.425  0.00  0.00    +0.000 A 
ATOM     38  C   UNL     1      -3.528  16.889  25.038  0.00  0.00    +0.000 A 
ATOM     39  C   UNL     1      -3.993  16.040  24.056  0.00  0.00    +0.000 A 
ATOM     40  H   UNL     1      -6.363  15.100  22.010  0.00  0.00    +0.000 HD
ENDBRANCH  27  29
ENDBRANCH   8  25
TORSDOF 4
ENDMDL
