MODEL 1
REMARK VINA RESULT:      -7.7      0.000      0.000
REMARK  Name = 
REMARK  6 active torsions:
REMARK  status: ('A' for Active; 'I' for Inactive)
REMARK    1  A    between atoms: C_1  and  C_2
REMARK    2  A    between atoms: C_2  and  O_3
REMARK    3  A    between atoms: O_3  and  C_4
REMARK    4  A    between atoms: C_10  and  C_12
REMARK    5  A    between atoms: C_12  and  N_13
REMARK    6  A    between atoms: N_13  and  C_14
REMARK                            x       y       z     vdW  Elec       q    Type
REMARK                         _______ _______ _______ _____ _____    ______ ____
ROOT
ATOM      1  C   UNL     1       6.198   3.951  13.141  0.00  0.00    +0.000 C 
ATOM      2  O   UNL     1       7.046   4.311  12.334  0.00  0.00    +0.000 OA
ATOM      3  N   UNL     1       6.303   4.123  14.504  0.00  0.00    +0.000 N 
ATOM      4  C   UNL     1       7.470   4.799  15.083  0.00  0.00    +0.000 C 
ATOM      5  C   UNL     1       7.065   5.871  16.113  0.00  0.00    +0.000 C 
ATOM      6  N   UNL     1       6.071   5.351  17.062  0.00  0.00    +0.000 N 
ATOM      7  C   UNL     1       6.250   5.504  18.443  0.00  0.00    +0.000 C 
ATOM      8  O   UNL     1       7.226   6.084  18.922  0.00  0.00    +0.000 OA
ATOM      9  C   UNL     1       4.889   4.752  16.426  0.00  0.00    +0.000 C 
ATOM     10  C   UNL     1       5.304   3.639  15.456  0.00  0.00    +0.000 C 
ENDROOT
BRANCH   1  11
ATOM     11  O   UNL     1       5.000   3.411  12.791  0.00  0.00    +0.000 OA
BRANCH  11  13
ATOM     12  C   UNL     1       3.714   3.341  10.775  0.00  0.00    +0.000 C 
ATOM     13  C   UNL     1       4.945   2.811  11.491  0.00  0.00    +0.000 C 
ENDBRANCH  11  13
ENDBRANCH   1  11
BRANCH   7  14
ATOM     14  C   UNL     1       5.112   4.940  19.301  0.00  0.00    +0.000 C 
BRANCH  14  15
ATOM     15  N   UNL     1       4.099   5.919  19.723  0.00  0.00    +0.000 NA
ATOM     16  H   UNL     1       4.279   6.817  19.272  0.00  0.00    +0.000 HD
BRANCH  15  17
ATOM     17  C   UNL     1       2.716   5.445  19.488  0.00  0.00    +0.000 C 
ATOM     18  C   UNL     1       2.769   4.244  18.522  0.00  0.00    +0.000 C 
ATOM     19  C   UNL     1       1.416   3.676  18.070  0.00  0.00    +0.000 C 
ATOM     20  C   UNL     1       0.527   2.936  19.079  0.00  0.00    +0.000 C 
ATOM     21  C   UNL     1       1.243   2.077  20.123  0.00  0.00    +0.000 C 
ATOM     22  C   UNL     1       1.418   2.743  21.491  0.00  0.00    +0.000 C 
ATOM     23  C   UNL     1       2.398   3.913  21.548  0.00  0.00    +0.000 C 
ATOM     24  C   UNL     1       1.924   5.147  20.778  0.00  0.00    +0.000 C 
ENDBRANCH  15  17
ENDBRANCH  14  15
ENDBRANCH   7  14
TORSDOF 5
ENDMDL
MODEL 2
REMARK VINA RESULT:      -7.6      1.098      1.873
REMARK  Name = 
REMARK  6 active torsions:
REMARK  status: ('A' for Active; 'I' for Inactive)
REMARK    1  A    between atoms: C_1  and  C_2
REMARK    2  A    between atoms: C_2  and  O_3
REMARK    3  A    between atoms: O_3  and  C_4
REMARK    4  A    between atoms: C_10  and  C_12
REMARK    5  A    between atoms: C_12  and  N_13
REMARK    6  A    between atoms: N_13  and  C_14
REMARK                            x       y       z     vdW  Elec       q    Type
REMARK                         _______ _______ _______ _____ _____    ______ ____
ROOT
ATOM      1  C   UNL     1       6.222   3.916  13.071  0.00  0.00    +0.000 C 
ATOM      2  O   UNL     1       6.993   4.330  12.215  0.00  0.00    +0.000 OA
ATOM      3  N   UNL     1       6.387   4.111  14.424  0.00  0.00    +0.000 N 
ATOM      4  C   UNL     1       7.529   4.881  14.933  0.00  0.00    +0.000 C 
ATOM      5  C   UNL     1       7.098   5.931  15.975  0.00  0.00    +0.000 C 
ATOM      6  N   UNL     1       6.201   5.349  16.981  0.00  0.00    +0.000 N 
ATOM      7  C   UNL     1       6.443   5.532  18.350  0.00  0.00    +0.000 C 
ATOM      8  O   UNL     1       7.396   6.191  18.769  0.00  0.00    +0.000 OA
ATOM      9  C   UNL     1       5.036   4.653  16.417  0.00  0.00    +0.000 C 
ATOM     10  C   UNL     1       5.482   3.564  15.434  0.00  0.00    +0.000 C 
ENDROOT
BRANCH   1  11
ATOM     11  O   UNL     1       5.051   3.282  12.792  0.00  0.00    +0.000 OA
BRANCH  11  13
ATOM     12  C   UNL     1       3.731   3.281  10.797  0.00  0.00    +0.000 C 
ATOM     13  C   UNL     1       4.955   2.701  11.485  0.00  0.00    +0.000 C 
ENDBRANCH  11  13
ENDBRANCH   1  11
BRANCH   7  14
ATOM     14  C   UNL     1       5.400   4.893  19.274  0.00  0.00    +0.000 C 
BRANCH  14  15
ATOM     15  N   UNL     1       5.421   3.424  19.324  0.00  0.00    +0.000 NA
ATOM     16  H   UNL     1       6.313   3.106  19.705  0.00  0.00    +0.000 HD
BRANCH  15  17
ATOM     17  C   UNL     1       4.267   2.862  20.063  0.00  0.00    +0.000 C 
ATOM     18  C   UNL     1       3.382   4.029  20.546  0.00  0.00    +0.000 C 
ATOM     19  C   UNL     1       2.185   3.652  21.429  0.00  0.00    +0.000 C 
ATOM     20  C   UNL     1       0.999   2.892  20.818  0.00  0.00    +0.000 C 
ATOM     21  C   UNL     1       0.621   3.253  19.381  0.00  0.00    +0.000 C 
ATOM     22  C   UNL     1       1.165   2.298  18.315  0.00  0.00    +0.000 C 
ATOM     23  C   UNL     1       2.676   2.328  18.095  0.00  0.00    +0.000 C 
ATOM     24  C   UNL     1       3.479   1.791  19.281  0.00  0.00    +0.000 C 
ENDBRANCH  15  17
ENDBRANCH  14  15
ENDBRANCH   7  14
TORSDOF 5
ENDMDL
MODEL 3
REMARK VINA RESULT:      -7.4      3.264      6.486
REMARK  Name = 
REMARK  6 active torsions:
REMARK  status: ('A' for Active; 'I' for Inactive)
REMARK    1  A    between atoms: C_1  and  C_2
REMARK    2  A    between atoms: C_2  and  O_3
REMARK    3  A    between atoms: O_3  and  C_4
REMARK    4  A    between atoms: C_10  and  C_12
REMARK    5  A    between atoms: C_12  and  N_13
REMARK    6  A    between atoms: N_13  and  C_14
REMARK                            x       y       z     vdW  Elec       q    Type
REMARK                         _______ _______ _______ _____ _____    ______ ____
ROOT
ATOM      1  C   UNL     1       1.309   8.899  19.810  0.00  0.00    +0.000 C 
ATOM      2  O   UNL     1       0.929   9.969  19.354  0.00  0.00    +0.000 OA
ATOM      3  N   UNL     1       1.972   7.936  19.080  0.00  0.00    +0.000 N 
ATOM      4  C   UNL     1       2.296   8.164  17.667  0.00  0.00    +0.000 C 
ATOM      5  C   UNL     1       3.761   7.811  17.347  0.00  0.00    +0.000 C 
ATOM      6  N   UNL     1       4.129   6.501  17.900  0.00  0.00    +0.000 N 
ATOM      7  C   UNL     1       4.754   5.534  17.101  0.00  0.00    +0.000 C 
ATOM      8  O   UNL     1       5.036   5.737  15.919  0.00  0.00    +0.000 OA
ATOM      9  C   UNL     1       3.849   6.355  19.336  0.00  0.00    +0.000 C 
ATOM     10  C   UNL     1       2.371   6.642  19.630  0.00  0.00    +0.000 C 
ENDROOT
BRANCH   1  11
ATOM     11  O   UNL     1       1.203   8.553  21.121  0.00  0.00    +0.000 OA
BRANCH  11  13
ATOM     12  C   UNL     1       0.179   9.472  23.079  0.00  0.00    +0.000 C 
ATOM     13  C   UNL     1      -0.068   8.814  21.731  0.00  0.00    +0.000 C 
ENDBRANCH  11  13
ENDBRANCH   1  11
BRANCH   7  14
ATOM     14  C   UNL     1       5.106   4.232  17.830  0.00  0.00    +0.000 C 
BRANCH  14  15
ATOM     15  N   UNL     1       4.417   3.031  17.337  0.00  0.00    +0.000 NA
ATOM     16  H   UNL     1       5.073   2.446  16.818  0.00  0.00    +0.000 HD
BRANCH  15  17
ATOM     17  C   UNL     1       3.735   2.281  18.417  0.00  0.00    +0.000 C 
ATOM     18  C   UNL     1       4.071   2.952  19.765  0.00  0.00    +0.000 C 
ATOM     19  C   UNL     1       3.540   2.252  21.023  0.00  0.00    +0.000 C 
ATOM     20  C   UNL     1       2.032   2.239  21.307  0.00  0.00    +0.000 C 
ATOM     21  C   UNL     1       1.251   3.496  20.921  0.00  0.00    +0.000 C 
ATOM     22  C   UNL     1       0.514   3.407  19.581  0.00  0.00    +0.000 C 
ATOM     23  C   UNL     1       1.393   3.375  18.332  0.00  0.00    +0.000 C 
ATOM     24  C   UNL     1       2.220   2.095  18.197  0.00  0.00    +0.000 C 
ENDBRANCH  15  17
ENDBRANCH  14  15
ENDBRANCH   7  14
TORSDOF 5
ENDMDL
MODEL 4
REMARK VINA RESULT:      -7.1      2.995      5.136
REMARK  Name = 
REMARK  6 active torsions:
REMARK  status: ('A' for Active; 'I' for Inactive)
REMARK    1  A    between atoms: C_1  and  C_2
REMARK    2  A    between atoms: C_2  and  O_3
REMARK    3  A    between atoms: O_3  and  C_4
REMARK    4  A    between atoms: C_10  and  C_12
REMARK    5  A    between atoms: C_12  and  N_13
REMARK    6  A    between atoms: N_13  and  C_14
REMARK                            x       y       z     vdW  Elec       q    Type
REMARK                         _______ _______ _______ _____ _____    ______ ____
ROOT
ATOM      1  C   UNL     1       6.979   5.279  16.541  0.00  0.00    +0.000 C 
ATOM      2  O   UNL     1       7.315   4.683  15.526  0.00  0.00    +0.000 OA
ATOM      3  N   UNL     1       5.779   5.088  17.190  0.00  0.00    +0.000 N 
ATOM      4  C   UNL     1       4.811   4.102  16.695  0.00  0.00    +0.000 C 
ATOM      5  C   UNL     1       4.278   3.199  17.824  0.00  0.00    +0.000 C 
ATOM      6  N   UNL     1       3.866   3.990  18.991  0.00  0.00    +0.000 N 
ATOM      7  C   UNL     1       2.611   3.796  19.583  0.00  0.00    +0.000 C 
ATOM      8  O   UNL     1       1.809   2.956  19.170  0.00  0.00    +0.000 OA
ATOM      9  C   UNL     1       4.901   4.908  19.489  0.00  0.00    +0.000 C 
ATOM     10  C   UNL     1       5.372   5.847  18.372  0.00  0.00    +0.000 C 
ENDROOT
BRANCH   1  11
ATOM     11  O   UNL     1       7.783   6.146  17.213  0.00  0.00    +0.000 OA
BRANCH  11  13
ATOM     12  C   UNL     1       8.198   8.330  18.096  0.00  0.00    +0.000 C 
ATOM     13  C   UNL     1       7.519   7.537  16.992  0.00  0.00    +0.000 C 
ENDBRANCH  11  13
ENDBRANCH   1  11
BRANCH   7  14
ATOM     14  C   UNL     1       2.342   4.672  20.812  0.00  0.00    +0.000 C 
BRANCH  14  15
ATOM     15  N   UNL     1       1.391   5.773  20.602  0.00  0.00    +0.000 NA
ATOM     16  H   UNL     1       0.858   5.935  21.457  0.00  0.00    +0.000 HD
BRANCH  15  17
ATOM     17  C   UNL     1       2.047   7.007  20.113  0.00  0.00    +0.000 C 
ATOM     18  C   UNL     1       1.842   7.096  18.586  0.00  0.00    +0.000 C 
ATOM     19  C   UNL     1       2.546   8.259  17.874  0.00  0.00    +0.000 C 
ATOM     20  C   UNL     1       2.064   9.697  18.109  0.00  0.00    +0.000 C 
ATOM     21  C   UNL     1       0.558   9.897  18.282  0.00  0.00    +0.000 C 
ATOM     22  C   UNL     1       0.088  10.011  19.736  0.00  0.00    +0.000 C 
ATOM     23  C   UNL     1       0.179   8.736  20.573  0.00  0.00    +0.000 C 
ATOM     24  C   UNL     1       1.614   8.289  20.854  0.00  0.00    +0.000 C 
ENDBRANCH  15  17
ENDBRANCH  14  15
ENDBRANCH   7  14
TORSDOF 5
ENDMDL
MODEL 5
REMARK VINA RESULT:      -7.0      1.008      1.311
REMARK  Name = 
REMARK  6 active torsions:
REMARK  status: ('A' for Active; 'I' for Inactive)
REMARK    1  A    between atoms: C_1  and  C_2
REMARK    2  A    between atoms: C_2  and  O_3
REMARK    3  A    between atoms: O_3  and  C_4
REMARK    4  A    between atoms: C_10  and  C_12
REMARK    5  A    between atoms: C_12  and  N_13
REMARK    6  A    between atoms: N_13  and  C_14
REMARK                            x       y       z     vdW  Elec       q    Type
REMARK                         _______ _______ _______ _____ _____    ______ ____
ROOT
ATOM      1  C   UNL     1       6.079   3.888  12.807  0.00  0.00    +0.000 C 
ATOM      2  O   UNL     1       6.915   4.047  11.927  0.00  0.00    +0.000 OA
ATOM      3  N   UNL     1       6.309   4.117  14.145  0.00  0.00    +0.000 N 
ATOM      4  C   UNL     1       7.614   4.610  14.604  0.00  0.00    +0.000 C 
ATOM      5  C   UNL     1       7.473   5.793  15.580  0.00  0.00    +0.000 C 
ATOM      6  N   UNL     1       6.476   5.512  16.622  0.00  0.00    +0.000 N 
ATOM      7  C   UNL     1       6.779   5.710  17.976  0.00  0.00    +0.000 C 
ATOM      8  O   UNL     1       7.872   6.137  18.353  0.00  0.00    +0.000 OA
ATOM      9  C   UNL     1       5.167   5.093  16.102  0.00  0.00    +0.000 C 
ATOM     10  C   UNL     1       5.314   3.871  15.188  0.00  0.00    +0.000 C 
ENDROOT
BRANCH   1  11
ATOM     11  O   UNL     1       4.784   3.547  12.569  0.00  0.00    +0.000 OA
BRANCH  11  13
ATOM     12  C   UNL     1       3.492   3.653  10.558  0.00  0.00    +0.000 C 
ATOM     13  C   UNL     1       4.537   2.867  11.332  0.00  0.00    +0.000 C 
ENDBRANCH  11  13
ENDBRANCH   1  11
BRANCH   7  14
ATOM     14  C   UNL     1       5.626   5.405  18.939  0.00  0.00    +0.000 C 
BRANCH  14  15
ATOM     15  N   UNL     1       5.319   3.979  19.119  0.00  0.00    +0.000 NA
ATOM     16  H   UNL     1       5.463   3.716  20.094  0.00  0.00    +0.000 HD
BRANCH  15  17
ATOM     17  C   UNL     1       3.963   3.623  18.640  0.00  0.00    +0.000 C 
ATOM     18  C   UNL     1       3.549   2.289  19.295  0.00  0.00    +0.000 C 
ATOM     19  C   UNL     1       2.209   1.696  18.838  0.00  0.00    +0.000 C 
ATOM     20  C   UNL     1       0.898   2.392  19.226  0.00  0.00    +0.000 C 
ATOM     21  C   UNL     1       0.849   3.041  20.610  0.00  0.00    +0.000 C 
ATOM     22  C   UNL     1       1.097   4.552  20.621  0.00  0.00    +0.000 C 
ATOM     23  C   UNL     1       2.517   5.002  20.282  0.00  0.00    +0.000 C 
ATOM     24  C   UNL     1       2.914   4.738  18.829  0.00  0.00    +0.000 C 
ENDBRANCH  15  17
ENDBRANCH  14  15
ENDBRANCH   7  14
TORSDOF 5
ENDMDL
MODEL 6
REMARK VINA RESULT:      -6.9      3.944      5.452
REMARK  Name = 
REMARK  6 active torsions:
REMARK  status: ('A' for Active; 'I' for Inactive)
REMARK    1  A    between atoms: C_1  and  C_2
REMARK    2  A    between atoms: C_2  and  O_3
REMARK    3  A    between atoms: O_3  and  C_4
REMARK    4  A    between atoms: C_10  and  C_12
REMARK    5  A    between atoms: C_12  and  N_13
REMARK    6  A    between atoms: N_13  and  C_14
REMARK                            x       y       z     vdW  Elec       q    Type
REMARK                         _______ _______ _______ _____ _____    ______ ____
ROOT
ATOM      1  C   UNL     1       7.049   4.888  16.338  0.00  0.00    +0.000 C 
ATOM      2  O   UNL     1       7.923   4.120  16.720  0.00  0.00    +0.000 OA
ATOM      3  N   UNL     1       5.860   5.101  17.000  0.00  0.00    +0.000 N 
ATOM      4  C   UNL     1       5.576   4.410  18.264  0.00  0.00    +0.000 C 
ATOM      5  C   UNL     1       5.051   5.376  19.344  0.00  0.00    +0.000 C 
ATOM      6  N   UNL     1       3.986   6.240  18.816  0.00  0.00    +0.000 N 
ATOM      7  C   UNL     1       2.771   6.380  19.501  0.00  0.00    +0.000 C 
ATOM      8  O   UNL     1       2.545   5.808  20.568  0.00  0.00    +0.000 OA
ATOM      9  C   UNL     1       4.352   6.962  17.590  0.00  0.00    +0.000 C 
ATOM     10  C   UNL     1       4.807   5.983  16.501  0.00  0.00    +0.000 C 
ENDROOT
BRANCH   1  11
ATOM     11  O   UNL     1       7.175   5.699  15.254  0.00  0.00    +0.000 OA
BRANCH  11  13
ATOM     12  C   UNL     1       6.292   4.110  13.700  0.00  0.00    +0.000 C 
ATOM     13  C   UNL     1       7.453   5.039  14.013  0.00  0.00    +0.000 C 
ENDBRANCH  11  13
ENDBRANCH   1  11
BRANCH   7  14
ATOM     14  C   UNL     1       1.775   7.341  18.842  0.00  0.00    +0.000 C 
BRANCH  14  15
ATOM     15  N   UNL     1       1.719   8.688  19.430  0.00  0.00    +0.000 NA
ATOM     16  H   UNL     1       1.687   9.387  18.687  0.00  0.00    +0.000 HD
BRANCH  15  17
ATOM     17  C   UNL     1       0.603   8.844  20.391  0.00  0.00    +0.000 C 
ATOM     18  C   UNL     1       1.184   9.307  21.743  0.00  0.00    +0.000 C 
ATOM     19  C   UNL     1       0.189   9.423  22.905  0.00  0.00    +0.000 C 
ATOM     20  C   UNL     1      -0.876  10.528  22.887  0.00  0.00    +0.000 C 
ATOM     21  C   UNL     1      -0.458  11.873  22.292  0.00  0.00    +0.000 C 
ATOM     22  C   UNL     1      -0.890  12.095  20.840  0.00  0.00    +0.000 C 
ATOM     23  C   UNL     1      -0.190  11.232  19.792  0.00  0.00    +0.000 C 
ATOM     24  C   UNL     1      -0.542   9.747  19.887  0.00  0.00    +0.000 C 
ENDBRANCH  15  17
ENDBRANCH  14  15
ENDBRANCH   7  14
TORSDOF 5
ENDMDL
MODEL 7
REMARK VINA RESULT:      -6.8      6.009      9.272
REMARK  Name = 
REMARK  6 active torsions:
REMARK  status: ('A' for Active; 'I' for Inactive)
REMARK    1  A    between atoms: C_1  and  C_2
REMARK    2  A    between atoms: C_2  and  O_3
REMARK    3  A    between atoms: O_3  and  C_4
REMARK    4  A    between atoms: C_10  and  C_12
REMARK    5  A    between atoms: C_12  and  N_13
REMARK    6  A    between atoms: N_13  and  C_14
REMARK                            x       y       z     vdW  Elec       q    Type
REMARK                         _______ _______ _______ _____ _____    ______ ____
ROOT
ATOM      1  C   UNL     1      -1.707  12.552  21.004  0.00  0.00    +0.000 C 
ATOM      2  O   UNL     1      -2.097  13.568  20.444  0.00  0.00    +0.000 OA
ATOM      3  N   UNL     1      -1.041  11.526  20.373  0.00  0.00    +0.000 N 
ATOM      4  C   UNL     1      -0.725  11.610  18.941  0.00  0.00    +0.000 C 
ATOM      5  C   UNL     1       0.741  11.236  18.650  0.00  0.00    +0.000 C 
ATOM      6  N   UNL     1       1.121   9.992  19.332  0.00  0.00    +0.000 N 
ATOM      7  C   UNL     1       1.749   8.954  18.631  0.00  0.00    +0.000 C 
ATOM      8  O   UNL     1       2.023   9.037  17.432  0.00  0.00    +0.000 OA
ATOM      9  C   UNL     1       0.849   9.991  20.776  0.00  0.00    +0.000 C 
ATOM     10  C   UNL     1      -0.629  10.296  21.048  0.00  0.00    +0.000 C 
ENDROOT
BRANCH   1  11
ATOM     11  O   UNL     1      -1.804  12.342  22.345  0.00  0.00    +0.000 OA
BRANCH  11  13
ATOM     12  C   UNL     1      -3.173  13.433  23.975  0.00  0.00    +0.000 C 
ATOM     13  C   UNL     1      -3.131  12.376  22.884  0.00  0.00    +0.000 C 
ENDBRANCH  11  13
ENDBRANCH   1  11
BRANCH   7  14
ATOM     14  C   UNL     1       2.114   7.735  19.487  0.00  0.00    +0.000 C 
BRANCH  14  15
ATOM     15  N   UNL     1       2.983   6.746  18.833  0.00  0.00    +0.000 NA
ATOM     16  H   UNL     1       3.912   7.144  18.692  0.00  0.00    +0.000 HD
BRANCH  15  17
ATOM     17  C   UNL     1       3.033   5.459  19.564  0.00  0.00    +0.000 C 
ATOM     18  C   UNL     1       1.615   5.134  20.078  0.00  0.00    +0.000 C 
ATOM     19  C   UNL     1       1.482   3.884  20.958  0.00  0.00    +0.000 C 
ATOM     20  C   UNL     1       1.667   2.493  20.335  0.00  0.00    +0.000 C 
ATOM     21  C   UNL     1       1.149   2.306  18.908  0.00  0.00    +0.000 C 
ATOM     22  C   UNL     1       2.219   2.411  17.817  0.00  0.00    +0.000 C 
ATOM     23  C   UNL     1       2.814   3.800  17.591  0.00  0.00    +0.000 C 
ATOM     24  C   UNL     1       3.662   4.302  18.761  0.00  0.00    +0.000 C 
ENDBRANCH  15  17
ENDBRANCH  14  15
ENDBRANCH   7  14
TORSDOF 5
ENDMDL
MODEL 8
REMARK VINA RESULT:      -6.6      1.233      1.536
REMARK  Name = 
REMARK  6 active torsions:
REMARK  status: ('A' for Active; 'I' for Inactive)
REMARK    1  A    between atoms: C_1  and  C_2
REMARK    2  A    between atoms: C_2  and  O_3
REMARK    3  A    between atoms: O_3  and  C_4
REMARK    4  A    between atoms: C_10  and  C_12
REMARK    5  A    between atoms: C_12  and  N_13
REMARK    6  A    between atoms: N_13  and  C_14
REMARK                            x       y       z     vdW  Elec       q    Type
REMARK                         _______ _______ _______ _____ _____    ______ ____
ROOT
ATOM      1  C   UNL     1       5.886   3.648  12.748  0.00  0.00    +0.000 C 
ATOM      2  O   UNL     1       6.844   3.298  12.072  0.00  0.00    +0.000 OA
ATOM      3  N   UNL     1       5.966   4.019  14.073  0.00  0.00    +0.000 N 
ATOM      4  C   UNL     1       7.261   4.041  14.764  0.00  0.00    +0.000 C 
ATOM      5  C   UNL     1       7.472   5.348  15.552  0.00  0.00    +0.000 C 
ATOM      6  N   UNL     1       6.292   5.681  16.361  0.00  0.00    +0.000 N 
ATOM      7  C   UNL     1       6.421   5.999  17.720  0.00  0.00    +0.000 C 
ATOM      8  O   UNL     1       7.513   6.029  18.290  0.00  0.00    +0.000 OA
ATOM      9  C   UNL     1       5.034   5.716  15.602  0.00  0.00    +0.000 C 
ATOM     10  C   UNL     1       4.802   4.384  14.879  0.00  0.00    +0.000 C 
ENDROOT
BRANCH   1  11
ATOM     11  O   UNL     1       4.627   3.801  12.257  0.00  0.00    +0.000 OA
BRANCH  11  13
ATOM     12  C   UNL     1       3.318   3.626  10.262  0.00  0.00    +0.000 C 
ATOM     13  C   UNL     1       4.254   2.896  11.210  0.00  0.00    +0.000 C 
ENDBRANCH  11  13
ENDBRANCH   1  11
BRANCH   7  14
ATOM     14  C   UNL     1       5.104   6.357  18.419  0.00  0.00    +0.000 C 
BRANCH  14  15
ATOM     15  N   UNL     1       4.861   5.664  19.692  0.00  0.00    +0.000 NA
ATOM     16  H   UNL     1       4.962   6.321  20.467  0.00  0.00    +0.000 HD
BRANCH  15  17
ATOM     17  C   UNL     1       3.556   4.965  19.721  0.00  0.00    +0.000 C 
ATOM     18  C   UNL     1       2.911   5.078  18.324  0.00  0.00    +0.000 C 
ATOM     19  C   UNL     1       1.495   4.504  18.182  0.00  0.00    +0.000 C 
ATOM     20  C   UNL     1       1.280   2.986  18.253  0.00  0.00    +0.000 C 
ATOM     21  C   UNL     1       2.369   2.109  17.635  0.00  0.00    +0.000 C 
ATOM     22  C   UNL     1       3.374   1.531  18.637  0.00  0.00    +0.000 C 
ATOM     23  C   UNL     1       4.325   2.534  19.288  0.00  0.00    +0.000 C 
ATOM     24  C   UNL     1       3.629   3.513  20.235  0.00  0.00    +0.000 C 
ENDBRANCH  15  17
ENDBRANCH  14  15
ENDBRANCH   7  14
TORSDOF 5
ENDMDL
MODEL 9
REMARK VINA RESULT:      -6.6      4.642      8.240
REMARK  Name = 
REMARK  6 active torsions:
REMARK  status: ('A' for Active; 'I' for Inactive)
REMARK    1  A    between atoms: C_1  and  C_2
REMARK    2  A    between atoms: C_2  and  O_3
REMARK    3  A    between atoms: O_3  and  C_4
REMARK    4  A    between atoms: C_10  and  C_12
REMARK    5  A    between atoms: C_12  and  N_13
REMARK    6  A    between atoms: N_13  and  C_14
REMARK                            x       y       z     vdW  Elec       q    Type
REMARK                         _______ _______ _______ _____ _____    ______ ____
ROOT
ATOM      1  C   UNL     1       3.200   3.631  18.723  0.00  0.00    +0.000 C 
ATOM      2  O   UNL     1       2.751   2.725  18.033  0.00  0.00    +0.000 OA
ATOM      3  N   UNL     1       4.361   4.318  18.443  0.00  0.00    +0.000 N 
ATOM      4  C   UNL     1       5.139   4.006  17.238  0.00  0.00    +0.000 C 
ATOM      5  C   UNL     1       5.531   5.276  16.459  0.00  0.00    +0.000 C 
ATOM      6  N   UNL     1       6.089   6.300  17.352  0.00  0.00    +0.000 N 
ATOM      7  C   UNL     1       7.303   6.931  17.049  0.00  0.00    +0.000 C 
ATOM      8  O   UNL     1       7.945   6.674  16.030  0.00  0.00    +0.000 OA
ATOM      9  C   UNL     1       5.233   6.625  18.502  0.00  0.00    +0.000 C 
ATOM     10  C   UNL     1       4.908   5.361  19.308  0.00  0.00    +0.000 C 
ENDROOT
BRANCH   1  11
ATOM     11  O   UNL     1       2.564   4.139  19.813  0.00  0.00    +0.000 OA
BRANCH  11  13
ATOM     12  C   UNL     1       1.164   2.782  21.199  0.00  0.00    +0.000 C 
ATOM     13  C   UNL     1       2.573   3.308  20.980  0.00  0.00    +0.000 C 
ENDBRANCH  11  13
ENDBRANCH   1  11
BRANCH   7  14
ATOM     14  C   UNL     1       7.736   8.001  18.059  0.00  0.00    +0.000 C 
BRANCH  14  15
ATOM     15  N   UNL     1       8.389   9.184  17.480  0.00  0.00    +0.000 NA
ATOM     16  H   UNL     1       7.919   9.446  16.613  0.00  0.00    +0.000 HD
BRANCH  15  17
ATOM     17  C   UNL     1       8.471  10.314  18.434  0.00  0.00    +0.000 C 
ATOM     18  C   UNL     1       9.172   9.820  19.716  0.00  0.00    +0.000 C 
ATOM     19  C   UNL     1       9.257  10.825  20.873  0.00  0.00    +0.000 C 
ATOM     20  C   UNL     1      10.166  12.055  20.746  0.00  0.00    +0.000 C 
ATOM     21  C   UNL     1      11.485  11.859  19.997  0.00  0.00    +0.000 C 
ATOM     22  C   UNL     1      11.467  12.316  18.535  0.00  0.00    +0.000 C 
ATOM     23  C   UNL     1      10.615  11.481  17.581  0.00  0.00    +0.000 C 
ATOM     24  C   UNL     1       9.113  11.588  17.848  0.00  0.00    +0.000 C 
ENDBRANCH  15  17
ENDBRANCH  14  15
ENDBRANCH   7  14
TORSDOF 5
ENDMDL
