MODEL 1
REMARK VINA RESULT:      -7.5      0.000      0.000
REMARK  Name = 
REMARK  10 active torsions:
REMARK  status: ('A' for Active; 'I' for Inactive)
REMARK    1  A    between atoms: C_2  and  C_3
REMARK    2  A    between atoms: C_3  and  C_4
REMARK    3  A    between atoms: N_7  and  C_8
REMARK    4  A    between atoms: C_8  and  C_9
REMARK    5  A    between atoms: C_9  and  N_10
REMARK    6  A    between atoms: N_10  and  C_11
REMARK    7  A    between atoms: C_11  and  C_12
REMARK    8  A    between atoms: C_15  and  C_16
REMARK    9  A    between atoms: C_16  and  N_17
REMARK   10  A    between atoms: N_26  and  C_27
REMARK                            x       y       z     vdW  Elec       q    Type
REMARK                         _______ _______ _______ _____ _____    ______ ____
ROOT
ATOM      1  C   UNL     1       5.415   7.249  16.639  0.00  0.00    +0.000 C 
ENDROOT
BRANCH   1   4
ATOM      2  C   UNL     1       4.401   4.230  17.370  0.00  0.00    +0.000 C 
ATOM      3  C   UNL     1       3.922   5.433  17.829  0.00  0.00    +0.000 C 
ATOM      4  N   UNL     1       4.378   6.750  17.538  0.00  0.00    +0.000 N 
ATOM      5  C   UNL     1       3.345   7.759  17.858  0.00  0.00    +0.000 C 
ATOM      6  C   UNL     1       2.380   7.026  18.775  0.00  0.00    +0.000 C 
ATOM      7  N   UNL     1       2.766   5.606  18.651  0.00  0.00    +0.000 N 
BRANCH   7   8
ATOM      8  C   UNL     1       2.177   4.759  19.618  0.00  0.00    +0.000 A 
ATOM      9  C   UNL     1       1.064   3.965  19.291  0.00  0.00    +0.000 A 
ATOM     10  C   UNL     1       0.603   2.964  20.147  0.00  0.00    +0.000 A 
ATOM     11  C   UNL     1       1.278   2.705  21.332  0.00  0.00    +0.000 A 
ATOM     12  C   UNL     1       2.314   3.540  21.718  0.00  0.00    +0.000 A 
ATOM     13  C   UNL     1       2.672   4.621  20.914  0.00  0.00    +0.000 A 
ENDBRANCH   7   8
BRANCH   2  15
ATOM     14  N   UNL     1       6.572   3.852  16.018  0.00  0.00    +0.000 NA
ATOM     15  C   UNL     1       5.665   4.033  16.713  0.00  0.00    +0.000 C 
ENDBRANCH   2  15
BRANCH   2  16
ATOM     16  C   UNL     1       3.706   2.984  17.502  0.00  0.00    +0.000 C 
ATOM     17  N   UNL     1       3.083   2.004  17.503  0.00  0.00    +0.000 NA
ENDBRANCH   2  16
ENDBRANCH   1   4
BRANCH   1  18
ATOM     18  C   UNL     1       6.808   7.218  17.305  0.00  0.00    +0.000 C 
BRANCH  18  19
ATOM     19  N   UNL     1       7.528   8.485  17.335  0.00  0.00    +0.000 NA
ATOM     20  H   UNL     1       6.903   9.283  17.442  0.00  0.00    +0.000 HD
BRANCH  19  21
ATOM     21  C   UNL     1       8.527   8.514  18.399  0.00  0.00    +0.000 C 
BRANCH  21  22
ATOM     22  C   UNL     1       8.872   9.917  18.699  0.00  0.00    +0.000 A 
ATOM     23  C   UNL     1       8.867  11.042  17.909  0.00  0.00    +0.000 A 
ATOM     24  C   UNL     1       9.257  12.104  18.739  0.00  0.00    +0.000 A 
ATOM     25  C   UNL     1       9.454  11.578  20.000  0.00  0.00    +0.000 A 
ATOM     26  O   UNL     1       9.226  10.228  19.980  0.00  0.00    +0.000 OA
BRANCH  25  27
ATOM     27  C   UNL     1       9.824  12.203  21.300  0.00  0.00    +0.000 C 
BRANCH  27  28
ATOM     28  N   UNL     1       8.642  12.665  22.057  0.00  0.00    +0.000 NA
ATOM     29  C   UNL     1       8.178  11.614  22.982  0.00  0.00    +0.000 C 
ATOM     30  C   UNL     1       7.028  12.073  23.878  0.00  0.00    +0.000 C 
ATOM     31  C   UNL     1       7.383  13.351  24.621  0.00  0.00    +0.000 C 
ATOM     32  C   UNL     1       7.808  14.423  23.627  0.00  0.00    +0.000 C 
ATOM     33  C   UNL     1       8.949  13.929  22.736  0.00  0.00    +0.000 C 
ENDBRANCH  27  28
ENDBRANCH  25  27
ENDBRANCH  21  22
ENDBRANCH  19  21
ENDBRANCH  18  19
ENDBRANCH   1  18
TORSDOF 10
ENDMDL
MODEL 2
REMARK VINA RESULT:      -7.3      4.724      9.281
REMARK  Name = 
REMARK  10 active torsions:
REMARK  status: ('A' for Active; 'I' for Inactive)
REMARK    1  A    between atoms: C_2  and  C_3
REMARK    2  A    between atoms: C_3  and  C_4
REMARK    3  A    between atoms: N_7  and  C_8
REMARK    4  A    between atoms: C_8  and  C_9
REMARK    5  A    between atoms: C_9  and  N_10
REMARK    6  A    between atoms: N_10  and  C_11
REMARK    7  A    between atoms: C_11  and  C_12
REMARK    8  A    between atoms: C_15  and  C_16
REMARK    9  A    between atoms: C_16  and  N_17
REMARK   10  A    between atoms: N_26  and  C_27
REMARK                            x       y       z     vdW  Elec       q    Type
REMARK                         _______ _______ _______ _____ _____    ______ ____
ROOT
ATOM      1  C   UNL     1       1.058   7.870  20.885  0.00  0.00    +0.000 C 
ENDROOT
BRANCH   1   4
ATOM      2  C   UNL     1       0.096  10.826  21.893  0.00  0.00    +0.000 C 
ATOM      3  C   UNL     1       0.718  10.478  20.718  0.00  0.00    +0.000 C 
ATOM      4  N   UNL     1       1.166   9.197  20.286  0.00  0.00    +0.000 N 
ATOM      5  C   UNL     1       1.363   9.165  18.821  0.00  0.00    +0.000 C 
ATOM      6  C   UNL     1       1.430  10.629  18.421  0.00  0.00    +0.000 C 
ATOM      7  N   UNL     1       0.963  11.356  19.619  0.00  0.00    +0.000 N 
BRANCH   7   8
ATOM      8  C   UNL     1       1.189  12.751  19.574  0.00  0.00    +0.000 A 
ATOM      9  C   UNL     1       2.369  13.303  20.103  0.00  0.00    +0.000 A 
ATOM     10  C   UNL     1       2.720  14.634  19.876  0.00  0.00    +0.000 A 
ATOM     11  C   UNL     1       1.918  15.432  19.073  0.00  0.00    +0.000 A 
ATOM     12  C   UNL     1       0.702  14.937  18.626  0.00  0.00    +0.000 A 
ATOM     13  C   UNL     1       0.304  13.648  18.977  0.00  0.00    +0.000 A 
ENDBRANCH   7   8
BRANCH   2  15
ATOM     14  N   UNL     1       0.096   9.476  24.098  0.00  0.00    +0.000 NA
ATOM     15  C   UNL     1       0.023  10.005  23.072  0.00  0.00    +0.000 C 
ENDBRANCH   2  15
BRANCH   2  16
ATOM     16  C   UNL     1      -0.560  12.080  22.116  0.00  0.00    +0.000 C 
ATOM     17  N   UNL     1      -1.042  13.094  22.412  0.00  0.00    +0.000 NA
ENDBRANCH   2  16
ENDBRANCH   1   4
BRANCH   1  18
ATOM     18  C   UNL     1       2.047   6.873  20.242  0.00  0.00    +0.000 C 
BRANCH  18  19
ATOM     19  N   UNL     1       2.200   5.597  20.928  0.00  0.00    +0.000 NA
ATOM     20  H   UNL     1       2.044   5.675  21.933  0.00  0.00    +0.000 HD
BRANCH  19  21
ATOM     21  C   UNL     1       1.307   4.580  20.384  0.00  0.00    +0.000 C 
BRANCH  21  22
ATOM     22  C   UNL     1       1.965   3.922  19.238  0.00  0.00    +0.000 A 
ATOM     23  C   UNL     1       1.580   2.855  18.460  0.00  0.00    +0.000 A 
ATOM     24  C   UNL     1       2.587   2.693  17.495  0.00  0.00    +0.000 A 
ATOM     25  C   UNL     1       3.520   3.685  17.716  0.00  0.00    +0.000 A 
ATOM     26  O   UNL     1       3.147   4.441  18.795  0.00  0.00    +0.000 OA
BRANCH  25  27
ATOM     27  C   UNL     1       4.773   4.060  17.003  0.00  0.00    +0.000 C 
BRANCH  27  28
ATOM     28  N   UNL     1       5.470   5.191  17.651  0.00  0.00    +0.000 NA
ATOM     29  C   UNL     1       6.713   4.729  18.298  0.00  0.00    +0.000 C 
ATOM     30  C   UNL     1       7.539   5.871  18.887  0.00  0.00    +0.000 C 
ATOM     31  C   UNL     1       7.819   6.944  17.846  0.00  0.00    +0.000 C 
ATOM     32  C   UNL     1       6.509   7.427  17.240  0.00  0.00    +0.000 C 
ATOM     33  C   UNL     1       5.698   6.260  16.673  0.00  0.00    +0.000 C 
ENDBRANCH  27  28
ENDBRANCH  25  27
ENDBRANCH  21  22
ENDBRANCH  19  21
ENDBRANCH  18  19
ENDBRANCH   1  18
TORSDOF 10
ENDMDL
MODEL 3
REMARK VINA RESULT:      -7.2      3.006     10.872
REMARK  Name = 
REMARK  10 active torsions:
REMARK  status: ('A' for Active; 'I' for Inactive)
REMARK    1  A    between atoms: C_2  and  C_3
REMARK    2  A    between atoms: C_3  and  C_4
REMARK    3  A    between atoms: N_7  and  C_8
REMARK    4  A    between atoms: C_8  and  C_9
REMARK    5  A    between atoms: C_9  and  N_10
REMARK    6  A    between atoms: N_10  and  C_11
REMARK    7  A    between atoms: C_11  and  C_12
REMARK    8  A    between atoms: C_15  and  C_16
REMARK    9  A    between atoms: C_16  and  N_17
REMARK   10  A    between atoms: N_26  and  C_27
REMARK                            x       y       z     vdW  Elec       q    Type
REMARK                         _______ _______ _______ _____ _____    ______ ____
ROOT
ATOM      1  C   UNL     1       9.642  10.852  17.909  0.00  0.00    +0.000 C 
ENDROOT
BRANCH   1   4
ATOM      2  C   UNL     1      10.519  13.464  19.664  0.00  0.00    +0.000 C 
ATOM      3  C   UNL     1       9.534  13.359  18.712  0.00  0.00    +0.000 C 
ATOM      4  N   UNL     1       9.167  12.232  17.923  0.00  0.00    +0.000 N 
ATOM      5  C   UNL     1       7.807  12.389  17.364  0.00  0.00    +0.000 C 
ATOM      6  C   UNL     1       7.519  13.876  17.495  0.00  0.00    +0.000 C 
ATOM      7  N   UNL     1       8.589  14.378  18.382  0.00  0.00    +0.000 N 
BRANCH   7   8
ATOM      8  C   UNL     1       8.682  15.787  18.436  0.00  0.00    +0.000 A 
ATOM      9  C   UNL     1       7.877  16.525  19.322  0.00  0.00    +0.000 A 
ATOM     10  C   UNL     1       8.101  17.882  19.558  0.00  0.00    +0.000 A 
ATOM     11  C   UNL     1       9.169  18.521  18.944  0.00  0.00    +0.000 A 
ATOM     12  C   UNL     1       9.911  17.838  17.993  0.00  0.00    +0.000 A 
ATOM     13  C   UNL     1       9.586  16.522  17.670  0.00  0.00    +0.000 A 
ENDBRANCH   7   8
BRANCH   2  15
ATOM     14  N   UNL     1      12.331  11.688  20.158  0.00  0.00    +0.000 NA
ATOM     15  C   UNL     1      11.591  12.526  19.862  0.00  0.00    +0.000 C 
ENDBRANCH   2  15
BRANCH   2  16
ATOM     16  C   UNL     1      10.629  14.550  20.592  0.00  0.00    +0.000 C 
ATOM     17  N   UNL     1      10.831  15.453  21.294  0.00  0.00    +0.000 NA
ENDBRANCH   2  16
ENDBRANCH   1   4
BRANCH   1  18
ATOM     18  C   UNL     1       8.633   9.895  18.580  0.00  0.00    +0.000 C 
BRANCH  18  19
ATOM     19  N   UNL     1       7.860   9.050  17.680  0.00  0.00    +0.000 NA
ATOM     20  H   UNL     1       8.033   9.269  16.699  0.00  0.00    +0.000 HD
BRANCH  19  21
ATOM     21  C   UNL     1       8.124   7.633  17.907  0.00  0.00    +0.000 C 
BRANCH  21  22
ATOM     22  C   UNL     1       6.867   6.876  17.753  0.00  0.00    +0.000 A 
ATOM     23  C   UNL     1       5.932   6.866  16.745  0.00  0.00    +0.000 A 
ATOM     24  C   UNL     1       4.959   5.927  17.124  0.00  0.00    +0.000 A 
ATOM     25  C   UNL     1       5.364   5.394  18.331  0.00  0.00    +0.000 A 
ATOM     26  O   UNL     1       6.535   5.981  18.728  0.00  0.00    +0.000 OA
BRANCH  25  27
ATOM     27  C   UNL     1       4.786   4.333  19.203  0.00  0.00    +0.000 C 
BRANCH  27  28
ATOM     28  N   UNL     1       3.308   4.316  19.159  0.00  0.00    +0.000 NA
ATOM     29  C   UNL     1       2.828   3.154  18.387  0.00  0.00    +0.000 C 
ATOM     30  C   UNL     1       1.307   3.014  18.403  0.00  0.00    +0.000 C 
ATOM     31  C   UNL     1       0.769   2.998  19.825  0.00  0.00    +0.000 C 
ATOM     32  C   UNL     1       1.246   4.236  20.570  0.00  0.00    +0.000 C 
ATOM     33  C   UNL     1       2.771   4.357  20.523  0.00  0.00    +0.000 C 
ENDBRANCH  27  28
ENDBRANCH  25  27
ENDBRANCH  21  22
ENDBRANCH  19  21
ENDBRANCH  18  19
ENDBRANCH   1  18
TORSDOF 10
ENDMDL
MODEL 4
REMARK VINA RESULT:      -7.1      2.456      3.680
REMARK  Name = 
REMARK  10 active torsions:
REMARK  status: ('A' for Active; 'I' for Inactive)
REMARK    1  A    between atoms: C_2  and  C_3
REMARK    2  A    between atoms: C_3  and  C_4
REMARK    3  A    between atoms: N_7  and  C_8
REMARK    4  A    between atoms: C_8  and  C_9
REMARK    5  A    between atoms: C_9  and  N_10
REMARK    6  A    between atoms: N_10  and  C_11
REMARK    7  A    between atoms: C_11  and  C_12
REMARK    8  A    between atoms: C_15  and  C_16
REMARK    9  A    between atoms: C_16  and  N_17
REMARK   10  A    between atoms: N_26  and  C_27
REMARK                            x       y       z     vdW  Elec       q    Type
REMARK                         _______ _______ _______ _____ _____    ______ ____
ROOT
ATOM      1  C   UNL     1       5.670   6.597  16.585  0.00  0.00    +0.000 C 
ENDROOT
BRANCH   1   4
ATOM      2  C   UNL     1       3.131   6.674  18.640  0.00  0.00    +0.000 C 
ATOM      3  C   UNL     1       3.992   5.637  18.376  0.00  0.00    +0.000 C 
ATOM      4  N   UNL     1       5.081   5.587  17.461  0.00  0.00    +0.000 N 
ATOM      5  C   UNL     1       6.011   4.486  17.792  0.00  0.00    +0.000 C 
ATOM      6  C   UNL     1       5.204   3.581  18.709  0.00  0.00    +0.000 C 
ATOM      7  N   UNL     1       4.017   4.385  19.064  0.00  0.00    +0.000 N 
BRANCH   7   8
ATOM      8  C   UNL     1       2.990   3.652  19.701  0.00  0.00    +0.000 A 
ATOM      9  C   UNL     1       3.087   3.318  21.063  0.00  0.00    +0.000 A 
ATOM     10  C   UNL     1       2.001   2.796  21.768  0.00  0.00    +0.000 A 
ATOM     11  C   UNL     1       0.778   2.640  21.132  0.00  0.00    +0.000 A 
ATOM     12  C   UNL     1       0.689   2.868  19.768  0.00  0.00    +0.000 A 
ATOM     13  C   UNL     1       1.820   3.258  19.053  0.00  0.00    +0.000 A 
ENDBRANCH   7   8
BRANCH   2  15
ATOM     14  N   UNL     1       2.807   8.891  17.350  0.00  0.00    +0.000 NA
ATOM     15  C   UNL     1       2.968   7.850  17.828  0.00  0.00    +0.000 C 
ENDBRANCH   2  15
BRANCH   2  16
ATOM     16  C   UNL     1       2.247   6.720  19.767  0.00  0.00    +0.000 C 
ATOM     17  N   UNL     1       1.566   6.877  20.695  0.00  0.00    +0.000 NA
ENDBRANCH   2  16
ENDBRANCH   1   4
BRANCH   1  18
ATOM     18  C   UNL     1       7.198   6.418  16.457  0.00  0.00    +0.000 C 
BRANCH  18  19
ATOM     19  N   UNL     1       8.007   7.575  16.817  0.00  0.00    +0.000 NA
ATOM     20  H   UNL     1       8.331   8.091  15.998  0.00  0.00    +0.000 HD
BRANCH  19  21
ATOM     21  C   UNL     1       7.287   8.485  17.701  0.00  0.00    +0.000 C 
BRANCH  21  22
ATOM     22  C   UNL     1       8.208   9.541  18.162  0.00  0.00    +0.000 A 
ATOM     23  C   UNL     1       9.200   9.528  19.116  0.00  0.00    +0.000 A 
ATOM     24  C   UNL     1       9.770  10.810  19.103  0.00  0.00    +0.000 A 
ATOM     25  C   UNL     1       9.117  11.532  18.125  0.00  0.00    +0.000 A 
ATOM     26  O   UNL     1       8.147  10.758  17.547  0.00  0.00    +0.000 OA
BRANCH  25  27
ATOM     27  C   UNL     1       9.300  12.918  17.611  0.00  0.00    +0.000 C 
BRANCH  27  28
ATOM     28  N   UNL     1       9.859  13.826  18.635  0.00  0.00    +0.000 NA
ATOM     29  C   UNL     1      11.248  14.192  18.296  0.00  0.00    +0.000 C 
ATOM     30  C   UNL     1      11.844  15.222  19.255  0.00  0.00    +0.000 C 
ATOM     31  C   UNL     1      10.956  16.451  19.366  0.00  0.00    +0.000 C 
ATOM     32  C   UNL     1       9.547  16.035  19.764  0.00  0.00    +0.000 C 
ATOM     33  C   UNL     1       8.985  14.993  18.795  0.00  0.00    +0.000 C 
ENDBRANCH  27  28
ENDBRANCH  25  27
ENDBRANCH  21  22
ENDBRANCH  19  21
ENDBRANCH  18  19
ENDBRANCH   1  18
TORSDOF 10
ENDMDL
MODEL 5
REMARK VINA RESULT:      -7.1      2.745     11.000
REMARK  Name = 
REMARK  10 active torsions:
REMARK  status: ('A' for Active; 'I' for Inactive)
REMARK    1  A    between atoms: C_2  and  C_3
REMARK    2  A    between atoms: C_3  and  C_4
REMARK    3  A    between atoms: N_7  and  C_8
REMARK    4  A    between atoms: C_8  and  C_9
REMARK    5  A    between atoms: C_9  and  N_10
REMARK    6  A    between atoms: N_10  and  C_11
REMARK    7  A    between atoms: C_11  and  C_12
REMARK    8  A    between atoms: C_15  and  C_16
REMARK    9  A    between atoms: C_16  and  N_17
REMARK   10  A    between atoms: N_26  and  C_27
REMARK                            x       y       z     vdW  Elec       q    Type
REMARK                         _______ _______ _______ _____ _____    ______ ____
ROOT
ATOM      1  C   UNL     1       9.936  10.592  17.797  0.00  0.00    +0.000 C 
ENDROOT
BRANCH   1   4
ATOM      2  C   UNL     1       9.218  13.762  18.130  0.00  0.00    +0.000 C 
ATOM      3  C   UNL     1      10.226  13.042  18.724  0.00  0.00    +0.000 C 
ATOM      4  N   UNL     1      10.526  11.655  18.606  0.00  0.00    +0.000 N 
ATOM      5  C   UNL     1      11.915  11.369  19.027  0.00  0.00    +0.000 C 
ATOM      6  C   UNL     1      12.322  12.595  19.827  0.00  0.00    +0.000 C 
ATOM      7  N   UNL     1      11.266  13.587  19.537  0.00  0.00    +0.000 N 
BRANCH   7   8
ATOM      8  C   UNL     1      11.291  14.722  20.380  0.00  0.00    +0.000 A 
ATOM      9  C   UNL     1      12.117  15.819  20.079  0.00  0.00    +0.000 A 
ATOM     10  C   UNL     1      11.999  17.032  20.760  0.00  0.00    +0.000 A 
ATOM     11  C   UNL     1      11.016  17.187  21.727  0.00  0.00    +0.000 A 
ATOM     12  C   UNL     1      10.260  16.089  22.107  0.00  0.00    +0.000 A 
ATOM     13  C   UNL     1      10.486  14.849  21.511  0.00  0.00    +0.000 A 
ENDBRANCH   7   8
BRANCH   2  15
ATOM     14  N   UNL     1       7.254  12.592  16.923  0.00  0.00    +0.000 NA
ATOM     15  C   UNL     1       8.064  13.202  17.479  0.00  0.00    +0.000 C 
ENDBRANCH   2  15
BRANCH   2  16
ATOM     16  C   UNL     1       9.166  15.194  18.092  0.00  0.00    +0.000 C 
ATOM     17  N   UNL     1       9.164  16.345  17.944  0.00  0.00    +0.000 NA
ENDBRANCH   2  16
ENDBRANCH   1   4
BRANCH   1  18
ATOM     18  C   UNL     1       8.804   9.863  18.553  0.00  0.00    +0.000 C 
BRANCH  18  19
ATOM     19  N   UNL     1       7.982   8.962  17.755  0.00  0.00    +0.000 NA
ATOM     20  H   UNL     1       8.168   9.050  16.757  0.00  0.00    +0.000 HD
BRANCH  19  21
ATOM     21  C   UNL     1       8.162   7.570  18.154  0.00  0.00    +0.000 C 
BRANCH  21  22
ATOM     22  C   UNL     1       6.892   6.844  17.957  0.00  0.00    +0.000 A 
ATOM     23  C   UNL     1       5.918   6.964  16.994  0.00  0.00    +0.000 A 
ATOM     24  C   UNL     1       4.953   5.989  17.292  0.00  0.00    +0.000 A 
ATOM     25  C   UNL     1       5.401   5.306  18.404  0.00  0.00    +0.000 A 
ATOM     26  O   UNL     1       6.592   5.834  18.824  0.00  0.00    +0.000 OA
BRANCH  25  27
ATOM     27  C   UNL     1       4.848   4.146  19.158  0.00  0.00    +0.000 C 
BRANCH  27  28
ATOM     28  N   UNL     1       3.378   4.049  19.039  0.00  0.00    +0.000 NA
ATOM     29  C   UNL     1       2.988   2.717  18.538  0.00  0.00    +0.000 C 
ATOM     30  C   UNL     1       1.474   2.513  18.503  0.00  0.00    +0.000 C 
ATOM     31  C   UNL     1       0.846   2.804  19.856  0.00  0.00    +0.000 C 
ATOM     32  C   UNL     1       1.233   4.203  20.313  0.00  0.00    +0.000 C 
ATOM     33  C   UNL     1       2.753   4.381  20.323  0.00  0.00    +0.000 C 
ENDBRANCH  27  28
ENDBRANCH  25  27
ENDBRANCH  21  22
ENDBRANCH  19  21
ENDBRANCH  18  19
ENDBRANCH   1  18
TORSDOF 10
ENDMDL
MODEL 6
REMARK VINA RESULT:      -7.1      5.587      9.724
REMARK  Name = 
REMARK  10 active torsions:
REMARK  status: ('A' for Active; 'I' for Inactive)
REMARK    1  A    between atoms: C_2  and  C_3
REMARK    2  A    between atoms: C_3  and  C_4
REMARK    3  A    between atoms: N_7  and  C_8
REMARK    4  A    between atoms: C_8  and  C_9
REMARK    5  A    between atoms: C_9  and  N_10
REMARK    6  A    between atoms: N_10  and  C_11
REMARK    7  A    between atoms: C_11  and  C_12
REMARK    8  A    between atoms: C_15  and  C_16
REMARK    9  A    between atoms: C_16  and  N_17
REMARK   10  A    between atoms: N_26  and  C_27
REMARK                            x       y       z     vdW  Elec       q    Type
REMARK                         _______ _______ _______ _____ _____    ______ ____
ROOT
ATOM      1  C   UNL     1       1.039   9.081  19.632  0.00  0.00    +0.000 C 
ENDROOT
BRANCH   1   4
ATOM      2  C   UNL     1      -0.636  10.706  21.919  0.00  0.00    +0.000 C 
ATOM      3  C   UNL     1      -0.645  10.885  20.557  0.00  0.00    +0.000 C 
ATOM      4  N   UNL     1       0.104  10.201  19.558  0.00  0.00    +0.000 N 
ATOM      5  C   UNL     1      -0.507  10.366  18.222  0.00  0.00    +0.000 C 
ATOM      6  C   UNL     1      -1.438  11.557  18.382  0.00  0.00    +0.000 C 
ATOM      7  N   UNL     1      -1.512  11.768  19.843  0.00  0.00    +0.000 N 
BRANCH   7   8
ATOM      8  C   UNL     1      -2.114  12.989  20.221  0.00  0.00    +0.000 A 
ATOM      9  C   UNL     1      -3.511  13.094  20.336  0.00  0.00    +0.000 A 
ATOM     10  C   UNL     1      -4.116  14.208  20.918  0.00  0.00    +0.000 A 
ATOM     11  C   UNL     1      -3.330  15.225  21.441  0.00  0.00    +0.000 A 
ATOM     12  C   UNL     1      -1.958  15.188  21.249  0.00  0.00    +0.000 A 
ATOM     13  C   UNL     1      -1.383  14.132  20.544  0.00  0.00    +0.000 A 
ENDBRANCH   7   8
BRANCH   2  15
ATOM     14  N   UNL     1       1.183   9.558  23.353  0.00  0.00    +0.000 NA
ATOM     15  C   UNL     1       0.358   9.975  22.658  0.00  0.00    +0.000 C 
ENDBRANCH   2  15
BRANCH   2  16
ATOM     16  C   UNL     1      -1.620  11.248  22.809  0.00  0.00    +0.000 C 
ATOM     17  N   UNL     1      -2.468  11.743  23.429  0.00  0.00    +0.000 NA
ENDBRANCH   2  16
ENDBRANCH   1   4
BRANCH   1  18
ATOM     18  C   UNL     1       1.727   8.823  18.274  0.00  0.00    +0.000 C 
BRANCH  18  19
ATOM     19  N   UNL     1       2.327   7.506  18.104  0.00  0.00    +0.000 NA
ATOM     20  H   UNL     1       1.750   6.888  17.535  0.00  0.00    +0.000 HD
BRANCH  19  21
ATOM     21  C   UNL     1       3.660   7.591  17.515  0.00  0.00    +0.000 C 
BRANCH  21  22
ATOM     22  C   UNL     1       4.314   6.272  17.609  0.00  0.00    +0.000 A 
ATOM     23  C   UNL     1       5.623   5.923  17.847  0.00  0.00    +0.000 A 
ATOM     24  C   UNL     1       5.657   4.520  17.856  0.00  0.00    +0.000 A 
ATOM     25  C   UNL     1       4.364   4.084  17.651  0.00  0.00    +0.000 A 
ATOM     26  O   UNL     1       3.532   5.160  17.489  0.00  0.00    +0.000 OA
BRANCH  25  27
ATOM     27  C   UNL     1       3.759   2.724  17.606  0.00  0.00    +0.000 C 
BRANCH  27  28
ATOM     28  N   UNL     1       2.898   2.454  18.776  0.00  0.00    +0.000 NA
ATOM     29  C   UNL     1       3.569   2.879  20.020  0.00  0.00    +0.000 C 
ATOM     30  C   UNL     1       2.683   2.734  21.256  0.00  0.00    +0.000 C 
ATOM     31  C   UNL     1       1.354   3.448  21.069  0.00  0.00    +0.000 C 
ATOM     32  C   UNL     1       0.673   2.945  19.804  0.00  0.00    +0.000 C 
ATOM     33  C   UNL     1       1.590   3.090  18.588  0.00  0.00    +0.000 C 
ENDBRANCH  27  28
ENDBRANCH  25  27
ENDBRANCH  21  22
ENDBRANCH  19  21
ENDBRANCH  18  19
ENDBRANCH   1  18
TORSDOF 10
ENDMDL
MODEL 7
REMARK VINA RESULT:      -7.1      1.629      3.033
REMARK  Name = 
REMARK  10 active torsions:
REMARK  status: ('A' for Active; 'I' for Inactive)
REMARK    1  A    between atoms: C_2  and  C_3
REMARK    2  A    between atoms: C_3  and  C_4
REMARK    3  A    between atoms: N_7  and  C_8
REMARK    4  A    between atoms: C_8  and  C_9
REMARK    5  A    between atoms: C_9  and  N_10
REMARK    6  A    between atoms: N_10  and  C_11
REMARK    7  A    between atoms: C_11  and  C_12
REMARK    8  A    between atoms: C_15  and  C_16
REMARK    9  A    between atoms: C_16  and  N_17
REMARK   10  A    between atoms: N_26  and  C_27
REMARK                            x       y       z     vdW  Elec       q    Type
REMARK                         _______ _______ _______ _____ _____    ______ ____
ROOT
ATOM      1  C   UNL     1       5.540   7.018  16.867  0.00  0.00    +0.000 C 
ENDROOT
BRANCH   1   4
ATOM      2  C   UNL     1       2.935   7.190  18.833  0.00  0.00    +0.000 C 
ATOM      3  C   UNL     1       3.802   6.141  18.644  0.00  0.00    +0.000 C 
ATOM      4  N   UNL     1       4.921   6.049  17.768  0.00  0.00    +0.000 N 
ATOM      5  C   UNL     1       5.837   4.963  18.179  0.00  0.00    +0.000 C 
ATOM      6  C   UNL     1       4.999   4.101  19.108  0.00  0.00    +0.000 C 
ATOM      7  N   UNL     1       3.802   4.922  19.388  0.00  0.00    +0.000 N 
BRANCH   7   8
ATOM      8  C   UNL     1       2.753   4.218  20.023  0.00  0.00    +0.000 A 
ATOM      9  C   UNL     1       1.700   3.671  19.270  0.00  0.00    +0.000 A 
ATOM     10  C   UNL     1       0.778   2.789  19.835  0.00  0.00    +0.000 A 
ATOM     11  C   UNL     1       0.919   2.399  21.160  0.00  0.00    +0.000 A 
ATOM     12  C   UNL     1       1.889   3.003  21.944  0.00  0.00    +0.000 A 
ATOM     13  C   UNL     1       2.715   3.984  21.397  0.00  0.00    +0.000 A 
ENDBRANCH   7   8
BRANCH   2  15
ATOM     14  N   UNL     1       2.500   9.234  17.312  0.00  0.00    +0.000 NA
ATOM     15  C   UNL     1       2.802   8.328  17.964  0.00  0.00    +0.000 C 
ENDBRANCH   2  15
BRANCH   2  16
ATOM     16  C   UNL     1       2.015   7.287  19.927  0.00  0.00    +0.000 C 
ATOM     17  N   UNL     1       1.273   7.490  20.797  0.00  0.00    +0.000 NA
ENDBRANCH   2  16
ENDBRANCH   1   4
BRANCH   1  18
ATOM     18  C   UNL     1       7.069   7.088  17.071  0.00  0.00    +0.000 C 
BRANCH  18  19
ATOM     19  N   UNL     1       7.629   8.423  17.241  0.00  0.00    +0.000 NA
ATOM     20  H   UNL     1       6.907   9.141  17.301  0.00  0.00    +0.000 HD
BRANCH  19  21
ATOM     21  C   UNL     1       8.482   8.504  18.422  0.00  0.00    +0.000 C 
BRANCH  21  22
ATOM     22  C   UNL     1       8.870   9.911  18.642  0.00  0.00    +0.000 A 
ATOM     23  C   UNL     1       8.799  11.011  17.819  0.00  0.00    +0.000 A 
ATOM     24  C   UNL     1       9.280  12.093  18.572  0.00  0.00    +0.000 A 
ATOM     25  C   UNL     1       9.594  11.605  19.824  0.00  0.00    +0.000 A 
ATOM     26  O   UNL     1       9.351  10.258  19.871  0.00  0.00    +0.000 OA
BRANCH  25  27
ATOM     27  C   UNL     1      10.097  12.265  21.061  0.00  0.00    +0.000 C 
BRANCH  27  28
ATOM     28  N   UNL     1       9.955  13.735  21.009  0.00  0.00    +0.000 NA
ATOM     29  C   UNL     1       9.554  14.262  22.327  0.00  0.00    +0.000 C 
ATOM     30  C   UNL     1       9.504  15.789  22.369  0.00  0.00    +0.000 C 
ATOM     31  C   UNL     1      10.817  16.397  21.903  0.00  0.00    +0.000 C 
ATOM     32  C   UNL     1      11.170  15.865  20.521  0.00  0.00    +0.000 C 
ATOM     33  C   UNL     1      11.196  14.336  20.508  0.00  0.00    +0.000 C 
ENDBRANCH  27  28
ENDBRANCH  25  27
ENDBRANCH  21  22
ENDBRANCH  19  21
ENDBRANCH  18  19
ENDBRANCH   1  18
TORSDOF 10
ENDMDL
MODEL 8
REMARK VINA RESULT:      -7.1      4.744      8.896
REMARK  Name = 
REMARK  10 active torsions:
REMARK  status: ('A' for Active; 'I' for Inactive)
REMARK    1  A    between atoms: C_2  and  C_3
REMARK    2  A    between atoms: C_3  and  C_4
REMARK    3  A    between atoms: N_7  and  C_8
REMARK    4  A    between atoms: C_8  and  C_9
REMARK    5  A    between atoms: C_9  and  N_10
REMARK    6  A    between atoms: N_10  and  C_11
REMARK    7  A    between atoms: C_11  and  C_12
REMARK    8  A    between atoms: C_15  and  C_16
REMARK    9  A    between atoms: C_16  and  N_17
REMARK   10  A    between atoms: N_26  and  C_27
REMARK                            x       y       z     vdW  Elec       q    Type
REMARK                         _______ _______ _______ _____ _____    ______ ____
ROOT
ATOM      1  C   UNL     1       1.802   7.737  20.591  0.00  0.00    +0.000 C 
ENDROOT
BRANCH   1   4
ATOM      2  C   UNL     1       1.289  10.646  19.195  0.00  0.00    +0.000 C 
ATOM      3  C   UNL     1       0.839  10.183  20.407  0.00  0.00    +0.000 C 
ATOM      4  N   UNL     1       1.034   8.907  21.008  0.00  0.00    +0.000 N 
ATOM      5  C   UNL     1       0.787   8.956  22.465  0.00  0.00    +0.000 C 
ATOM      6  C   UNL     1       0.002  10.242  22.667  0.00  0.00    +0.000 C 
ATOM      7  N   UNL     1       0.136  10.957  21.381  0.00  0.00    +0.000 N 
BRANCH   7   8
ATOM      8  C   UNL     1      -0.733  12.062  21.240  0.00  0.00    +0.000 A 
ATOM      9  C   UNL     1      -1.900  11.962  20.463  0.00  0.00    +0.000 A 
ATOM     10  C   UNL     1      -2.883  12.953  20.486  0.00  0.00    +0.000 A 
ATOM     11  C   UNL     1      -2.739  14.047  21.327  0.00  0.00    +0.000 A 
ATOM     12  C   UNL     1      -1.553  14.214  22.024  0.00  0.00    +0.000 A 
ATOM     13  C   UNL     1      -0.525  13.283  21.883  0.00  0.00    +0.000 A 
ENDBRANCH   7   8
BRANCH   2  15
ATOM     14  N   UNL     1       2.264   9.347  17.183  0.00  0.00    +0.000 NA
ATOM     15  C   UNL     1       1.818   9.830  18.135  0.00  0.00    +0.000 C 
ENDBRANCH   2  15
BRANCH   2  16
ATOM     16  C   UNL     1       1.275  12.025  18.804  0.00  0.00    +0.000 C 
ATOM     17  N   UNL     1       1.323  13.106  18.383  0.00  0.00    +0.000 NA
ENDBRANCH   2  16
ENDBRANCH   1   4
BRANCH   1  18
ATOM     18  C   UNL     1       1.081   6.422  20.960  0.00  0.00    +0.000 C 
BRANCH  18  19
ATOM     19  N   UNL     1       1.921   5.233  21.031  0.00  0.00    +0.000 NA
ATOM     20  H   UNL     1       2.223   5.029  21.983  0.00  0.00    +0.000 HD
BRANCH  19  21
ATOM     21  C   UNL     1       1.247   4.061  20.482  0.00  0.00    +0.000 C 
BRANCH  21  22
ATOM     22  C   UNL     1       2.150   3.388  19.528  0.00  0.00    +0.000 A 
ATOM     23  C   UNL     1       2.275   2.064  19.178  0.00  0.00    +0.000 A 
ATOM     24  C   UNL     1       3.278   2.014  18.196  0.00  0.00    +0.000 A 
ATOM     25  C   UNL     1       3.693   3.311  17.978  0.00  0.00    +0.000 A 
ATOM     26  O   UNL     1       3.008   4.163  18.803  0.00  0.00    +0.000 OA
BRANCH  25  27
ATOM     27  C   UNL     1       4.684   3.902  17.036  0.00  0.00    +0.000 C 
BRANCH  27  28
ATOM     28  N   UNL     1       5.387   5.064  17.618  0.00  0.00    +0.000 NA
ATOM     29  C   UNL     1       6.776   4.707  17.964  0.00  0.00    +0.000 C 
ATOM     30  C   UNL     1       7.592   5.898  18.463  0.00  0.00    +0.000 C 
ATOM     31  C   UNL     1       7.546   7.052  17.475  0.00  0.00    +0.000 C 
ATOM     32  C   UNL     1       6.098   7.421  17.183  0.00  0.00    +0.000 C 
ATOM     33  C   UNL     1       5.304   6.206  16.700  0.00  0.00    +0.000 C 
ENDBRANCH  27  28
ENDBRANCH  25  27
ENDBRANCH  21  22
ENDBRANCH  19  21
ENDBRANCH  18  19
ENDBRANCH   1  18
TORSDOF 10
ENDMDL
MODEL 9
REMARK VINA RESULT:      -7.0      2.211      3.532
REMARK  Name = 
REMARK  10 active torsions:
REMARK  status: ('A' for Active; 'I' for Inactive)
REMARK    1  A    between atoms: C_2  and  C_3
REMARK    2  A    between atoms: C_3  and  C_4
REMARK    3  A    between atoms: N_7  and  C_8
REMARK    4  A    between atoms: C_8  and  C_9
REMARK    5  A    between atoms: C_9  and  N_10
REMARK    6  A    between atoms: N_10  and  C_11
REMARK    7  A    between atoms: C_11  and  C_12
REMARK    8  A    between atoms: C_15  and  C_16
REMARK    9  A    between atoms: C_16  and  N_17
REMARK   10  A    between atoms: N_26  and  C_27
REMARK                            x       y       z     vdW  Elec       q    Type
REMARK                         _______ _______ _______ _____ _____    ______ ____
ROOT
ATOM      1  C   UNL     1       5.780   7.252  16.958  0.00  0.00    +0.000 C 
ENDROOT
BRANCH   1   4
ATOM      2  C   UNL     1       3.054   7.049  18.749  0.00  0.00    +0.000 C 
ATOM      3  C   UNL     1       4.027   6.099  18.553  0.00  0.00    +0.000 C 
ATOM      4  N   UNL     1       5.202   6.171  17.752  0.00  0.00    +0.000 N 
ATOM      5  C   UNL     1       6.190   5.147  18.155  0.00  0.00    +0.000 C 
ATOM      6  C   UNL     1       5.382   4.150  18.969  0.00  0.00    +0.000 C 
ATOM      7  N   UNL     1       4.098   4.837  19.218  0.00  0.00    +0.000 N 
BRANCH   7   8
ATOM      8  C   UNL     1       3.084   3.998  19.735  0.00  0.00    +0.000 A 
ATOM      9  C   UNL     1       2.981   3.767  21.118  0.00  0.00    +0.000 A 
ATOM     10  C   UNL     1       1.869   3.133  21.673  0.00  0.00    +0.000 A 
ATOM     11  C   UNL     1       0.811   2.757  20.857  0.00  0.00    +0.000 A 
ATOM     12  C   UNL     1       0.936   2.885  19.483  0.00  0.00    +0.000 A 
ATOM     13  C   UNL     1       2.113   3.395  18.936  0.00  0.00    +0.000 A 
ENDBRANCH   7   8
BRANCH   2  15
ATOM     14  N   UNL     1       2.595   9.236  17.450  0.00  0.00    +0.000 NA
ATOM     15  C   UNL     1       2.866   8.228  17.946  0.00  0.00    +0.000 C 
ENDBRANCH   2  15
BRANCH   2  16
ATOM     16  C   UNL     1       2.063   6.986  19.782  0.00  0.00    +0.000 C 
ATOM     17  N   UNL     1       1.313   7.038  20.667  0.00  0.00    +0.000 NA
ENDBRANCH   2  16
ENDBRANCH   1   4
BRANCH   1  18
ATOM     18  C   UNL     1       7.262   7.491  17.316  0.00  0.00    +0.000 C 
BRANCH  18  19
ATOM     19  N   UNL     1       7.615   8.854  17.691  0.00  0.00    +0.000 NA
ATOM     20  H   UNL     1       6.835   9.353  18.118  0.00  0.00    +0.000 HD
BRANCH  19  21
ATOM     21  C   UNL     1       8.757   8.887  18.599  0.00  0.00    +0.000 C 
BRANCH  21  22
ATOM     22  C   UNL     1       9.029  10.285  18.983  0.00  0.00    +0.000 A 
ATOM     23  C   UNL     1       9.461  10.833  20.168  0.00  0.00    +0.000 A 
ATOM     24  C   UNL     1       9.574  12.214  19.941  0.00  0.00    +0.000 A 
ATOM     25  C   UNL     1       9.231  12.435  18.623  0.00  0.00    +0.000 A 
ATOM     26  O   UNL     1       8.886  11.251  18.029  0.00  0.00    +0.000 OA
BRANCH  25  27
ATOM     27  C   UNL     1       9.203  13.667  17.787  0.00  0.00    +0.000 C 
BRANCH  27  28
ATOM     28  N   UNL     1       8.105  14.579  18.171  0.00  0.00    +0.000 NA
ATOM     29  C   UNL     1       6.826  14.117  17.598  0.00  0.00    +0.000 C 
ATOM     30  C   UNL     1       5.631  14.953  18.055  0.00  0.00    +0.000 C 
ATOM     31  C   UNL     1       5.563  15.036  19.571  0.00  0.00    +0.000 C 
ATOM     32  C   UNL     1       6.882  15.563  20.117  0.00  0.00    +0.000 C 
ATOM     33  C   UNL     1       8.060  14.715  19.631  0.00  0.00    +0.000 C 
ENDBRANCH  27  28
ENDBRANCH  25  27
ENDBRANCH  21  22
ENDBRANCH  19  21
ENDBRANCH  18  19
ENDBRANCH   1  18
TORSDOF 10
ENDMDL
