MODEL 1
REMARK VINA RESULT:      -6.6      0.000      0.000
REMARK  Name = 
REMARK  5 active torsions:
REMARK  status: ('A' for Active; 'I' for Inactive)
REMARK    1  A    between atoms: C_1  and  C_2
REMARK    2  A    between atoms: C_12  and  O_13
REMARK    3  A    between atoms: O_13  and  S_14
REMARK    4  A    between atoms: S_14  and  O_17
REMARK    5  A    between atoms: C_20  and  C_21
REMARK                            x       y       z     vdW  Elec       q    Type
REMARK                         _______ _______ _______ _____ _____    ______ ____
ROOT
ATOM      1  C   UNL     1      -1.124   9.679  19.603  0.00  0.00    +0.000 C 
ATOM      2  C   UNL     1       0.316  10.175  19.819  0.00  0.00    +0.000 C 
ATOM      3  C   UNL     1       0.219  11.391  20.701  0.00  0.00    +0.000 C 
ATOM      4  C   UNL     1       0.329  11.030  21.992  0.00  0.00    +0.000 C 
ATOM      5  C   UNL     1       0.568   9.542  22.129  0.00  0.00    +0.000 C 
ATOM      6  C   UNL     1       1.133   9.255  20.737  0.00  0.00    +0.000 C 
ATOM      7  C   UNL     1       1.244   7.849  20.123  0.00  0.00    +0.000 C 
ATOM      8  C   UNL     1       1.730   6.814  21.121  0.00  0.00    +0.000 C 
ATOM      9  C   UNL     1       1.864   5.466  20.440  0.00  0.00    +0.000 C 
ATOM     10  C   UNL     1       2.824   5.488  19.248  0.00  0.00    +0.000 C 
ATOM     11  C   UNL     1       4.287   5.461  19.723  0.00  0.00    +0.000 C 
ATOM     12  C   UNL     1       5.124   5.266  18.467  0.00  0.00    +0.000 C 
ATOM     13  C   UNL     1       5.147   6.605  17.747  0.00  0.00    +0.000 C 
ATOM     14  C   UNL     1       3.747   6.839  17.178  0.00  0.00    +0.000 C 
ATOM     15  C   UNL     1       2.538   6.616  18.177  0.00  0.00    +0.000 C 
ATOM     16  C   UNL     1       1.368   6.099  17.299  0.00  0.00    +0.000 C 
ATOM     17  C   UNL     1       2.179   7.983  18.877  0.00  0.00    +0.000 C 
ATOM     18  C   UNL     1       1.609   9.058  17.896  0.00  0.00    +0.000 C 
ATOM     19  C   UNL     1       1.122  10.375  18.534  0.00  0.00    +0.000 C 
ENDROOT
BRANCH  12  20
ATOM     20  O   UNL     1       6.425   4.785  18.734  0.00  0.00    +0.000 OA
BRANCH  20  21
ATOM     21  S   UNL     1       7.473   4.700  17.483  0.00  0.00    +0.000 S 
ATOM     22  O   UNL     1       7.613   6.010  16.864  0.00  0.00    +0.000 OA
ATOM     23  O   UNL     1       8.626   3.946  17.906  0.00  0.00    +0.000 OA
BRANCH  21  24
ATOM     24  O   UNL     1       6.669   3.824  16.401  0.00  0.00    +0.000 OA
ATOM     25  H   UNL     1       5.807   3.595  16.803  0.00  0.00    +0.000 HD
ENDBRANCH  21  24
ENDBRANCH  20  21
ENDBRANCH  12  20
TORSDOF 3
ENDMDL
MODEL 2
REMARK VINA RESULT:      -6.6      8.220     10.518
REMARK  Name = 
REMARK  5 active torsions:
REMARK  status: ('A' for Active; 'I' for Inactive)
REMARK    1  A    between atoms: C_1  and  C_2
REMARK    2  A    between atoms: C_12  and  O_13
REMARK    3  A    between atoms: O_13  and  S_14
REMARK    4  A    between atoms: S_14  and  O_17
REMARK    5  A    between atoms: C_20  and  C_21
REMARK                            x       y       z     vdW  Elec       q    Type
REMARK                         _______ _______ _______ _____ _____    ______ ____
ROOT
ATOM      1  C   UNL     1       1.793  11.271  18.793  0.00  0.00    +0.000 C 
ATOM      2  C   UNL     1       0.621  10.285  18.944  0.00  0.00    +0.000 C 
ATOM      3  C   UNL     1       1.187   8.912  18.697  0.00  0.00    +0.000 C 
ATOM      4  C   UNL     1       1.578   8.362  19.861  0.00  0.00    +0.000 C 
ATOM      5  C   UNL     1       1.274   9.273  21.030  0.00  0.00    +0.000 C 
ATOM      6  C   UNL     1       0.166  10.118  20.400  0.00  0.00    +0.000 C 
ATOM      7  C   UNL     1      -0.322  11.463  20.965  0.00  0.00    +0.000 C 
ATOM      8  C   UNL     1      -0.456  11.446  22.476  0.00  0.00    +0.000 C 
ATOM      9  C   UNL     1      -0.986  12.782  22.961  0.00  0.00    +0.000 C 
ATOM     10  C   UNL     1      -2.342  13.147  22.351  0.00  0.00    +0.000 C 
ATOM     11  C   UNL     1      -3.479  12.377  23.043  0.00  0.00    +0.000 C 
ATOM     12  C   UNL     1      -4.770  12.980  22.509  0.00  0.00    +0.000 C 
ATOM     13  C   UNL     1      -4.955  12.435  21.102  0.00  0.00    +0.000 C 
ATOM     14  C   UNL     1      -3.893  13.090  20.218  0.00  0.00    +0.000 C 
ATOM     15  C   UNL     1      -2.410  13.071  20.773  0.00  0.00    +0.000 C 
ATOM     16  C   UNL     1      -1.755  14.375  20.244  0.00  0.00    +0.000 C 
ATOM     17  C   UNL     1      -1.666  11.789  20.236  0.00  0.00    +0.000 C 
ATOM     18  C   UNL     1      -1.445  11.796  18.688  0.00  0.00    +0.000 C 
ATOM     19  C   UNL     1      -0.615  10.631  18.111  0.00  0.00    +0.000 C 
ENDROOT
BRANCH  12  20
ATOM     20  O   UNL     1      -5.888  12.718  23.330  0.00  0.00    +0.000 OA
BRANCH  20  21
ATOM     21  S   UNL     1      -6.851  13.978  23.723  0.00  0.00    +0.000 S 
ATOM     22  O   UNL     1      -7.916  13.531  24.610  0.00  0.00    +0.000 OA
ATOM     23  O   UNL     1      -6.015  15.100  24.068  0.00  0.00    +0.000 OA
BRANCH  21  24
ATOM     24  O   UNL     1      -7.592  14.310  22.336  0.00  0.00    +0.000 OA
ATOM     25  H   UNL     1      -8.128  13.526  22.104  0.00  0.00    +0.000 HD
ENDBRANCH  21  24
ENDBRANCH  20  21
ENDBRANCH  12  20
TORSDOF 3
ENDMDL
MODEL 3
REMARK VINA RESULT:      -6.6      3.891      5.600
REMARK  Name = 
REMARK  5 active torsions:
REMARK  status: ('A' for Active; 'I' for Inactive)
REMARK    1  A    between atoms: C_1  and  C_2
REMARK    2  A    between atoms: C_12  and  O_13
REMARK    3  A    between atoms: O_13  and  S_14
REMARK    4  A    between atoms: S_14  and  O_17
REMARK    5  A    between atoms: C_20  and  C_21
REMARK                            x       y       z     vdW  Elec       q    Type
REMARK                         _______ _______ _______ _____ _____    ______ ____
ROOT
ATOM      1  C   UNL     1       2.923   3.986  21.640  0.00  0.00    +0.000 C 
ATOM      2  C   UNL     1       2.697   3.174  20.353  0.00  0.00    +0.000 C 
ATOM      3  C   UNL     1       1.415   2.408  20.554  0.00  0.00    +0.000 C 
ATOM      4  C   UNL     1       0.377   3.122  20.084  0.00  0.00    +0.000 C 
ATOM      5  C   UNL     1       0.840   4.423  19.465  0.00  0.00    +0.000 C 
ATOM      6  C   UNL     1       2.290   4.048  19.159  0.00  0.00    +0.000 C 
ATOM      7  C   UNL     1       3.398   5.067  18.842  0.00  0.00    +0.000 C 
ATOM      8  C   UNL     1       2.924   6.172  17.915  0.00  0.00    +0.000 C 
ATOM      9  C   UNL     1       4.074   7.111  17.604  0.00  0.00    +0.000 C 
ATOM     10  C   UNL     1       5.268   6.404  16.958  0.00  0.00    +0.000 C 
ATOM     11  C   UNL     1       5.005   6.137  15.467  0.00  0.00    +0.000 C 
ATOM     12  C   UNL     1       6.326   5.641  14.897  0.00  0.00    +0.000 C 
ATOM     13  C   UNL     1       6.485   4.201  15.357  0.00  0.00    +0.000 C 
ATOM     14  C   UNL     1       6.764   4.233  16.860  0.00  0.00    +0.000 C 
ATOM     15  C   UNL     1       5.795   5.131  17.734  0.00  0.00    +0.000 C 
ATOM     16  C   UNL     1       6.668   5.662  18.903  0.00  0.00    +0.000 C 
ATOM     17  C   UNL     1       4.596   4.251  18.258  0.00  0.00    +0.000 C 
ATOM     18  C   UNL     1       5.029   3.142  19.270  0.00  0.00    +0.000 C 
ATOM     19  C   UNL     1       3.892   2.325  19.917  0.00  0.00    +0.000 C 
ENDROOT
BRANCH  12  20
ATOM     20  O   UNL     1       6.406   5.761  13.492  0.00  0.00    +0.000 OA
BRANCH  20  21
ATOM     21  S   UNL     1       7.839   5.422  12.783  0.00  0.00    +0.000 S 
ATOM     22  O   UNL     1       8.931   5.760  13.685  0.00  0.00    +0.000 OA
ATOM     23  O   UNL     1       7.749   4.118  12.175  0.00  0.00    +0.000 OA
BRANCH  21  24
ATOM     24  O   UNL     1       7.927   6.518  11.611  0.00  0.00    +0.000 OA
ATOM     25  H   UNL     1       8.870   6.601  11.367  0.00  0.00    +0.000 HD
ENDBRANCH  21  24
ENDBRANCH  20  21
ENDBRANCH  12  20
TORSDOF 3
ENDMDL
MODEL 4
REMARK VINA RESULT:      -6.6      5.635      8.365
REMARK  Name = 
REMARK  5 active torsions:
REMARK  status: ('A' for Active; 'I' for Inactive)
REMARK    1  A    between atoms: C_1  and  C_2
REMARK    2  A    between atoms: C_12  and  O_13
REMARK    3  A    between atoms: O_13  and  S_14
REMARK    4  A    between atoms: S_14  and  O_17
REMARK    5  A    between atoms: C_20  and  C_21
REMARK                            x       y       z     vdW  Elec       q    Type
REMARK                         _______ _______ _______ _____ _____    ______ ____
ROOT
ATOM      1  C   UNL     1      -5.893  14.638  23.776  0.00  0.00    +0.000 C 
ATOM      2  C   UNL     1      -5.917  13.104  23.662  0.00  0.00    +0.000 C 
ATOM      3  C   UNL     1      -7.363  12.693  23.751  0.00  0.00    +0.000 C 
ATOM      4  C   UNL     1      -7.896  12.624  22.519  0.00  0.00    +0.000 C 
ATOM      5  C   UNL     1      -6.863  12.925  21.455  0.00  0.00    +0.000 C 
ATOM      6  C   UNL     1      -5.595  12.606  22.246  0.00  0.00    +0.000 C 
ATOM      7  C   UNL     1      -4.182  13.051  21.832  0.00  0.00    +0.000 C 
ATOM      8  C   UNL     1      -3.936  12.897  20.342  0.00  0.00    +0.000 C 
ATOM      9  C   UNL     1      -2.514  13.305  20.011  0.00  0.00    +0.000 C 
ATOM     10  C   UNL     1      -1.463  12.491  20.770  0.00  0.00    +0.000 C 
ATOM     11  C   UNL     1      -1.277  11.105  20.132  0.00  0.00    +0.000 C 
ATOM     12  C   UNL     1      -0.072  10.489  20.828  0.00  0.00    +0.000 C 
ATOM     13  C   UNL     1      -0.545  10.041  22.202  0.00  0.00    +0.000 C 
ATOM     14  C   UNL     1      -0.796  11.302  23.029  0.00  0.00    +0.000 C 
ATOM     15  C   UNL     1      -1.663  12.433  22.337  0.00  0.00    +0.000 C 
ATOM     16  C   UNL     1      -1.117  13.773  22.899  0.00  0.00    +0.000 C 
ATOM     17  C   UNL     1      -3.183  12.226  22.706  0.00  0.00    +0.000 C 
ATOM     18  C   UNL     1      -3.495  12.443  24.222  0.00  0.00    +0.000 C 
ATOM     19  C   UNL     1      -4.980  12.378  24.630  0.00  0.00    +0.000 C 
ENDROOT
BRANCH  12  20
ATOM     20  O   UNL     1       0.513   9.431  20.098  0.00  0.00    +0.000 OA
BRANCH  20  21
ATOM     21  S   UNL     1       1.016   9.748  18.576  0.00  0.00    +0.000 S 
ATOM     22  O   UNL     1       2.161   8.911  18.247  0.00  0.00    +0.000 OA
ATOM     23  O   UNL     1      -0.140   9.803  17.716  0.00  0.00    +0.000 OA
BRANCH  21  24
ATOM     24  O   UNL     1       1.620  11.232  18.700  0.00  0.00    +0.000 OA
ATOM     25  H   UNL     1       2.564  11.137  18.937  0.00  0.00    +0.000 HD
ENDBRANCH  21  24
ENDBRANCH  20  21
ENDBRANCH  12  20
TORSDOF 3
ENDMDL
MODEL 5
REMARK VINA RESULT:      -6.4      3.153      4.711
REMARK  Name = 
REMARK  5 active torsions:
REMARK  status: ('A' for Active; 'I' for Inactive)
REMARK    1  A    between atoms: C_1  and  C_2
REMARK    2  A    between atoms: C_12  and  O_13
REMARK    3  A    between atoms: O_13  and  S_14
REMARK    4  A    between atoms: S_14  and  O_17
REMARK    5  A    between atoms: C_20  and  C_21
REMARK                            x       y       z     vdW  Elec       q    Type
REMARK                         _______ _______ _______ _____ _____    ______ ____
ROOT
ATOM      1  C   UNL     1       0.214  14.868  19.021  0.00  0.00    +0.000 C 
ATOM      2  C   UNL     1       1.633  14.315  19.238  0.00  0.00    +0.000 C 
ATOM      3  C   UNL     1       2.458  15.457  19.767  0.00  0.00    +0.000 C 
ATOM      4  C   UNL     1       2.434  15.454  21.112  0.00  0.00    +0.000 C 
ATOM      5  C   UNL     1       1.639  14.283  21.645  0.00  0.00    +0.000 C 
ATOM      6  C   UNL     1       1.723  13.356  20.433  0.00  0.00    +0.000 C 
ATOM      7  C   UNL     1       0.810  12.138  20.211  0.00  0.00    +0.000 C 
ATOM      8  C   UNL     1       0.587  11.338  21.481  0.00  0.00    +0.000 C 
ATOM      9  C   UNL     1      -0.278  10.129  21.182  0.00  0.00    +0.000 C 
ATOM     10  C   UNL     1       0.326   9.207  20.120  0.00  0.00    +0.000 C 
ATOM     11  C   UNL     1       1.441   8.335  20.720  0.00  0.00    +0.000 C 
ATOM     12  C   UNL     1       1.803   7.326  19.640  0.00  0.00    +0.000 C 
ATOM     13  C   UNL     1       2.633   8.072  18.608  0.00  0.00    +0.000 C 
ATOM     14  C   UNL     1       1.691   9.024  17.870  0.00  0.00    +0.000 C 
ATOM     15  C   UNL     1       0.750   9.921  18.775  0.00  0.00    +0.000 C 
ATOM     16  C   UNL     1      -0.551  10.114  17.951  0.00  0.00    +0.000 C 
ATOM     17  C   UNL     1       1.463  11.298  19.066  0.00  0.00    +0.000 C 
ATOM     18  C   UNL     1       1.652  12.186  17.794  0.00  0.00    +0.000 C 
ATOM     19  C   UNL     1       2.230  13.597  18.025  0.00  0.00    +0.000 C 
ENDROOT
BRANCH  12  20
ATOM     20  O   UNL     1       2.475   6.190  20.142  0.00  0.00    +0.000 OA
BRANCH  20  21
ATOM     21  S   UNL     1       1.976   4.723  19.624  0.00  0.00    +0.000 S 
ATOM     22  O   UNL     1       0.851   4.270  20.428  0.00  0.00    +0.000 OA
ATOM     23  O   UNL     1       1.903   4.749  18.185  0.00  0.00    +0.000 OA
BRANCH  21  24
ATOM     24  O   UNL     1       3.192   3.761  20.049  0.00  0.00    +0.000 OA
ATOM     25  H   UNL     1       3.494   3.308  19.237  0.00  0.00    +0.000 HD
ENDBRANCH  21  24
ENDBRANCH  20  21
ENDBRANCH  12  20
TORSDOF 3
ENDMDL
MODEL 6
REMARK VINA RESULT:      -6.4      8.112     10.408
REMARK  Name = 
REMARK  5 active torsions:
REMARK  status: ('A' for Active; 'I' for Inactive)
REMARK    1  A    between atoms: C_1  and  C_2
REMARK    2  A    between atoms: C_12  and  O_13
REMARK    3  A    between atoms: O_13  and  S_14
REMARK    4  A    between atoms: S_14  and  O_17
REMARK    5  A    between atoms: C_20  and  C_21
REMARK                            x       y       z     vdW  Elec       q    Type
REMARK                         _______ _______ _______ _____ _____    ______ ____
ROOT
ATOM      1  C   UNL     1       1.704  11.137  18.402  0.00  0.00    +0.000 C 
ATOM      2  C   UNL     1       0.533  10.170  18.641  0.00  0.00    +0.000 C 
ATOM      3  C   UNL     1       1.060   8.787  18.361  0.00  0.00    +0.000 C 
ATOM      4  C   UNL     1       1.525   8.236  19.495  0.00  0.00    +0.000 C 
ATOM      5  C   UNL     1       1.319   9.156  20.679  0.00  0.00    +0.000 C 
ATOM      6  C   UNL     1       0.181  10.015  20.127  0.00  0.00    +0.000 C 
ATOM      7  C   UNL     1      -0.246  11.369  20.719  0.00  0.00    +0.000 C 
ATOM      8  C   UNL     1      -0.271  11.360  22.236  0.00  0.00    +0.000 C 
ATOM      9  C   UNL     1      -0.745  12.704  22.751  0.00  0.00    +0.000 C 
ATOM     10  C   UNL     1      -2.136  13.087  22.239  0.00  0.00    +0.000 C 
ATOM     11  C   UNL     1      -3.231  12.337  23.014  0.00  0.00    +0.000 C 
ATOM     12  C   UNL     1      -4.549  12.957  22.571  0.00  0.00    +0.000 C 
ATOM     13  C   UNL     1      -4.842  12.410  21.184  0.00  0.00    +0.000 C 
ATOM     14  C   UNL     1      -3.837  13.046  20.223  0.00  0.00    +0.000 C 
ATOM     15  C   UNL     1      -2.318  13.007  20.670  0.00  0.00    +0.000 C 
ATOM     16  C   UNL     1      -1.685  14.299  20.089  0.00  0.00    +0.000 C 
ATOM     17  C   UNL     1      -1.634  11.712  20.086  0.00  0.00    +0.000 C 
ATOM     18  C   UNL     1      -1.524  11.710  18.527  0.00  0.00    +0.000 C 
ATOM     19  C   UNL     1      -0.755  10.531  17.898  0.00  0.00    +0.000 C 
ENDROOT
BRANCH  12  20
ATOM     20  O   UNL     1      -5.609  12.715  23.472  0.00  0.00    +0.000 OA
BRANCH  20  21
ATOM     21  S   UNL     1      -6.961  13.618  23.312  0.00  0.00    +0.000 S 
ATOM     22  O   UNL     1      -6.604  14.986  22.965  0.00  0.00    +0.000 OA
ATOM     23  O   UNL     1      -7.916  12.874  22.531  0.00  0.00    +0.000 OA
BRANCH  21  24
ATOM     24  O   UNL     1      -7.509  13.713  24.820  0.00  0.00    +0.000 OA
ATOM     25  H   UNL     1      -7.228  12.896  25.278  0.00  0.00    +0.000 HD
ENDBRANCH  21  24
ENDBRANCH  20  21
ENDBRANCH  12  20
TORSDOF 3
ENDMDL
MODEL 7
REMARK VINA RESULT:      -6.4      5.758      8.414
REMARK  Name = 
REMARK  5 active torsions:
REMARK  status: ('A' for Active; 'I' for Inactive)
REMARK    1  A    between atoms: C_1  and  C_2
REMARK    2  A    between atoms: C_12  and  O_13
REMARK    3  A    between atoms: O_13  and  S_14
REMARK    4  A    between atoms: S_14  and  O_17
REMARK    5  A    between atoms: C_20  and  C_21
REMARK                            x       y       z     vdW  Elec       q    Type
REMARK                         _______ _______ _______ _____ _____    ______ ____
ROOT
ATOM      1  C   UNL     1       1.117  18.631  19.279  0.00  0.00    +0.000 C 
ATOM      2  C   UNL     1       0.575  17.646  18.229  0.00  0.00    +0.000 C 
ATOM      3  C   UNL     1       0.739  18.318  16.892  0.00  0.00    +0.000 C 
ATOM      4  C   UNL     1       1.922  17.978  16.351  0.00  0.00    +0.000 C 
ATOM      5  C   UNL     1       2.669  16.999  17.231  0.00  0.00    +0.000 C 
ATOM      6  C   UNL     1       1.490  16.431  18.022  0.00  0.00    +0.000 C 
ATOM      7  C   UNL     1       1.629  15.637  19.332  0.00  0.00    +0.000 C 
ATOM      8  C   UNL     1       2.775  14.642  19.291  0.00  0.00    +0.000 C 
ATOM      9  C   UNL     1       2.825  13.862  20.590  0.00  0.00    +0.000 C 
ATOM     10  C   UNL     1       1.527  13.106  20.887  0.00  0.00    +0.000 C 
ATOM     11  C   UNL     1       1.438  11.821  20.049  0.00  0.00    +0.000 C 
ATOM     12  C   UNL     1       0.234  11.060  20.586  0.00  0.00    +0.000 C 
ATOM     13  C   UNL     1      -1.001  11.765  20.048  0.00  0.00    +0.000 C 
ATOM     14  C   UNL     1      -1.108  13.108  20.769  0.00  0.00    +0.000 C 
ATOM     15  C   UNL     1       0.212  13.982  20.826  0.00  0.00    +0.000 C 
ATOM     16  C   UNL     1       0.138  14.755  22.169  0.00  0.00    +0.000 C 
ATOM     17  C   UNL     1       0.243  14.963  19.592  0.00  0.00    +0.000 C 
ATOM     18  C   UNL     1      -0.880  16.050  19.628  0.00  0.00    +0.000 C 
ATOM     19  C   UNL     1      -0.833  17.119  18.517  0.00  0.00    +0.000 C 
ENDROOT
BRANCH  12  20
ATOM     20  O   UNL     1       0.248   9.688  20.255  0.00  0.00    +0.000 OA
BRANCH  20  21
ATOM     21  S   UNL     1       0.483   8.618  21.467  0.00  0.00    +0.000 S 
ATOM     22  O   UNL     1      -0.794   8.262  22.068  0.00  0.00    +0.000 OA
ATOM     23  O   UNL     1       1.401   7.605  21.009  0.00  0.00    +0.000 OA
BRANCH  21  24
ATOM     24  O   UNL     1       1.226   9.502  22.586  0.00  0.00    +0.000 OA
ATOM     25  H   UNL     1       2.112   9.110  22.717  0.00  0.00    +0.000 HD
ENDBRANCH  21  24
ENDBRANCH  20  21
ENDBRANCH  12  20
TORSDOF 3
ENDMDL
MODEL 8
REMARK VINA RESULT:      -6.3      3.040      4.951
REMARK  Name = 
REMARK  5 active torsions:
REMARK  status: ('A' for Active; 'I' for Inactive)
REMARK    1  A    between atoms: C_1  and  C_2
REMARK    2  A    between atoms: C_12  and  O_13
REMARK    3  A    between atoms: O_13  and  S_14
REMARK    4  A    between atoms: S_14  and  O_17
REMARK    5  A    between atoms: C_20  and  C_21
REMARK                            x       y       z     vdW  Elec       q    Type
REMARK                         _______ _______ _______ _____ _____    ______ ____
ROOT
ATOM      1  C   UNL     1      -2.249  14.707  20.452  0.00  0.00    +0.000 C 
ATOM      2  C   UNL     1      -0.722  14.656  20.278  0.00  0.00    +0.000 C 
ATOM      3  C   UNL     1      -0.187  15.947  20.841  0.00  0.00    +0.000 C 
ATOM      4  C   UNL     1       0.126  15.785  22.139  0.00  0.00    +0.000 C 
ATOM      5  C   UNL     1      -0.109  14.359  22.587  0.00  0.00    +0.000 C 
ATOM      6  C   UNL     1      -0.045  13.660  21.229  0.00  0.00    +0.000 C 
ATOM      7  C   UNL     1      -0.561  12.235  20.965  0.00  0.00    +0.000 C 
ATOM      8  C   UNL     1      -0.202  11.270  22.080  0.00  0.00    +0.000 C 
ATOM      9  C   UNL     1      -0.695   9.878  21.734  0.00  0.00    +0.000 C 
ATOM     10  C   UNL     1      -0.119   9.347  20.419  0.00  0.00    +0.000 C 
ATOM     11  C   UNL     1       1.323   8.852  20.613  0.00  0.00    +0.000 C 
ATOM     12  C   UNL     1       1.700   8.157  19.313  0.00  0.00    +0.000 C 
ATOM     13  C   UNL     1       1.975   9.255  18.297  0.00  0.00    +0.000 C 
ATOM     14  C   UNL     1       0.633   9.900  17.951  0.00  0.00    +0.000 C 
ATOM     15  C   UNL     1      -0.285  10.310  19.176  0.00  0.00    +0.000 C 
ATOM     16  C   UNL     1      -1.743  10.134  18.676  0.00  0.00    +0.000 C 
ATOM     17  C   UNL     1       0.015  11.806  19.576  0.00  0.00    +0.000 C 
ATOM     18  C   UNL     1      -0.403  12.842  18.483  0.00  0.00    +0.000 C 
ATOM     19  C   UNL     1      -0.252  14.330  18.858  0.00  0.00    +0.000 C 
ENDROOT
BRANCH  12  20
ATOM     20  O   UNL     1       2.794   7.275  19.449  0.00  0.00    +0.000 OA
BRANCH  20  21
ATOM     21  S   UNL     1       2.475   5.673  19.490  0.00  0.00    +0.000 S 
ATOM     22  O   UNL     1       1.713   5.350  20.687  0.00  0.00    +0.000 OA
ATOM     23  O   UNL     1       2.023   5.265  18.183  0.00  0.00    +0.000 OA
BRANCH  21  24
ATOM     24  O   UNL     1       3.924   5.026  19.745  0.00  0.00    +0.000 OA
ATOM     25  H   UNL     1       4.246   5.373  20.600  0.00  0.00    +0.000 HD
ENDBRANCH  21  24
ENDBRANCH  20  21
ENDBRANCH  12  20
TORSDOF 3
ENDMDL
MODEL 9
REMARK VINA RESULT:      -6.2      5.909      7.523
REMARK  Name = 
REMARK  5 active torsions:
REMARK  status: ('A' for Active; 'I' for Inactive)
REMARK    1  A    between atoms: C_1  and  C_2
REMARK    2  A    between atoms: C_12  and  O_13
REMARK    3  A    between atoms: O_13  and  S_14
REMARK    4  A    between atoms: S_14  and  O_17
REMARK    5  A    between atoms: C_20  and  C_21
REMARK                            x       y       z     vdW  Elec       q    Type
REMARK                         _______ _______ _______ _____ _____    ______ ____
ROOT
ATOM      1  C   UNL     1      -3.913   9.248  18.325  0.00  0.00    +0.000 C 
ATOM      2  C   UNL     1      -3.411  10.410  17.450  0.00  0.00    +0.000 C 
ATOM      3  C   UNL     1      -4.587  10.856  16.621  0.00  0.00    +0.000 C 
ATOM      4  C   UNL     1      -5.246  11.842  17.255  0.00  0.00    +0.000 C 
ATOM      5  C   UNL     1      -4.565  12.212  18.554  0.00  0.00    +0.000 C 
ATOM      6  C   UNL     1      -3.159  11.694  18.251  0.00  0.00    +0.000 C 
ATOM      7  C   UNL     1      -2.077  11.454  19.318  0.00  0.00    +0.000 C 
ATOM      8  C   UNL     1      -2.027  12.560  20.355  0.00  0.00    +0.000 C 
ATOM      9  C   UNL     1      -0.911  12.287  21.345  0.00  0.00    +0.000 C 
ATOM     10  C   UNL     1       0.465  12.172  20.682  0.00  0.00    +0.000 C 
ATOM     11  C   UNL     1       1.026  13.562  20.341  0.00  0.00    +0.000 C 
ATOM     12  C   UNL     1       2.464  13.329  19.898  0.00  0.00    +0.000 C 
ATOM     13  C   UNL     1       2.398  12.762  18.489  0.00  0.00    +0.000 C 
ATOM     14  C   UNL     1       1.851  11.339  18.598  0.00  0.00    +0.000 C 
ATOM     15  C   UNL     1       0.544  11.155  19.474  0.00  0.00    +0.000 C 
ATOM     16  C   UNL     1       0.662   9.740  20.099  0.00  0.00    +0.000 C 
ATOM     17  C   UNL     1      -0.728  11.276  18.548  0.00  0.00    +0.000 C 
ATOM     18  C   UNL     1      -0.857  10.117  17.507  0.00  0.00    +0.000 C 
ATOM     19  C   UNL     1      -2.141  10.106  16.653  0.00  0.00    +0.000 C 
ENDROOT
BRANCH  12  20
ATOM     20  O   UNL     1       3.263  14.491  19.966  0.00  0.00    +0.000 OA
BRANCH  20  21
ATOM     21  S   UNL     1       4.141  14.729  21.323  0.00  0.00    +0.000 S 
ATOM     22  O   UNL     1       4.105  13.534  22.153  0.00  0.00    +0.000 OA
ATOM     23  O   UNL     1       5.391  15.345  20.954  0.00  0.00    +0.000 OA
BRANCH  21  24
ATOM     24  O   UNL     1       3.267  15.810  22.130  0.00  0.00    +0.000 OA
ATOM     25  H   UNL     1       3.143  16.578  21.537  0.00  0.00    +0.000 HD
ENDBRANCH  21  24
ENDBRANCH  20  21
ENDBRANCH  12  20
TORSDOF 3
ENDMDL
