MODEL 1
REMARK VINA RESULT:      -7.9      0.000      0.000
REMARK  Name = 
REMARK  11 active torsions:
REMARK  status: ('A' for Active; 'I' for Inactive)
REMARK    1  A    between atoms: C_1  and  C_2
REMARK    2  A    between atoms: C_2  and  C_3
REMARK    3  A    between atoms: C_6  and  C_7
REMARK    4  A    between atoms: C_9  and  C_10
REMARK    5  A    between atoms: C_10  and  S_11
REMARK    6  A    between atoms: S_11  and  C_13
REMARK    7  A    between atoms: C_13  and  C_14
REMARK    8  A    between atoms: N_16  and  C_17
REMARK    9  A    between atoms: C_17  and  C_18
REMARK   10  A    between atoms: C_18  and  C_19
REMARK   11  A    between atoms: C_25  and  C_26
REMARK                            x       y       z     vdW  Elec       q    Type
REMARK                         _______ _______ _______ _____ _____    ______ ____
ROOT
ATOM      1  C   UNL     1       2.818   5.187  20.238  0.00  0.00    +0.000 C 
ENDROOT
BRANCH   1   4
ATOM      2  C   UNL     1       1.147   8.311  20.587  0.00  0.00    +0.000 A 
ATOM      3  N   UNL     1       1.441   7.110  21.057  0.00  0.00    +0.000 NA
ATOM      4  C   UNL     1       2.254   6.553  20.088  0.00  0.00    +0.000 A 
ATOM      5  C   UNL     1       2.424   7.466  19.068  0.00  0.00    +0.000 A 
ATOM      6  C   UNL     1       3.212   7.523  17.827  0.00  0.00    +0.000 C 
ATOM      7  O   UNL     1       1.694   8.579  19.365  0.00  0.00    +0.000 OA
BRANCH   2  11
ATOM      8  C   UNL     1      -0.904  11.573  22.395  0.00  0.00    +0.000 A 
ATOM      9  C   UNL     1      -0.524  11.628  21.051  0.00  0.00    +0.000 A 
ATOM     10  C   UNL     1       0.037  10.512  20.430  0.00  0.00    +0.000 A 
ATOM     11  C   UNL     1       0.287   9.342  21.155  0.00  0.00    +0.000 A 
ATOM     12  C   UNL     1      -0.200   9.252  22.465  0.00  0.00    +0.000 A 
ATOM     13  C   UNL     1      -0.800  10.357  23.078  0.00  0.00    +0.000 A 
BRANCH   8  15
ATOM     14  C   UNL     1      -0.601  14.045  22.651  0.00  0.00    +0.000 C 
ATOM     15  C   UNL     1      -1.376  12.819  23.098  0.00  0.00    +0.000 C 
ENDBRANCH   8  15
ENDBRANCH   2  11
ENDBRANCH   1   4
BRANCH   1  16
ATOM     16  S   UNL     1       1.701   4.058  21.126  0.00  0.00    +0.000 S 
ATOM     17  O   UNL     1       0.557   3.598  20.149  0.00  0.00    +0.000 OA
BRANCH  16  18
ATOM     18  C   UNL     1       2.861   2.679  21.379  0.00  0.00    +0.000 C 
BRANCH  18  19
ATOM     19  C   UNL     1       3.645   2.368  20.120  0.00  0.00    +0.000 C 
ATOM     20  O   UNL     1       4.870   2.268  20.128  0.00  0.00    +0.000 OA
ATOM     21  N   UNL     1       2.894   2.207  18.977  0.00  0.00    +0.000 N 
ATOM     22  H   UNL     1       1.894   2.381  19.002  0.00  0.00    +0.000 HD
BRANCH  21  23
ATOM     23  C   UNL     1       3.558   2.093  17.683  0.00  0.00    +0.000 C 
BRANCH  23  24
ATOM     24  C   UNL     1       3.509   3.370  16.829  0.00  0.00    +0.000 C 
BRANCH  24  25
ATOM     25  C   UNL     1       4.841   4.043  16.563  0.00  0.00    +0.000 A 
ATOM     26  C   UNL     1       5.648   4.443  17.643  0.00  0.00    +0.000 A 
ATOM     27  C   UNL     1       6.888   5.060  17.422  0.00  0.00    +0.000 A 
ATOM     28  C   UNL     1       7.324   5.309  16.127  0.00  0.00    +0.000 A 
ATOM     29  C   UNL     1       6.520   4.949  15.055  0.00  0.00    +0.000 A 
ATOM     30  C   UNL     1       5.311   4.289  15.272  0.00  0.00    +0.000 A 
ENDBRANCH  24  25
ENDBRANCH  23  24
ENDBRANCH  21  23
ENDBRANCH  18  19
ENDBRANCH  16  18
ENDBRANCH   1  16
TORSDOF 9
ENDMDL
MODEL 2
REMARK VINA RESULT:      -7.7      4.896      6.495
REMARK  Name = 
REMARK  11 active torsions:
REMARK  status: ('A' for Active; 'I' for Inactive)
REMARK    1  A    between atoms: C_1  and  C_2
REMARK    2  A    between atoms: C_2  and  C_3
REMARK    3  A    between atoms: C_6  and  C_7
REMARK    4  A    between atoms: C_9  and  C_10
REMARK    5  A    between atoms: C_10  and  S_11
REMARK    6  A    between atoms: S_11  and  C_13
REMARK    7  A    between atoms: C_13  and  C_14
REMARK    8  A    between atoms: N_16  and  C_17
REMARK    9  A    between atoms: C_17  and  C_18
REMARK   10  A    between atoms: C_18  and  C_19
REMARK   11  A    between atoms: C_25  and  C_26
REMARK                            x       y       z     vdW  Elec       q    Type
REMARK                         _______ _______ _______ _____ _____    ______ ____
ROOT
ATOM      1  C   UNL     1       5.221   4.004  16.544  0.00  0.00    +0.000 C 
ENDROOT
BRANCH   1   4
ATOM      2  C   UNL     1       3.107   6.000  18.598  0.00  0.00    +0.000 A 
ATOM      3  N   UNL     1       3.725   5.796  17.447  0.00  0.00    +0.000 NA
ATOM      4  C   UNL     1       4.397   4.602  17.626  0.00  0.00    +0.000 A 
ATOM      5  C   UNL     1       4.136   4.128  18.895  0.00  0.00    +0.000 A 
ATOM      6  C   UNL     1       4.467   2.912  19.653  0.00  0.00    +0.000 C 
ATOM      7  O   UNL     1       3.339   5.033  19.532  0.00  0.00    +0.000 OA
BRANCH   2  11
ATOM      8  C   UNL     1       1.161   9.553  19.905  0.00  0.00    +0.000 A 
ATOM      9  C   UNL     1       1.478   9.369  18.555  0.00  0.00    +0.000 A 
ATOM     10  C   UNL     1       2.003   8.155  18.112  0.00  0.00    +0.000 A 
ATOM     11  C   UNL     1       2.280   7.125  19.017  0.00  0.00    +0.000 A 
ATOM     12  C   UNL     1       1.856   7.270  20.344  0.00  0.00    +0.000 A 
ATOM     13  C   UNL     1       1.292   8.473  20.783  0.00  0.00    +0.000 A 
BRANCH   8  15
ATOM     14  C   UNL     1       0.911  11.980  19.341  0.00  0.00    +0.000 C 
ATOM     15  C   UNL     1       0.730  10.909  20.401  0.00  0.00    +0.000 C 
ENDBRANCH   8  15
ENDBRANCH   2  11
ENDBRANCH   1   4
BRANCH   1  16
ATOM     16  S   UNL     1       6.912   4.674  16.496  0.00  0.00    +0.000 S 
ATOM     17  O   UNL     1       7.469   4.551  15.030  0.00  0.00    +0.000 OA
BRANCH  16  18
ATOM     18  C   UNL     1       6.518   6.417  16.841  0.00  0.00    +0.000 C 
BRANCH  18  19
ATOM     19  C   UNL     1       7.513   7.037  17.801  0.00  0.00    +0.000 C 
ATOM     20  O   UNL     1       8.003   6.397  18.728  0.00  0.00    +0.000 OA
ATOM     21  N   UNL     1       7.826   8.357  17.561  0.00  0.00    +0.000 N 
ATOM     22  H   UNL     1       7.334   8.868  16.835  0.00  0.00    +0.000 HD
BRANCH  21  23
ATOM     23  C   UNL     1       8.623   9.100  18.531  0.00  0.00    +0.000 C 
BRANCH  23  24
ATOM     24  C   UNL     1       8.656  10.619  18.296  0.00  0.00    +0.000 C 
BRANCH  24  25
ATOM     25  C   UNL     1       9.949  11.320  18.664  0.00  0.00    +0.000 A 
ATOM     26  C   UNL     1      10.182  11.700  19.997  0.00  0.00    +0.000 A 
ATOM     27  C   UNL     1      11.374  12.342  20.362  0.00  0.00    +0.000 A 
ATOM     28  C   UNL     1      12.333  12.636  19.401  0.00  0.00    +0.000 A 
ATOM     29  C   UNL     1      12.098  12.295  18.077  0.00  0.00    +0.000 A 
ATOM     30  C   UNL     1      10.937  11.611  17.721  0.00  0.00    +0.000 A 
ENDBRANCH  24  25
ENDBRANCH  23  24
ENDBRANCH  21  23
ENDBRANCH  18  19
ENDBRANCH  16  18
ENDBRANCH   1  16
TORSDOF 9
ENDMDL
MODEL 3
REMARK VINA RESULT:      -7.4      1.304      1.831
REMARK  Name = 
REMARK  11 active torsions:
REMARK  status: ('A' for Active; 'I' for Inactive)
REMARK    1  A    between atoms: C_1  and  C_2
REMARK    2  A    between atoms: C_2  and  C_3
REMARK    3  A    between atoms: C_6  and  C_7
REMARK    4  A    between atoms: C_9  and  C_10
REMARK    5  A    between atoms: C_10  and  S_11
REMARK    6  A    between atoms: S_11  and  C_13
REMARK    7  A    between atoms: C_13  and  C_14
REMARK    8  A    between atoms: N_16  and  C_17
REMARK    9  A    between atoms: C_17  and  C_18
REMARK   10  A    between atoms: C_18  and  C_19
REMARK   11  A    between atoms: C_25  and  C_26
REMARK                            x       y       z     vdW  Elec       q    Type
REMARK                         _______ _______ _______ _____ _____    ______ ____
ROOT
ATOM      1  C   UNL     1       2.864   5.138  20.526  0.00  0.00    +0.000 C 
ENDROOT
BRANCH   1   4
ATOM      2  C   UNL     1       1.114   8.232  20.724  0.00  0.00    +0.000 A 
ATOM      3  N   UNL     1       1.460   7.075  21.264  0.00  0.00    +0.000 NA
ATOM      4  C   UNL     1       2.254   6.474  20.305  0.00  0.00    +0.000 A 
ATOM      5  C   UNL     1       2.361   7.319  19.220  0.00  0.00    +0.000 A 
ATOM      6  C   UNL     1       3.101   7.312  17.949  0.00  0.00    +0.000 C 
ATOM      7  O   UNL     1       1.608   8.429  19.468  0.00  0.00    +0.000 OA
BRANCH   2  11
ATOM      8  C   UNL     1      -0.968  11.536  22.419  0.00  0.00    +0.000 A 
ATOM      9  C   UNL     1      -0.566  11.558  21.080  0.00  0.00    +0.000 A 
ATOM     10  C   UNL     1       0.006  10.427  20.495  0.00  0.00    +0.000 A 
ATOM     11  C   UNL     1       0.244   9.276  21.253  0.00  0.00    +0.000 A 
ATOM     12  C   UNL     1      -0.263   9.217  22.557  0.00  0.00    +0.000 A 
ATOM     13  C   UNL     1      -0.873  10.337  23.133  0.00  0.00    +0.000 A 
BRANCH   8  15
ATOM     14  C   UNL     1      -2.669  13.372  22.382  0.00  0.00    +0.000 C 
ATOM     15  C   UNL     1      -1.451  12.798  23.082  0.00  0.00    +0.000 C 
ENDBRANCH   8  15
ENDBRANCH   2  11
ENDBRANCH   1   4
BRANCH   1  16
ATOM     16  S   UNL     1       1.883   3.788  19.799  0.00  0.00    +0.000 S 
ATOM     17  O   UNL     1       1.286   4.273  18.427  0.00  0.00    +0.000 OA
BRANCH  16  18
ATOM     18  C   UNL     1       3.239   2.616  19.480  0.00  0.00    +0.000 C 
BRANCH  18  19
ATOM     19  C   UNL     1       3.669   2.639  18.027  0.00  0.00    +0.000 C 
ATOM     20  O   UNL     1       3.588   1.642  17.313  0.00  0.00    +0.000 OA
ATOM     21  N   UNL     1       4.150   3.845  17.569  0.00  0.00    +0.000 N 
ATOM     22  H   UNL     1       4.277   4.616  18.216  0.00  0.00    +0.000 HD
BRANCH  21  23
ATOM     23  C   UNL     1       4.763   3.925  16.248  0.00  0.00    +0.000 C 
BRANCH  23  24
ATOM     24  C   UNL     1       6.299   3.980  16.262  0.00  0.00    +0.000 C 
BRANCH  24  25
ATOM     25  C   UNL     1       6.916   5.108  17.067  0.00  0.00    +0.000 A 
ATOM     26  C   UNL     1       7.509   4.833  18.311  0.00  0.00    +0.000 A 
ATOM     27  C   UNL     1       8.093   5.857  19.070  0.00  0.00    +0.000 A 
ATOM     28  C   UNL     1       8.069   7.168  18.611  0.00  0.00    +0.000 A 
ATOM     29  C   UNL     1       7.456   7.455  17.399  0.00  0.00    +0.000 A 
ATOM     30  C   UNL     1       6.921   6.430  16.620  0.00  0.00    +0.000 A 
ENDBRANCH  24  25
ENDBRANCH  23  24
ENDBRANCH  21  23
ENDBRANCH  18  19
ENDBRANCH  16  18
ENDBRANCH   1  16
TORSDOF 9
ENDMDL
MODEL 4
REMARK VINA RESULT:      -7.4      3.153      4.741
REMARK  Name = 
REMARK  11 active torsions:
REMARK  status: ('A' for Active; 'I' for Inactive)
REMARK    1  A    between atoms: C_1  and  C_2
REMARK    2  A    between atoms: C_2  and  C_3
REMARK    3  A    between atoms: C_6  and  C_7
REMARK    4  A    between atoms: C_9  and  C_10
REMARK    5  A    between atoms: C_10  and  S_11
REMARK    6  A    between atoms: S_11  and  C_13
REMARK    7  A    between atoms: C_13  and  C_14
REMARK    8  A    between atoms: N_16  and  C_17
REMARK    9  A    between atoms: C_17  and  C_18
REMARK   10  A    between atoms: C_18  and  C_19
REMARK   11  A    between atoms: C_25  and  C_26
REMARK                            x       y       z     vdW  Elec       q    Type
REMARK                         _______ _______ _______ _____ _____    ______ ____
ROOT
ATOM      1  C   UNL     1       5.383   4.526  19.396  0.00  0.00    +0.000 C 
ENDROOT
BRANCH   1   4
ATOM      2  C   UNL     1       2.759   6.869  18.849  0.00  0.00    +0.000 A 
ATOM      3  N   UNL     1       3.896   6.539  19.439  0.00  0.00    +0.000 NA
ATOM      4  C   UNL     1       4.167   5.266  18.973  0.00  0.00    +0.000 A 
ATOM      5  C   UNL     1       3.169   4.889  18.098  0.00  0.00    +0.000 A 
ATOM      6  C   UNL     1       2.914   3.731  17.228  0.00  0.00    +0.000 C 
ATOM      7  O   UNL     1       2.250   5.895  18.040  0.00  0.00    +0.000 OA
BRANCH   2  11
ATOM      8  C   UNL     1      -0.008  10.077  19.261  0.00  0.00    +0.000 A 
ATOM      9  C   UNL     1       0.504   9.428  20.389  0.00  0.00    +0.000 A 
ATOM     10  C   UNL     1       1.501   8.461  20.256  0.00  0.00    +0.000 A 
ATOM     11  C   UNL     1       1.961   8.081  18.991  0.00  0.00    +0.000 A 
ATOM     12  C   UNL     1       1.532   8.811  17.876  0.00  0.00    +0.000 A 
ATOM     13  C   UNL     1       0.561   9.810  18.012  0.00  0.00    +0.000 A 
BRANCH   8  15
ATOM     14  C   UNL     1      -0.737  12.462  19.483  0.00  0.00    +0.000 C 
ATOM     15  C   UNL     1      -1.180  11.013  19.396  0.00  0.00    +0.000 C 
ENDBRANCH   8  15
ENDBRANCH   2  11
ENDBRANCH   1   4
BRANCH   1  16
ATOM     16  S   UNL     1       6.903   5.512  19.225  0.00  0.00    +0.000 S 
ATOM     17  O   UNL     1       7.776   5.334  20.522  0.00  0.00    +0.000 OA
BRANCH  16  18
ATOM     18  C   UNL     1       7.669   4.588  17.857  0.00  0.00    +0.000 C 
BRANCH  18  19
ATOM     19  C   UNL     1       7.241   5.127  16.508  0.00  0.00    +0.000 C 
ATOM     20  O   UNL     1       7.598   6.233  16.110  0.00  0.00    +0.000 OA
ATOM     21  N   UNL     1       6.433   4.295  15.765  0.00  0.00    +0.000 N 
ATOM     22  H   UNL     1       6.096   3.427  16.169  0.00  0.00    +0.000 HD
BRANCH  21  23
ATOM     23  C   UNL     1       5.814   4.790  14.541  0.00  0.00    +0.000 C 
BRANCH  23  24
ATOM     24  C   UNL     1       6.719   4.728  13.301  0.00  0.00    +0.000 C 
BRANCH  24  25
ATOM     25  C   UNL     1       6.504   3.543  12.379  0.00  0.00    +0.000 A 
ATOM     26  C   UNL     1       5.198   3.100  12.107  0.00  0.00    +0.000 A 
ATOM     27  C   UNL     1       4.973   2.012  11.251  0.00  0.00    +0.000 A 
ATOM     28  C   UNL     1       6.044   1.338  10.680  0.00  0.00    +0.000 A 
ATOM     29  C   UNL     1       7.339   1.747  10.969  0.00  0.00    +0.000 A 
ATOM     30  C   UNL     1       7.562   2.860  11.778  0.00  0.00    +0.000 A 
ENDBRANCH  24  25
ENDBRANCH  23  24
ENDBRANCH  21  23
ENDBRANCH  18  19
ENDBRANCH  16  18
ENDBRANCH   1  16
TORSDOF 9
ENDMDL
MODEL 5
REMARK VINA RESULT:      -7.2      4.709      7.459
REMARK  Name = 
REMARK  11 active torsions:
REMARK  status: ('A' for Active; 'I' for Inactive)
REMARK    1  A    between atoms: C_1  and  C_2
REMARK    2  A    between atoms: C_2  and  C_3
REMARK    3  A    between atoms: C_6  and  C_7
REMARK    4  A    between atoms: C_9  and  C_10
REMARK    5  A    between atoms: C_10  and  S_11
REMARK    6  A    between atoms: S_11  and  C_13
REMARK    7  A    between atoms: C_13  and  C_14
REMARK    8  A    between atoms: N_16  and  C_17
REMARK    9  A    between atoms: C_17  and  C_18
REMARK   10  A    between atoms: C_18  and  C_19
REMARK   11  A    between atoms: C_25  and  C_26
REMARK                            x       y       z     vdW  Elec       q    Type
REMARK                         _______ _______ _______ _____ _____    ______ ____
ROOT
ATOM      1  C   UNL     1       5.720   6.475  16.353  0.00  0.00    +0.000 C 
ENDROOT
BRANCH   1   4
ATOM      2  C   UNL     1       7.875   8.786  17.991  0.00  0.00    +0.000 A 
ATOM      3  N   UNL     1       6.898   8.540  17.135  0.00  0.00    +0.000 NA
ATOM      4  C   UNL     1       6.742   7.168  17.178  0.00  0.00    +0.000 A 
ATOM      5  C   UNL     1       7.642   6.644  18.083  0.00  0.00    +0.000 A 
ATOM      6  C   UNL     1       7.924   5.311  18.635  0.00  0.00    +0.000 C 
ATOM      7  O   UNL     1       8.391   7.670  18.582  0.00  0.00    +0.000 OA
BRANCH   2  11
ATOM      8  C   UNL     1      10.089  12.369  18.610  0.00  0.00    +0.000 A 
ATOM      9  C   UNL     1       9.060  12.322  17.664  0.00  0.00    +0.000 A 
ATOM     10  C   UNL     1       8.257  11.186  17.550  0.00  0.00    +0.000 A 
ATOM     11  C   UNL     1       8.507  10.055  18.334  0.00  0.00    +0.000 A 
ATOM     12  C   UNL     1       9.459  10.148  19.356  0.00  0.00    +0.000 A 
ATOM     13  C   UNL     1      10.239  11.301  19.499  0.00  0.00    +0.000 A 
BRANCH   8  15
ATOM     14  C   UNL     1      11.947  13.501  19.848  0.00  0.00    +0.000 C 
ATOM     15  C   UNL     1      11.040  13.537  18.632  0.00  0.00    +0.000 C 
ENDBRANCH   8  15
ENDBRANCH   2  11
ENDBRANCH   1   4
BRANCH   1  16
ATOM     16  S   UNL     1       4.346   5.813  17.345  0.00  0.00    +0.000 S 
ATOM     17  O   UNL     1       4.926   5.179  18.663  0.00  0.00    +0.000 OA
BRANCH  16  18
ATOM     18  C   UNL     1       3.526   7.387  17.749  0.00  0.00    +0.000 C 
BRANCH  18  19
ATOM     19  C   UNL     1       2.541   7.229  18.889  0.00  0.00    +0.000 C 
ATOM     20  O   UNL     1       2.061   8.200  19.469  0.00  0.00    +0.000 OA
ATOM     21  N   UNL     1       2.223   5.931  19.223  0.00  0.00    +0.000 N 
ATOM     22  H   UNL     1       2.706   5.161  18.772  0.00  0.00    +0.000 HD
BRANCH  21  23
ATOM     23  C   UNL     1       1.434   5.664  20.421  0.00  0.00    +0.000 C 
BRANCH  23  24
ATOM     24  C   UNL     1       1.310   4.175  20.781  0.00  0.00    +0.000 C 
BRANCH  24  25
ATOM     25  C   UNL     1       2.138   3.218  19.946  0.00  0.00    +0.000 A 
ATOM     26  C   UNL     1       1.693   2.843  18.667  0.00  0.00    +0.000 A 
ATOM     27  C   UNL     1       2.446   1.966  17.873  0.00  0.00    +0.000 A 
ATOM     28  C   UNL     1       3.635   1.433  18.355  0.00  0.00    +0.000 A 
ATOM     29  C   UNL     1       4.067   1.771  19.630  0.00  0.00    +0.000 A 
ATOM     30  C   UNL     1       3.345   2.682  20.399  0.00  0.00    +0.000 A 
ENDBRANCH  24  25
ENDBRANCH  23  24
ENDBRANCH  21  23
ENDBRANCH  18  19
ENDBRANCH  16  18
ENDBRANCH   1  16
TORSDOF 9
ENDMDL
MODEL 6
REMARK VINA RESULT:      -7.1      2.312      3.930
REMARK  Name = 
REMARK  11 active torsions:
REMARK  status: ('A' for Active; 'I' for Inactive)
REMARK    1  A    between atoms: C_1  and  C_2
REMARK    2  A    between atoms: C_2  and  C_3
REMARK    3  A    between atoms: C_6  and  C_7
REMARK    4  A    between atoms: C_9  and  C_10
REMARK    5  A    between atoms: C_10  and  S_11
REMARK    6  A    between atoms: S_11  and  C_13
REMARK    7  A    between atoms: C_13  and  C_14
REMARK    8  A    between atoms: N_16  and  C_17
REMARK    9  A    between atoms: C_17  and  C_18
REMARK   10  A    between atoms: C_18  and  C_19
REMARK   11  A    between atoms: C_25  and  C_26
REMARK                            x       y       z     vdW  Elec       q    Type
REMARK                         _______ _______ _______ _____ _____    ______ ____
ROOT
ATOM      1  C   UNL     1       2.317   2.471  18.771  0.00  0.00    +0.000 C 
ENDROOT
BRANCH   1   4
ATOM      2  C   UNL     1       1.752   5.771  19.981  0.00  0.00    +0.000 A 
ATOM      3  N   UNL     1       2.063   4.951  18.991  0.00  0.00    +0.000 NA
ATOM      4  C   UNL     1       2.029   3.694  19.563  0.00  0.00    +0.000 A 
ATOM      5  C   UNL     1       1.680   3.817  20.892  0.00  0.00    +0.000 A 
ATOM      6  C   UNL     1       1.399   2.888  21.997  0.00  0.00    +0.000 C 
ATOM      7  O   UNL     1       1.534   5.144  21.174  0.00  0.00    +0.000 OA
BRANCH   2  11
ATOM      8  C   UNL     1       0.995   9.958  19.878  0.00  0.00    +0.000 A 
ATOM      9  C   UNL     1       0.833   9.234  21.063  0.00  0.00    +0.000 A 
ATOM     10  C   UNL     1       1.198   7.889  21.124  0.00  0.00    +0.000 A 
ATOM     11  C   UNL     1       1.674   7.226  19.988  0.00  0.00    +0.000 A 
ATOM     12  C   UNL     1       1.944   7.981  18.839  0.00  0.00    +0.000 A 
ATOM     13  C   UNL     1       1.615   9.340  18.788  0.00  0.00    +0.000 A 
BRANCH   8  15
ATOM     14  C   UNL     1      -0.592  11.492  18.697  0.00  0.00    +0.000 C 
ATOM     15  C   UNL     1       0.468  11.365  19.776  0.00  0.00    +0.000 C 
ENDBRANCH   8  15
ENDBRANCH   2  11
ENDBRANCH   1   4
BRANCH   1  16
ATOM     16  S   UNL     1       3.922   2.546  17.918  0.00  0.00    +0.000 S 
ATOM     17  O   UNL     1       3.815   3.557  16.717  0.00  0.00    +0.000 OA
BRANCH  16  18
ATOM     18  C   UNL     1       4.898   3.306  19.254  0.00  0.00    +0.000 C 
BRANCH  18  19
ATOM     19  C   UNL     1       5.882   4.327  18.718  0.00  0.00    +0.000 C 
ATOM     20  O   UNL     1       6.122   5.371  19.319  0.00  0.00    +0.000 OA
ATOM     21  N   UNL     1       6.481   4.002  17.522  0.00  0.00    +0.000 N 
ATOM     22  H   UNL     1       6.189   3.168  17.021  0.00  0.00    +0.000 HD
BRANCH  21  23
ATOM     23  C   UNL     1       7.297   4.992  16.828  0.00  0.00    +0.000 C 
BRANCH  23  24
ATOM     24  C   UNL     1       6.583   5.703  15.667  0.00  0.00    +0.000 C 
BRANCH  24  25
ATOM     25  C   UNL     1       6.624   4.994  14.327  0.00  0.00    +0.000 A 
ATOM     26  C   UNL     1       5.627   4.058  14.003  0.00  0.00    +0.000 A 
ATOM     27  C   UNL     1       5.639   3.396  12.767  0.00  0.00    +0.000 A 
ATOM     28  C   UNL     1       6.658   3.637  11.854  0.00  0.00    +0.000 A 
ATOM     29  C   UNL     1       7.666   4.534  12.179  0.00  0.00    +0.000 A 
ATOM     30  C   UNL     1       7.626   5.231  13.385  0.00  0.00    +0.000 A 
ENDBRANCH  24  25
ENDBRANCH  23  24
ENDBRANCH  21  23
ENDBRANCH  18  19
ENDBRANCH  16  18
ENDBRANCH   1  16
TORSDOF 9
ENDMDL
MODEL 7
REMARK VINA RESULT:      -7.1      3.119      4.752
REMARK  Name = 
REMARK  11 active torsions:
REMARK  status: ('A' for Active; 'I' for Inactive)
REMARK    1  A    between atoms: C_1  and  C_2
REMARK    2  A    between atoms: C_2  and  C_3
REMARK    3  A    between atoms: C_6  and  C_7
REMARK    4  A    between atoms: C_9  and  C_10
REMARK    5  A    between atoms: C_10  and  S_11
REMARK    6  A    between atoms: S_11  and  C_13
REMARK    7  A    between atoms: C_13  and  C_14
REMARK    8  A    between atoms: N_16  and  C_17
REMARK    9  A    between atoms: C_17  and  C_18
REMARK   10  A    between atoms: C_18  and  C_19
REMARK   11  A    between atoms: C_25  and  C_26
REMARK                            x       y       z     vdW  Elec       q    Type
REMARK                         _______ _______ _______ _____ _____    ______ ____
ROOT
ATOM      1  C   UNL     1       5.444   4.152  19.281  0.00  0.00    +0.000 C 
ENDROOT
BRANCH   1   4
ATOM      2  C   UNL     1       2.713   6.428  19.096  0.00  0.00    +0.000 A 
ATOM      3  N   UNL     1       4.015   6.204  19.159  0.00  0.00    +0.000 NA
ATOM      4  C   UNL     1       4.123   4.827  19.210  0.00  0.00    +0.000 A 
ATOM      5  C   UNL     1       2.858   4.278  19.160  0.00  0.00    +0.000 A 
ATOM      6  C   UNL     1       2.304   2.917  19.096  0.00  0.00    +0.000 C 
ATOM      7  O   UNL     1       1.952   5.296  19.120  0.00  0.00    +0.000 OA
BRANCH   2  11
ATOM      8  C   UNL     1       1.095  10.366  19.117  0.00  0.00    +0.000 A 
ATOM      9  C   UNL     1       1.600   9.809  17.938  0.00  0.00    +0.000 A 
ATOM     10  C   UNL     1       2.016   8.478  17.907  0.00  0.00    +0.000 A 
ATOM     11  C   UNL     1       1.994   7.696  19.067  0.00  0.00    +0.000 A 
ATOM     12  C   UNL     1       1.383   8.219  20.213  0.00  0.00    +0.000 A 
ATOM     13  C   UNL     1       0.928   9.542  20.235  0.00  0.00    +0.000 A 
BRANCH   8  15
ATOM     14  C   UNL     1      -0.688  12.113  18.930  0.00  0.00    +0.000 C 
ATOM     15  C   UNL     1       0.783  11.837  19.183  0.00  0.00    +0.000 C 
ENDBRANCH   8  15
ENDBRANCH   2  11
ENDBRANCH   1   4
BRANCH   1  16
ATOM     16  S   UNL     1       6.837   5.320  19.185  0.00  0.00    +0.000 S 
ATOM     17  O   UNL     1       7.700   5.194  20.494  0.00  0.00    +0.000 OA
BRANCH  16  18
ATOM     18  C   UNL     1       7.735   4.551  17.801  0.00  0.00    +0.000 C 
BRANCH  18  19
ATOM     19  C   UNL     1       7.195   5.006  16.460  0.00  0.00    +0.000 C 
ATOM     20  O   UNL     1       7.577   6.046  15.928  0.00  0.00    +0.000 OA
ATOM     21  N   UNL     1       6.255   4.179  15.886  0.00  0.00    +0.000 N 
ATOM     22  H   UNL     1       5.910   3.375  16.401  0.00  0.00    +0.000 HD
BRANCH  21  23
ATOM     23  C   UNL     1       5.537   4.615  14.694  0.00  0.00    +0.000 C 
BRANCH  23  24
ATOM     24  C   UNL     1       6.409   4.733  13.434  0.00  0.00    +0.000 C 
BRANCH  24  25
ATOM     25  C   UNL     1       6.331   3.572  12.461  0.00  0.00    +0.000 A 
ATOM     26  C   UNL     1       5.081   3.010  12.145  0.00  0.00    +0.000 A 
ATOM     27  C   UNL     1       4.983   1.941  11.242  0.00  0.00    +0.000 A 
ATOM     28  C   UNL     1       6.127   1.404  10.667  0.00  0.00    +0.000 A 
ATOM     29  C   UNL     1       7.368   1.930  10.998  0.00  0.00    +0.000 A 
ATOM     30  C   UNL     1       7.463   3.025  11.855  0.00  0.00    +0.000 A 
ENDBRANCH  24  25
ENDBRANCH  23  24
ENDBRANCH  21  23
ENDBRANCH  18  19
ENDBRANCH  16  18
ENDBRANCH   1  16
TORSDOF 9
ENDMDL
MODEL 8
REMARK VINA RESULT:      -7.1      1.519      2.066
REMARK  Name = 
REMARK  11 active torsions:
REMARK  status: ('A' for Active; 'I' for Inactive)
REMARK    1  A    between atoms: C_1  and  C_2
REMARK    2  A    between atoms: C_2  and  C_3
REMARK    3  A    between atoms: C_6  and  C_7
REMARK    4  A    between atoms: C_9  and  C_10
REMARK    5  A    between atoms: C_10  and  S_11
REMARK    6  A    between atoms: S_11  and  C_13
REMARK    7  A    between atoms: C_13  and  C_14
REMARK    8  A    between atoms: N_16  and  C_17
REMARK    9  A    between atoms: C_17  and  C_18
REMARK   10  A    between atoms: C_18  and  C_19
REMARK   11  A    between atoms: C_25  and  C_26
REMARK                            x       y       z     vdW  Elec       q    Type
REMARK                         _______ _______ _______ _____ _____    ______ ____
ROOT
ATOM      1  C   UNL     1       1.439   4.179  20.172  0.00  0.00    +0.000 C 
ENDROOT
BRANCH   1   4
ATOM      2  C   UNL     1       0.907   7.642  20.800  0.00  0.00    +0.000 A 
ATOM      3  N   UNL     1       0.516   6.384  20.916  0.00  0.00    +0.000 NA
ATOM      4  C   UNL     1       1.498   5.660  20.265  0.00  0.00    +0.000 A 
ATOM      5  C   UNL     1       2.456   6.532  19.791  0.00  0.00    +0.000 A 
ATOM      6  C   UNL     1       3.752   6.402  19.108  0.00  0.00    +0.000 C 
ATOM      7  O   UNL     1       2.068   7.802  20.102  0.00  0.00    +0.000 OA
BRANCH   2  11
ATOM      8  C   UNL     1      -0.518  11.390  22.230  0.00  0.00    +0.000 A 
ATOM      9  C   UNL     1      -0.197  11.218  20.880  0.00  0.00    +0.000 A 
ATOM     10  C   UNL     1       0.152   9.958  20.392  0.00  0.00    +0.000 A 
ATOM     11  C   UNL     1       0.247   8.861  21.254  0.00  0.00    +0.000 A 
ATOM     12  C   UNL     1      -0.186   9.011  22.577  0.00  0.00    +0.000 A 
ATOM     13  C   UNL     1      -0.575  10.266  23.060  0.00  0.00    +0.000 A 
BRANCH   8  15
ATOM     14  C   UNL     1      -2.220  13.161  22.718  0.00  0.00    +0.000 C 
ATOM     15  C   UNL     1      -0.754  12.773  22.779  0.00  0.00    +0.000 C 
ENDBRANCH   8  15
ENDBRANCH   2  11
ENDBRANCH   1   4
BRANCH   1  16
ATOM     16  S   UNL     1       2.997   3.380  20.666  0.00  0.00    +0.000 S 
ATOM     17  O   UNL     1       2.766   2.596  22.010  0.00  0.00    +0.000 OA
BRANCH  16  18
ATOM     18  C   UNL     1       3.133   2.190  19.295  0.00  0.00    +0.000 C 
BRANCH  18  19
ATOM     19  C   UNL     1       3.314   2.888  17.963  0.00  0.00    +0.000 C 
ATOM     20  O   UNL     1       2.365   3.109  17.214  0.00  0.00    +0.000 OA
ATOM     21  N   UNL     1       4.605   3.255  17.655  0.00  0.00    +0.000 N 
ATOM     22  H   UNL     1       5.367   2.979  18.266  0.00  0.00    +0.000 HD
BRANCH  21  23
ATOM     23  C   UNL     1       4.916   3.761  16.323  0.00  0.00    +0.000 C 
BRANCH  23  24
ATOM     24  C   UNL     1       6.402   4.082  16.096  0.00  0.00    +0.000 C 
BRANCH  24  25
ATOM     25  C   UNL     1       6.988   5.172  16.973  0.00  0.00    +0.000 A 
ATOM     26  C   UNL     1       7.581   4.835  18.202  0.00  0.00    +0.000 A 
ATOM     27  C   UNL     1       8.137   5.825  19.025  0.00  0.00    +0.000 A 
ATOM     28  C   UNL     1       8.082   7.161  18.648  0.00  0.00    +0.000 A 
ATOM     29  C   UNL     1       7.468   7.507  17.453  0.00  0.00    +0.000 A 
ATOM     30  C   UNL     1       6.962   6.520  16.609  0.00  0.00    +0.000 A 
ENDBRANCH  24  25
ENDBRANCH  23  24
ENDBRANCH  21  23
ENDBRANCH  18  19
ENDBRANCH  16  18
ENDBRANCH   1  16
TORSDOF 9
ENDMDL
MODEL 9
REMARK VINA RESULT:      -7.0      5.186      6.789
REMARK  Name = 
REMARK  11 active torsions:
REMARK  status: ('A' for Active; 'I' for Inactive)
REMARK    1  A    between atoms: C_1  and  C_2
REMARK    2  A    between atoms: C_2  and  C_3
REMARK    3  A    between atoms: C_6  and  C_7
REMARK    4  A    between atoms: C_9  and  C_10
REMARK    5  A    between atoms: C_10  and  S_11
REMARK    6  A    between atoms: S_11  and  C_13
REMARK    7  A    between atoms: C_13  and  C_14
REMARK    8  A    between atoms: N_16  and  C_17
REMARK    9  A    between atoms: C_17  and  C_18
REMARK   10  A    between atoms: C_18  and  C_19
REMARK   11  A    between atoms: C_25  and  C_26
REMARK                            x       y       z     vdW  Elec       q    Type
REMARK                         _______ _______ _______ _____ _____    ______ ____
ROOT
ATOM      1  C   UNL     1       5.932   4.551  18.704  0.00  0.00    +0.000 C 
ENDROOT
BRANCH   1   4
ATOM      2  C   UNL     1       2.976   6.482  19.161  0.00  0.00    +0.000 A 
ATOM      3  N   UNL     1       4.218   6.375  18.716  0.00  0.00    +0.000 NA
ATOM      4  C   UNL     1       4.587   5.084  19.043  0.00  0.00    +0.000 A 
ATOM      5  C   UNL     1       3.527   4.460  19.668  0.00  0.00    +0.000 A 
ATOM      6  C   UNL     1       3.252   3.106  20.172  0.00  0.00    +0.000 C 
ATOM      7  O   UNL     1       2.507   5.358  19.776  0.00  0.00    +0.000 OA
BRANCH   2  11
ATOM      8  C   UNL     1       0.817  10.151  19.165  0.00  0.00    +0.000 A 
ATOM      9  C   UNL     1       1.325   9.625  17.973  0.00  0.00    +0.000 A 
ATOM     10  C   UNL     1       1.925   8.365  17.956  0.00  0.00    +0.000 A 
ATOM     11  C   UNL     1       2.083   7.634  19.139  0.00  0.00    +0.000 A 
ATOM     12  C   UNL     1       1.472   8.111  20.305  0.00  0.00    +0.000 A 
ATOM     13  C   UNL     1       0.834   9.357  20.316  0.00  0.00    +0.000 A 
BRANCH   8  15
ATOM     14  C   UNL     1       1.383  12.569  18.850  0.00  0.00    +0.000 C 
ATOM     15  C   UNL     1       0.302  11.565  19.206  0.00  0.00    +0.000 C 
ENDBRANCH   8  15
ENDBRANCH   2  11
ENDBRANCH   1   4
BRANCH   1  16
ATOM     16  S   UNL     1       7.274   5.701  19.135  0.00  0.00    +0.000 S 
ATOM     17  O   UNL     1       8.556   4.871  19.515  0.00  0.00    +0.000 OA
BRANCH  16  18
ATOM     18  C   UNL     1       7.515   6.455  17.496  0.00  0.00    +0.000 C 
BRANCH  18  19
ATOM     19  C   UNL     1       7.587   7.967  17.580  0.00  0.00    +0.000 C 
ATOM     20  O   UNL     1       6.851   8.688  16.910  0.00  0.00    +0.000 OA
ATOM     21  N   UNL     1       8.526   8.469  18.453  0.00  0.00    +0.000 N 
ATOM     22  H   UNL     1       9.168   7.837  18.921  0.00  0.00    +0.000 HD
BRANCH  21  23
ATOM     23  C   UNL     1       8.807   9.900  18.470  0.00  0.00    +0.000 C 
BRANCH  23  24
ATOM     24  C   UNL     1       9.429  10.410  19.780  0.00  0.00    +0.000 C 
BRANCH  24  25
ATOM     25  C   UNL     1      10.365  11.596  19.653  0.00  0.00    +0.000 A 
ATOM     26  C   UNL     1      10.218  12.696  20.515  0.00  0.00    +0.000 A 
ATOM     27  C   UNL     1      11.077  13.801  20.423  0.00  0.00    +0.000 A 
ATOM     28  C   UNL     1      12.072  13.834  19.454  0.00  0.00    +0.000 A 
ATOM     29  C   UNL     1      12.204  12.768  18.576  0.00  0.00    +0.000 A 
ATOM     30  C   UNL     1      11.385  11.646  18.700  0.00  0.00    +0.000 A 
ENDBRANCH  24  25
ENDBRANCH  23  24
ENDBRANCH  21  23
ENDBRANCH  18  19
ENDBRANCH  16  18
ENDBRANCH   1  16
TORSDOF 9
ENDMDL
