MODEL 1
REMARK VINA RESULT:      -6.5      0.000      0.000
REMARK  Name = 
REMARK  6 active torsions:
REMARK  status: ('A' for Active; 'I' for Inactive)
REMARK    1  A    between atoms: C_1  and  C_2
REMARK    2  A    between atoms: C_2  and  C_4
REMARK    3  A    between atoms: C_4  and  N_5
REMARK    4  A    between atoms: N_8  and  C_9
REMARK    5  A    between atoms: C_9  and  C_10
REMARK    6  A    between atoms: C_13  and  N_14
REMARK                            x       y       z     vdW  Elec       q    Type
REMARK                         _______ _______ _______ _____ _____    ______ ____
ROOT
ATOM      1  N   UNL     1       6.742   5.809  15.756  0.00  0.00    +0.000 NA
ATOM      2  C   UNL     1       5.262   5.750  15.778  0.00  0.00    +0.000 C 
ATOM      3  C   UNL     1       4.629   4.744  16.772  0.00  0.00    +0.000 C 
ATOM      4  N   UNL     1       5.162   4.765  18.153  0.00  0.00    +0.000 NA
ATOM      5  C   UNL     1       6.636   4.812  18.107  0.00  0.00    +0.000 C 
ATOM      6  C   UNL     1       7.226   5.883  17.154  0.00  0.00    +0.000 C 
ENDROOT
BRANCH   1   7
ATOM      7  C   UNL     1       7.360   4.664  15.056  0.00  0.00    +0.000 C 
BRANCH   7   9
ATOM      8  C   UNL     1       6.366   3.781  12.817  0.00  0.00    +0.000 C 
ATOM      9  C   UNL     1       7.249   4.769  13.538  0.00  0.00    +0.000 C 
ATOM     10  O   UNL     1       7.848   5.649  12.914  0.00  0.00    +0.000 OA
ENDBRANCH   7   9
ENDBRANCH   1   7
BRANCH   4  11
ATOM     11  C   UNL     1       4.615   5.872  18.961  0.00  0.00    +0.000 C 
BRANCH  11  12
ATOM     12  C   UNL     1       3.326   5.493  19.619  0.00  0.00    +0.000 A 
ATOM     13  C   UNL     1       2.251   6.217  20.107  0.00  0.00    +0.000 A 
ATOM     14  C   UNL     1       1.386   5.285  20.738  0.00  0.00    +0.000 A 
ATOM     15  C   UNL     1       1.981   4.057  20.559  0.00  0.00    +0.000 A 
ATOM     16  O   UNL     1       3.152   4.162  19.878  0.00  0.00    +0.000 OA
BRANCH  15  17
ATOM     17  N   UNL     1       1.600   2.748  20.972  0.00  0.00    +0.000 N 
ATOM     18  O   UNL     1       1.486   1.897  20.072  0.00  0.00    +0.000 OA
ATOM     19  O   UNL     1       1.408   2.552  22.177  0.00  0.00    +0.000 OA
ENDBRANCH  15  17
ENDBRANCH  11  12
ENDBRANCH   4  11
TORSDOF 5
ENDMDL
MODEL 2
REMARK VINA RESULT:      -6.5      2.313      7.270
REMARK  Name = 
REMARK  6 active torsions:
REMARK  status: ('A' for Active; 'I' for Inactive)
REMARK    1  A    between atoms: C_1  and  C_2
REMARK    2  A    between atoms: C_2  and  C_4
REMARK    3  A    between atoms: C_4  and  N_5
REMARK    4  A    between atoms: N_8  and  C_9
REMARK    5  A    between atoms: C_9  and  C_10
REMARK    6  A    between atoms: C_13  and  N_14
REMARK                            x       y       z     vdW  Elec       q    Type
REMARK                         _______ _______ _______ _____ _____    ______ ____
ROOT
ATOM      1  N   UNL     1       4.339   4.050  19.389  0.00  0.00    +0.000 NA
ATOM      2  C   UNL     1       4.149   3.245  18.161  0.00  0.00    +0.000 C 
ATOM      3  C   UNL     1       4.152   4.023  16.821  0.00  0.00    +0.000 C 
ATOM      4  N   UNL     1       5.254   4.995  16.631  0.00  0.00    +0.000 NA
ATOM      5  C   UNL     1       5.417   5.793  17.862  0.00  0.00    +0.000 C 
ATOM      6  C   UNL     1       5.482   4.967  19.172  0.00  0.00    +0.000 C 
ENDROOT
BRANCH   1   7
ATOM      7  C   UNL     1       3.135   4.811  19.780  0.00  0.00    +0.000 C 
BRANCH   7   9
ATOM      8  C   UNL     1       2.127   3.354  21.689  0.00  0.00    +0.000 C 
ATOM      9  C   UNL     1       2.011   3.916  20.294  0.00  0.00    +0.000 C 
ATOM     10  O   UNL     1       1.022   3.671  19.598  0.00  0.00    +0.000 OA
ENDBRANCH   7   9
ENDBRANCH   1   7
BRANCH   4  11
ATOM     11  C   UNL     1       6.521   4.353  16.235  0.00  0.00    +0.000 C 
BRANCH  11  12
ATOM     12  C   UNL     1       6.681   4.312  14.748  0.00  0.00    +0.000 A 
ATOM     13  C   UNL     1       7.454   5.027  13.848  0.00  0.00    +0.000 A 
ATOM     14  C   UNL     1       7.060   4.608  12.551  0.00  0.00    +0.000 A 
ATOM     15  C   UNL     1       6.099   3.644  12.756  0.00  0.00    +0.000 A 
ATOM     16  O   UNL     1       5.861   3.446  14.079  0.00  0.00    +0.000 OA
BRANCH  15  17
ATOM     17  N   UNL     1       5.326   2.865  11.848  0.00  0.00    +0.000 N 
ATOM     18  O   UNL     1       5.823   1.784  11.485  0.00  0.00    +0.000 OA
ATOM     19  O   UNL     1       4.232   3.312  11.484  0.00  0.00    +0.000 OA
ENDBRANCH  15  17
ENDBRANCH  11  12
ENDBRANCH   4  11
TORSDOF 5
ENDMDL
MODEL 3
REMARK VINA RESULT:      -6.4      1.385      1.694
REMARK  Name = 
REMARK  6 active torsions:
REMARK  status: ('A' for Active; 'I' for Inactive)
REMARK    1  A    between atoms: C_1  and  C_2
REMARK    2  A    between atoms: C_2  and  C_4
REMARK    3  A    between atoms: C_4  and  N_5
REMARK    4  A    between atoms: N_8  and  C_9
REMARK    5  A    between atoms: C_9  and  C_10
REMARK    6  A    between atoms: C_13  and  N_14
REMARK                            x       y       z     vdW  Elec       q    Type
REMARK                         _______ _______ _______ _____ _____    ______ ____
ROOT
ATOM      1  N   UNL     1       5.621   4.897  15.076  0.00  0.00    +0.000 NA
ATOM      2  C   UNL     1       5.018   3.885  15.973  0.00  0.00    +0.000 C 
ATOM      3  C   UNL     1       5.149   4.149  17.494  0.00  0.00    +0.000 C 
ATOM      4  N   UNL     1       4.801   5.513  17.954  0.00  0.00    +0.000 NA
ATOM      5  C   UNL     1       5.422   6.504  17.053  0.00  0.00    +0.000 C 
ATOM      6  C   UNL     1       5.203   6.240  15.542  0.00  0.00    +0.000 C 
ENDROOT
BRANCH   1   7
ATOM      7  C   UNL     1       7.094   4.811  15.007  0.00  0.00    +0.000 C 
BRANCH   7   9
ATOM      8  C   UNL     1       6.939   4.201  12.479  0.00  0.00    +0.000 C 
ATOM      9  C   UNL     1       7.629   4.959  13.586  0.00  0.00    +0.000 C 
ATOM     10  O   UNL     1       8.589   5.695  13.339  0.00  0.00    +0.000 OA
ENDBRANCH   7   9
ENDBRANCH   1   7
BRANCH   4  11
ATOM     11  C   UNL     1       3.346   5.726  18.066  0.00  0.00    +0.000 C 
BRANCH  11  12
ATOM     12  C   UNL     1       2.651   4.525  18.625  0.00  0.00    +0.000 A 
ATOM     13  C   UNL     1       1.688   3.661  18.132  0.00  0.00    +0.000 A 
ATOM     14  C   UNL     1       1.340   2.790  19.197  0.00  0.00    +0.000 A 
ATOM     15  C   UNL     1       2.142   3.165  20.251  0.00  0.00    +0.000 A 
ATOM     16  O   UNL     1       2.947   4.209  19.922  0.00  0.00    +0.000 OA
BRANCH  15  17
ATOM     17  N   UNL     1       2.249   2.677  21.585  0.00  0.00    +0.000 N 
ATOM     18  O   UNL     1       3.302   2.082  21.872  0.00  0.00    +0.000 OA
ATOM     19  O   UNL     1       1.300   2.871  22.353  0.00  0.00    +0.000 OA
ENDBRANCH  15  17
ENDBRANCH  11  12
ENDBRANCH   4  11
TORSDOF 5
ENDMDL
MODEL 4
REMARK VINA RESULT:      -6.4      1.728      7.685
REMARK  Name = 
REMARK  6 active torsions:
REMARK  status: ('A' for Active; 'I' for Inactive)
REMARK    1  A    between atoms: C_1  and  C_2
REMARK    2  A    between atoms: C_2  and  C_4
REMARK    3  A    between atoms: C_4  and  N_5
REMARK    4  A    between atoms: N_8  and  C_9
REMARK    5  A    between atoms: C_9  and  C_10
REMARK    6  A    between atoms: C_13  and  N_14
REMARK                            x       y       z     vdW  Elec       q    Type
REMARK                         _______ _______ _______ _____ _____    ______ ____
ROOT
ATOM      1  N   UNL     1       3.504   4.286  19.773  0.00  0.00    +0.000 NA
ATOM      2  C   UNL     1       3.807   3.275  18.734  0.00  0.00    +0.000 C 
ATOM      3  C   UNL     1       3.675   3.742  17.262  0.00  0.00    +0.000 C 
ATOM      4  N   UNL     1       4.319   5.033  16.925  0.00  0.00    +0.000 NA
ATOM      5  C   UNL     1       3.994   6.026  17.966  0.00  0.00    +0.000 C 
ATOM      6  C   UNL     1       4.211   5.540  19.423  0.00  0.00    +0.000 C 
ENDROOT
BRANCH   1   7
ATOM      7  C   UNL     1       2.058   4.537  19.938  0.00  0.00    +0.000 C 
BRANCH   7   9
ATOM      8  C   UNL     1       1.324   2.688  21.618  0.00  0.00    +0.000 C 
ATOM      9  C   UNL     1       1.266   3.266  20.226  0.00  0.00    +0.000 C 
ATOM     10  O   UNL     1       0.579   2.730  19.351  0.00  0.00    +0.000 OA
ENDBRANCH   7   9
ENDBRANCH   1   7
BRANCH   4  11
ATOM     11  C   UNL     1       5.776   4.913  16.732  0.00  0.00    +0.000 C 
BRANCH  11  12
ATOM     12  C   UNL     1       6.129   4.688  15.296  0.00  0.00    +0.000 A 
ATOM     13  C   UNL     1       5.772   3.730  14.361  0.00  0.00    +0.000 A 
ATOM     14  C   UNL     1       6.546   3.987  13.199  0.00  0.00    +0.000 A 
ATOM     15  C   UNL     1       7.293   5.104  13.500  0.00  0.00    +0.000 A 
ATOM     16  O   UNL     1       7.049   5.546  14.761  0.00  0.00    +0.000 OA
BRANCH  15  17
ATOM     17  N   UNL     1       8.259   5.831  12.746  0.00  0.00    +0.000 N 
ATOM     18  O   UNL     1       9.389   5.936  13.254  0.00  0.00    +0.000 OA
ATOM     19  O   UNL     1       7.911   6.304  11.659  0.00  0.00    +0.000 OA
ENDBRANCH  15  17
ENDBRANCH  11  12
ENDBRANCH   4  11
TORSDOF 5
ENDMDL
MODEL 5
REMARK VINA RESULT:      -6.3      2.259      7.260
REMARK  Name = 
REMARK  6 active torsions:
REMARK  status: ('A' for Active; 'I' for Inactive)
REMARK    1  A    between atoms: C_1  and  C_2
REMARK    2  A    between atoms: C_2  and  C_4
REMARK    3  A    between atoms: C_4  and  N_5
REMARK    4  A    between atoms: N_8  and  C_9
REMARK    5  A    between atoms: C_9  and  C_10
REMARK    6  A    between atoms: C_13  and  N_14
REMARK                            x       y       z     vdW  Elec       q    Type
REMARK                         _______ _______ _______ _____ _____    ______ ____
ROOT
ATOM      1  N   UNL     1       3.320   4.441  19.820  0.00  0.00    +0.000 NA
ATOM      2  C   UNL     1       3.884   3.192  19.258  0.00  0.00    +0.000 C 
ATOM      3  C   UNL     1       3.877   3.069  17.714  0.00  0.00    +0.000 C 
ATOM      4  N   UNL     1       4.378   4.242  16.961  0.00  0.00    +0.000 NA
ATOM      5  C   UNL     1       3.794   5.472  17.530  0.00  0.00    +0.000 C 
ATOM      6  C   UNL     1       3.889   5.586  19.073  0.00  0.00    +0.000 C 
ENDROOT
BRANCH   1   7
ATOM      7  C   UNL     1       1.844   4.482  19.782  0.00  0.00    +0.000 C 
BRANCH   7   9
ATOM      8  C   UNL     1       0.602   2.319  19.032  0.00  0.00    +0.000 C 
ATOM      9  C   UNL     1       1.205   3.145  20.142  0.00  0.00    +0.000 C 
ATOM     10  O   UNL     1       1.196   2.735  21.306  0.00  0.00    +0.000 OA
ENDBRANCH   7   9
ENDBRANCH   1   7
BRANCH   4  11
ATOM     11  C   UNL     1       5.851   4.313  16.925  0.00  0.00    +0.000 C 
BRANCH  11  12
ATOM     12  C   UNL     1       6.368   4.378  15.523  0.00  0.00    +0.000 A 
ATOM     13  C   UNL     1       7.351   5.128  14.900  0.00  0.00    +0.000 A 
ATOM     14  C   UNL     1       7.279   4.823  13.515  0.00  0.00    +0.000 A 
ATOM     15  C   UNL     1       6.279   3.884  13.402  0.00  0.00    +0.000 A 
ATOM     16  O   UNL     1       5.722   3.597  14.606  0.00  0.00    +0.000 OA
BRANCH  15  17
ATOM     17  N   UNL     1       5.737   3.206  12.272  0.00  0.00    +0.000 N 
ATOM     18  O   UNL     1       4.564   3.486  11.971  0.00  0.00    +0.000 OA
ATOM     19  O   UNL     1       6.459   2.396  11.680  0.00  0.00    +0.000 OA
ENDBRANCH  15  17
ENDBRANCH  11  12
ENDBRANCH   4  11
TORSDOF 5
ENDMDL
MODEL 6
REMARK VINA RESULT:      -6.3      1.760      7.027
REMARK  Name = 
REMARK  6 active torsions:
REMARK  status: ('A' for Active; 'I' for Inactive)
REMARK    1  A    between atoms: C_1  and  C_2
REMARK    2  A    between atoms: C_2  and  C_4
REMARK    3  A    between atoms: C_4  and  N_5
REMARK    4  A    between atoms: N_8  and  C_9
REMARK    5  A    between atoms: C_9  and  C_10
REMARK    6  A    between atoms: C_13  and  N_14
REMARK                            x       y       z     vdW  Elec       q    Type
REMARK                         _______ _______ _______ _____ _____    ______ ____
ROOT
ATOM      1  N   UNL     1       2.519   5.129  20.223  0.00  0.00    +0.000 NA
ATOM      2  C   UNL     1       3.430   4.412  19.302  0.00  0.00    +0.000 C 
ATOM      3  C   UNL     1       3.330   4.790  17.802  0.00  0.00    +0.000 C 
ATOM      4  N   UNL     1       3.323   6.238  17.492  0.00  0.00    +0.000 NA
ATOM      5  C   UNL     1       2.401   6.930  18.413  0.00  0.00    +0.000 C 
ATOM      6  C   UNL     1       2.587   6.576  19.911  0.00  0.00    +0.000 C 
ENDROOT
BRANCH   1   7
ATOM      7  C   UNL     1       1.124   4.650  20.152  0.00  0.00    +0.000 C 
BRANCH   7   9
ATOM      8  C   UNL     1       0.705   2.320  19.067  0.00  0.00    +0.000 C 
ATOM      9  C   UNL     1       1.010   3.136  20.299  0.00  0.00    +0.000 C 
ATOM     10  O   UNL     1       1.180   2.587  21.391  0.00  0.00    +0.000 OA
ENDBRANCH   7   9
ENDBRANCH   1   7
BRANCH   4  11
ATOM     11  C   UNL     1       4.670   6.838  17.529  0.00  0.00    +0.000 C 
BRANCH  11  12
ATOM     12  C   UNL     1       5.705   5.912  16.974  0.00  0.00    +0.000 A 
ATOM     13  C   UNL     1       6.652   5.080  17.547  0.00  0.00    +0.000 A 
ATOM     14  C   UNL     1       7.429   4.553  16.482  0.00  0.00    +0.000 A 
ATOM     15  C   UNL     1       6.877   5.077  15.335  0.00  0.00    +0.000 A 
ATOM     16  O   UNL     1       5.829   5.895  15.612  0.00  0.00    +0.000 OA
BRANCH  15  17
ATOM     17  N   UNL     1       7.222   4.927  13.961  0.00  0.00    +0.000 N 
ATOM     18  O   UNL     1       6.595   4.060  13.326  0.00  0.00    +0.000 OA
ATOM     19  O   UNL     1       8.108   5.656  13.502  0.00  0.00    +0.000 OA
ENDBRANCH  15  17
ENDBRANCH  11  12
ENDBRANCH   4  11
TORSDOF 5
ENDMDL
MODEL 7
REMARK VINA RESULT:      -6.3      2.404      7.290
REMARK  Name = 
REMARK  6 active torsions:
REMARK  status: ('A' for Active; 'I' for Inactive)
REMARK    1  A    between atoms: C_1  and  C_2
REMARK    2  A    between atoms: C_2  and  C_4
REMARK    3  A    between atoms: C_4  and  N_5
REMARK    4  A    between atoms: N_8  and  C_9
REMARK    5  A    between atoms: C_9  and  C_10
REMARK    6  A    between atoms: C_13  and  N_14
REMARK                            x       y       z     vdW  Elec       q    Type
REMARK                         _______ _______ _______ _____ _____    ______ ____
ROOT
ATOM      1  N   UNL     1       3.980   5.091  18.906  0.00  0.00    +0.000 NA
ATOM      2  C   UNL     1       5.434   5.358  18.823  0.00  0.00    +0.000 C 
ATOM      3  C   UNL     1       6.260   4.394  17.934  0.00  0.00    +0.000 C 
ATOM      4  N   UNL     1       5.712   4.115  16.587  0.00  0.00    +0.000 NA
ATOM      5  C   UNL     1       4.266   3.841  16.695  0.00  0.00    +0.000 C 
ATOM      6  C   UNL     1       3.468   4.873  17.533  0.00  0.00    +0.000 C 
ENDROOT
BRANCH   1   7
ATOM      7  C   UNL     1       3.647   3.941  19.771  0.00  0.00    +0.000 C 
BRANCH   7   9
ATOM      8  C   UNL     1       1.580   2.408  19.366  0.00  0.00    +0.000 C 
ATOM      9  C   UNL     1       2.144   3.706  19.889  0.00  0.00    +0.000 C 
ATOM     10  O   UNL     1       1.407   4.545  20.415  0.00  0.00    +0.000 OA
ENDBRANCH   7   9
ENDBRANCH   1   7
BRANCH   4  11
ATOM     11  C   UNL     1       5.983   5.199  15.623  0.00  0.00    +0.000 C 
BRANCH  11  12
ATOM     12  C   UNL     1       6.382   4.664  14.284  0.00  0.00    +0.000 A 
ATOM     13  C   UNL     1       7.446   4.909  13.433  0.00  0.00    +0.000 A 
ATOM     14  C   UNL     1       7.193   4.178  12.243  0.00  0.00    +0.000 A 
ATOM     15  C   UNL     1       6.008   3.515  12.469  0.00  0.00    +0.000 A 
ATOM     16  O   UNL     1       5.506   3.790  13.701  0.00  0.00    +0.000 OA
BRANCH  15  17
ATOM     17  N   UNL     1       5.239   2.639  11.650  0.00  0.00    +0.000 N 
ATOM     18  O   UNL     1       4.129   3.062  11.280  0.00  0.00    +0.000 OA
ATOM     19  O   UNL     1       5.717   1.534  11.372  0.00  0.00    +0.000 OA
ENDBRANCH  15  17
ENDBRANCH  11  12
ENDBRANCH   4  11
TORSDOF 5
ENDMDL
MODEL 8
REMARK VINA RESULT:      -6.2      1.798      7.768
REMARK  Name = 
REMARK  6 active torsions:
REMARK  status: ('A' for Active; 'I' for Inactive)
REMARK    1  A    between atoms: C_1  and  C_2
REMARK    2  A    between atoms: C_2  and  C_4
REMARK    3  A    between atoms: C_4  and  N_5
REMARK    4  A    between atoms: N_8  and  C_9
REMARK    5  A    between atoms: C_9  and  C_10
REMARK    6  A    between atoms: C_13  and  N_14
REMARK                            x       y       z     vdW  Elec       q    Type
REMARK                         _______ _______ _______ _____ _____    ______ ____
ROOT
ATOM      1  N   UNL     1       4.011   3.614  19.508  0.00  0.00    +0.000 NA
ATOM      2  C   UNL     1       3.631   2.937  18.248  0.00  0.00    +0.000 C 
ATOM      3  C   UNL     1       3.678   3.801  16.962  0.00  0.00    +0.000 C 
ATOM      4  N   UNL     1       4.902   4.608  16.761  0.00  0.00    +0.000 NA
ATOM      5  C   UNL     1       5.255   5.283  18.025  0.00  0.00    +0.000 C 
ATOM      6  C   UNL     1       5.267   4.363  19.274  0.00  0.00    +0.000 C 
ENDROOT
BRANCH   1   7
ATOM      7  C   UNL     1       2.961   4.515  20.025  0.00  0.00    +0.000 C 
BRANCH   7   9
ATOM      8  C   UNL     1       2.066   2.782  21.751  0.00  0.00    +0.000 C 
ATOM      9  C   UNL     1       1.785   3.762  20.640  0.00  0.00    +0.000 C 
ATOM     10  O   UNL     1       0.629   3.960  20.254  0.00  0.00    +0.000 OA
ENDBRANCH   7   9
ENDBRANCH   1   7
BRANCH   4  11
ATOM     11  C   UNL     1       6.033   3.815  16.241  0.00  0.00    +0.000 C 
BRANCH  11  12
ATOM     12  C   UNL     1       6.294   4.103  14.797  0.00  0.00    +0.000 A 
ATOM     13  C   UNL     1       5.811   3.573  13.612  0.00  0.00    +0.000 A 
ATOM     14  C   UNL     1       6.546   4.183  12.563  0.00  0.00    +0.000 A 
ATOM     15  C   UNL     1       7.401   5.066  13.184  0.00  0.00    +0.000 A 
ATOM     16  O   UNL     1       7.258   5.037  14.534  0.00  0.00    +0.000 OA
BRANCH  15  17
ATOM     17  N   UNL     1       8.388   5.954  12.668  0.00  0.00    +0.000 N 
ATOM     18  O   UNL     1       8.118   6.512  11.589  0.00  0.00    +0.000 OA
ATOM     19  O   UNL     1       9.430   6.104  13.315  0.00  0.00    +0.000 OA
ENDBRANCH  15  17
ENDBRANCH  11  12
ENDBRANCH   4  11
TORSDOF 5
ENDMDL
MODEL 9
REMARK VINA RESULT:      -6.2      2.424      7.373
REMARK  Name = 
REMARK  6 active torsions:
REMARK  status: ('A' for Active; 'I' for Inactive)
REMARK    1  A    between atoms: C_1  and  C_2
REMARK    2  A    between atoms: C_2  and  C_4
REMARK    3  A    between atoms: C_4  and  N_5
REMARK    4  A    between atoms: N_8  and  C_9
REMARK    5  A    between atoms: C_9  and  C_10
REMARK    6  A    between atoms: C_13  and  N_14
REMARK                            x       y       z     vdW  Elec       q    Type
REMARK                         _______ _______ _______ _____ _____    ______ ____
ROOT
ATOM      1  N   UNL     1       3.057   4.671  18.505  0.00  0.00    +0.000 NA
ATOM      2  C   UNL     1       3.904   5.883  18.431  0.00  0.00    +0.000 C 
ATOM      3  C   UNL     1       5.380   5.665  18.009  0.00  0.00    +0.000 C 
ATOM      4  N   UNL     1       5.601   4.811  16.820  0.00  0.00    +0.000 NA
ATOM      5  C   UNL     1       4.757   3.606  16.921  0.00  0.00    +0.000 C 
ATOM      6  C   UNL     1       3.271   3.877  17.273  0.00  0.00    +0.000 C 
ENDROOT
BRANCH   1   7
ATOM      7  C   UNL     1       3.321   3.847  19.702  0.00  0.00    +0.000 C 
BRANCH   7   9
ATOM      8  C   UNL     1       1.630   2.819  21.395  0.00  0.00    +0.000 C 
ATOM      9  C   UNL     1       2.277   4.043  20.797  0.00  0.00    +0.000 C 
ATOM     10  O   UNL     1       1.980   5.172  21.200  0.00  0.00    +0.000 OA
ENDBRANCH   7   9
ENDBRANCH   1   7
BRANCH   4  11
ATOM     11  C   UNL     1       5.369   5.526  15.551  0.00  0.00    +0.000 C 
BRANCH  11  12
ATOM     12  C   UNL     1       5.973   4.803  14.389  0.00  0.00    +0.000 A 
ATOM     13  C   UNL     1       7.234   4.799  13.815  0.00  0.00    +0.000 A 
ATOM     14  C   UNL     1       7.146   3.996  12.647  0.00  0.00    +0.000 A 
ATOM     15  C   UNL     1       5.847   3.543  12.614  0.00  0.00    +0.000 A 
ATOM     16  O   UNL     1       5.124   4.014  13.663  0.00  0.00    +0.000 OA
BRANCH  15  17
ATOM     17  N   UNL     1       5.154   2.712  11.687  0.00  0.00    +0.000 N 
ATOM     18  O   UNL     1       5.705   1.636  11.392  0.00  0.00    +0.000 OA
ATOM     19  O   UNL     1       4.073   3.113  11.243  0.00  0.00    +0.000 OA
ENDBRANCH  15  17
ENDBRANCH  11  12
ENDBRANCH   4  11
TORSDOF 5
ENDMDL
