MODEL 1
REMARK VINA RESULT:      -6.1      0.000      0.000
REMARK  Name = 
REMARK  1 active torsions:
REMARK  status: ('A' for Active; 'I' for Inactive)
REMARK    1  A    between atoms: C_1  and  C_2
REMARK                            x       y       z     vdW  Elec       q    Type
REMARK                         _______ _______ _______ _____ _____    ______ ____
ROOT
ATOM      1  C   UNL     1       2.807   3.036  17.324  0.00  0.00    +0.000 C 
ATOM      2  C   UNL     1       3.302   4.453  17.400  0.00  0.00    +0.000 A 
ATOM      3  C   UNL     1       2.500   5.427  18.016  0.00  0.00    +0.000 A 
ATOM      4  C   UNL     1       2.937   6.747  18.137  0.00  0.00    +0.000 A 
ATOM      5  C   UNL     1       4.195   7.107  17.665  0.00  0.00    +0.000 A 
ATOM      6  C   UNL     1       5.016   6.148  17.062  0.00  0.00    +0.000 A 
ATOM      7  C   UNL     1       4.566   4.822  16.890  0.00  0.00    +0.000 A 
ATOM      8  C   UNL     1       5.482   3.805  16.247  0.00  0.00    +0.000 C 
ATOM      9  C   UNL     1       6.559   4.467  15.394  0.00  0.00    +0.000 C 
ATOM     10  N   UNL     1       7.176   5.573  16.079  0.00  0.00    +0.000 N 
ATOM     11  C   UNL     1       6.404   6.539  16.681  0.00  0.00    +0.000 C 
ATOM     12  O   UNL     1       6.856   7.651  16.909  0.00  0.00    +0.000 OA
ATOM     13  H   UNL     1       8.087   5.904  15.783  0.00  0.00    +0.000 HD
ENDROOT
TORSDOF 0
ENDMDL
MODEL 2
REMARK VINA RESULT:      -5.9      3.233      4.833
REMARK  Name = 
REMARK  1 active torsions:
REMARK  status: ('A' for Active; 'I' for Inactive)
REMARK    1  A    between atoms: C_1  and  C_2
REMARK                            x       y       z     vdW  Elec       q    Type
REMARK                         _______ _______ _______ _____ _____    ______ ____
ROOT
ATOM      1  C   UNL     1       2.536   7.243  18.701  0.00  0.00    +0.000 C 
ATOM      2  C   UNL     1       3.134   5.977  18.151  0.00  0.00    +0.000 A 
ATOM      3  C   UNL     1       4.166   6.063  17.203  0.00  0.00    +0.000 A 
ATOM      4  C   UNL     1       4.770   4.913  16.693  0.00  0.00    +0.000 A 
ATOM      5  C   UNL     1       4.367   3.660  17.143  0.00  0.00    +0.000 A 
ATOM      6  C   UNL     1       3.351   3.554  18.100  0.00  0.00    +0.000 A 
ATOM      7  C   UNL     1       2.700   4.707  18.586  0.00  0.00    +0.000 A 
ATOM      8  C   UNL     1       1.615   4.561  19.630  0.00  0.00    +0.000 C 
ATOM      9  C   UNL     1       1.006   3.162  19.627  0.00  0.00    +0.000 C 
ATOM     10  N   UNL     1       2.019   2.140  19.578  0.00  0.00    +0.000 N 
ATOM     11  C   UNL     1       3.032   2.205  18.650  0.00  0.00    +0.000 C 
ATOM     12  O   UNL     1       3.647   1.202  18.322  0.00  0.00    +0.000 OA
ATOM     13  H   UNL     1       1.798   1.197  19.876  0.00  0.00    +0.000 HD
ENDROOT
TORSDOF 0
ENDMDL
MODEL 3
REMARK VINA RESULT:      -5.9      3.052      4.267
REMARK  Name = 
REMARK  1 active torsions:
REMARK  status: ('A' for Active; 'I' for Inactive)
REMARK    1  A    between atoms: C_1  and  C_2
REMARK                            x       y       z     vdW  Elec       q    Type
REMARK                         _______ _______ _______ _____ _____    ______ ____
ROOT
ATOM      1  C   UNL     1       2.248   7.012  19.869  0.00  0.00    +0.000 C 
ATOM      2  C   UNL     1       2.211   5.508  19.872  0.00  0.00    +0.000 A 
ATOM      3  C   UNL     1       1.256   4.848  20.661  0.00  0.00    +0.000 A 
ATOM      4  C   UNL     1       1.167   3.455  20.668  0.00  0.00    +0.000 A 
ATOM      5  C   UNL     1       2.018   2.703  19.863  0.00  0.00    +0.000 A 
ATOM      6  C   UNL     1       2.966   3.342  19.058  0.00  0.00    +0.000 A 
ATOM      7  C   UNL     1       3.097   4.747  19.080  0.00  0.00    +0.000 A 
ATOM      8  C   UNL     1       4.122   5.410  18.187  0.00  0.00    +0.000 C 
ATOM      9  C   UNL     1       5.232   4.446  17.780  0.00  0.00    +0.000 C 
ATOM     10  N   UNL     1       4.704   3.176  17.351  0.00  0.00    +0.000 N 
ATOM     11  C   UNL     1       3.774   2.514  18.118  0.00  0.00    +0.000 C 
ATOM     12  O   UNL     1       3.612   1.308  18.003  0.00  0.00    +0.000 OA
ATOM     13  H   UNL     1       5.270   2.564  16.776  0.00  0.00    +0.000 HD
ENDROOT
TORSDOF 0
ENDMDL
MODEL 4
REMARK VINA RESULT:      -5.9      3.425      4.494
REMARK  Name = 
REMARK  1 active torsions:
REMARK  status: ('A' for Active; 'I' for Inactive)
REMARK    1  A    between atoms: C_1  and  C_2
REMARK                            x       y       z     vdW  Elec       q    Type
REMARK                         _______ _______ _______ _____ _____    ______ ____
ROOT
ATOM      1  C   UNL     1       4.704   5.722  16.587  0.00  0.00    +0.000 C 
ATOM      2  C   UNL     1       3.778   5.546  17.759  0.00  0.00    +0.000 A 
ATOM      3  C   UNL     1       3.360   6.677  18.478  0.00  0.00    +0.000 A 
ATOM      4  C   UNL     1       2.476   6.561  19.551  0.00  0.00    +0.000 A 
ATOM      5  C   UNL     1       1.975   5.311  19.905  0.00  0.00    +0.000 A 
ATOM      6  C   UNL     1       2.366   4.174  19.190  0.00  0.00    +0.000 A 
ATOM      7  C   UNL     1       3.297   4.273  18.135  0.00  0.00    +0.000 A 
ATOM      8  C   UNL     1       3.690   3.027  17.373  0.00  0.00    +0.000 C 
ATOM      9  C   UNL     1       3.435   1.760  18.183  0.00  0.00    +0.000 C 
ATOM     10  N   UNL     1       2.135   1.775  18.801  0.00  0.00    +0.000 N 
ATOM     11  C   UNL     1       1.715   2.872  19.516  0.00  0.00    +0.000 C 
ATOM     12  O   UNL     1       0.833   2.773  20.356  0.00  0.00    +0.000 OA
ATOM     13  H   UNL     1       1.710   0.905  19.101  0.00  0.00    +0.000 HD
ENDROOT
TORSDOF 0
ENDMDL
MODEL 5
REMARK VINA RESULT:      -5.8      2.642      3.479
REMARK  Name = 
REMARK  1 active torsions:
REMARK  status: ('A' for Active; 'I' for Inactive)
REMARK    1  A    between atoms: C_1  and  C_2
REMARK                            x       y       z     vdW  Elec       q    Type
REMARK                         _______ _______ _______ _____ _____    ______ ____
ROOT
ATOM      1  C   UNL     1       1.494   2.973  21.613  0.00  0.00    +0.000 C 
ATOM      2  C   UNL     1       1.984   3.983  20.612  0.00  0.00    +0.000 A 
ATOM      3  C   UNL     1       1.694   5.342  20.812  0.00  0.00    +0.000 A 
ATOM      4  C   UNL     1       2.158   6.314  19.925  0.00  0.00    +0.000 A 
ATOM      5  C   UNL     1       2.943   5.942  18.837  0.00  0.00    +0.000 A 
ATOM      6  C   UNL     1       3.256   4.595  18.630  0.00  0.00    +0.000 A 
ATOM      7  C   UNL     1       2.752   3.599  19.491  0.00  0.00    +0.000 A 
ATOM      8  C   UNL     1       3.120   2.152  19.249  0.00  0.00    +0.000 C 
ATOM      9  C   UNL     1       3.549   1.908  17.806  0.00  0.00    +0.000 C 
ATOM     10  N   UNL     1       4.474   2.912  17.347  0.00  0.00    +0.000 N 
ATOM     11  C   UNL     1       4.200   4.248  17.528  0.00  0.00    +0.000 C 
ATOM     12  O   UNL     1       4.731   5.097  16.829  0.00  0.00    +0.000 OA
ATOM     13  H   UNL     1       5.069   2.722  16.549  0.00  0.00    +0.000 HD
ENDROOT
TORSDOF 0
ENDMDL
MODEL 6
REMARK VINA RESULT:      -5.8      2.424      3.052
REMARK  Name = 
REMARK  1 active torsions:
REMARK  status: ('A' for Active; 'I' for Inactive)
REMARK    1  A    between atoms: C_1  and  C_2
REMARK                            x       y       z     vdW  Elec       q    Type
REMARK                         _______ _______ _______ _____ _____    ______ ____
ROOT
ATOM      1  C   UNL     1       0.682   2.151  18.633  0.00  0.00    +0.000 C 
ATOM      2  C   UNL     1       1.501   3.282  19.192  0.00  0.00    +0.000 A 
ATOM      3  C   UNL     1       0.961   4.079  20.214  0.00  0.00    +0.000 A 
ATOM      4  C   UNL     1       1.700   5.117  20.782  0.00  0.00    +0.000 A 
ATOM      5  C   UNL     1       3.002   5.357  20.352  0.00  0.00    +0.000 A 
ATOM      6  C   UNL     1       3.564   4.564  19.346  0.00  0.00    +0.000 A 
ATOM      7  C   UNL     1       2.809   3.543  18.731  0.00  0.00    +0.000 A 
ATOM      8  C   UNL     1       3.449   2.694  17.655  0.00  0.00    +0.000 C 
ATOM      9  C   UNL     1       4.641   3.393  17.011  0.00  0.00    +0.000 C 
ATOM     10  N   UNL     1       5.512   3.979  17.997  0.00  0.00    +0.000 N 
ATOM     11  C   UNL     1       4.999   4.769  19.000  0.00  0.00    +0.000 C 
ATOM     12  O   UNL     1       5.706   5.576  19.585  0.00  0.00    +0.000 OA
ATOM     13  H   UNL     1       6.472   4.198  17.755  0.00  0.00    +0.000 HD
ENDROOT
TORSDOF 0
ENDMDL
MODEL 7
REMARK VINA RESULT:      -5.8      1.457      2.781
REMARK  Name = 
REMARK  1 active torsions:
REMARK  status: ('A' for Active; 'I' for Inactive)
REMARK    1  A    between atoms: C_1  and  C_2
REMARK                            x       y       z     vdW  Elec       q    Type
REMARK                         _______ _______ _______ _____ _____    ______ ____
ROOT
ATOM      1  C   UNL     1       2.744   7.355  18.477  0.00  0.00    +0.000 C 
ATOM      2  C   UNL     1       3.232   6.050  17.912  0.00  0.00    +0.000 A 
ATOM      3  C   UNL     1       2.374   4.939  17.915  0.00  0.00    +0.000 A 
ATOM      4  C   UNL     1       2.776   3.718  17.371  0.00  0.00    +0.000 A 
ATOM      5  C   UNL     1       4.036   3.599  16.792  0.00  0.00    +0.000 A 
ATOM      6  C   UNL     1       4.900   4.699  16.765  0.00  0.00    +0.000 A 
ATOM      7  C   UNL     1       4.523   5.923  17.355  0.00  0.00    +0.000 A 
ATOM      8  C   UNL     1       5.474   7.098  17.297  0.00  0.00    +0.000 C 
ATOM      9  C   UNL     1       6.916   6.653  17.079  0.00  0.00    +0.000 C 
ATOM     10  N   UNL     1       7.018   5.668  16.034  0.00  0.00    +0.000 N 
ATOM     11  C   UNL     1       6.190   4.570  16.028  0.00  0.00    +0.000 C 
ATOM     12  O   UNL     1       6.499   3.555  15.421  0.00  0.00    +0.000 OA
ATOM     13  H   UNL     1       7.907   5.511  15.574  0.00  0.00    +0.000 HD
ENDROOT
TORSDOF 0
ENDMDL
MODEL 8
REMARK VINA RESULT:      -5.8      2.799      3.733
REMARK  Name = 
REMARK  1 active torsions:
REMARK  status: ('A' for Active; 'I' for Inactive)
REMARK    1  A    between atoms: C_1  and  C_2
REMARK                            x       y       z     vdW  Elec       q    Type
REMARK                         _______ _______ _______ _____ _____    ______ ____
ROOT
ATOM      1  C   UNL     1       2.650   7.842  18.087  0.00  0.00    +0.000 C 
ATOM      2  C   UNL     1       2.754   6.629  18.969  0.00  0.00    +0.000 A 
ATOM      3  C   UNL     1       1.773   6.409  19.950  0.00  0.00    +0.000 A 
ATOM      4  C   UNL     1       1.814   5.279  20.767  0.00  0.00    +0.000 A 
ATOM      5  C   UNL     1       2.825   4.338  20.597  0.00  0.00    +0.000 A 
ATOM      6  C   UNL     1       3.802   4.530  19.615  0.00  0.00    +0.000 A 
ATOM      7  C   UNL     1       3.799   5.692  18.816  0.00  0.00    +0.000 A 
ATOM      8  C   UNL     1       4.861   5.865  17.753  0.00  0.00    +0.000 C 
ATOM      9  C   UNL     1       6.097   5.019  18.041  0.00  0.00    +0.000 C 
ATOM     10  N   UNL     1       5.747   3.673  18.414  0.00  0.00    +0.000 N 
ATOM     11  C   UNL     1       4.794   3.442  19.378  0.00  0.00    +0.000 C 
ATOM     12  O   UNL     1       4.761   2.382  19.985  0.00  0.00    +0.000 OA
ATOM     13  H   UNL     1       6.435   2.933  18.333  0.00  0.00    +0.000 HD
ENDROOT
TORSDOF 0
ENDMDL
MODEL 9
REMARK VINA RESULT:      -5.8      3.246      4.342
REMARK  Name = 
REMARK  1 active torsions:
REMARK  status: ('A' for Active; 'I' for Inactive)
REMARK    1  A    between atoms: C_1  and  C_2
REMARK                            x       y       z     vdW  Elec       q    Type
REMARK                         _______ _______ _______ _____ _____    ______ ____
ROOT
ATOM      1  C   UNL     1       5.222   4.179  16.014  0.00  0.00    +0.000 C 
ATOM      2  C   UNL     1       4.304   4.770  17.049  0.00  0.00    +0.000 A 
ATOM      3  C   UNL     1       4.252   6.165  17.201  0.00  0.00    +0.000 A 
ATOM      4  C   UNL     1       3.391   6.755  18.126  0.00  0.00    +0.000 A 
ATOM      5  C   UNL     1       2.548   5.958  18.896  0.00  0.00    +0.000 A 
ATOM      6  C   UNL     1       2.573   4.567  18.747  0.00  0.00    +0.000 A 
ATOM      7  C   UNL     1       3.475   3.957  17.850  0.00  0.00    +0.000 A 
ATOM      8  C   UNL     1       3.468   2.452  17.702  0.00  0.00    +0.000 C 
ATOM      9  C   UNL     1       2.863   1.762  18.920  0.00  0.00    +0.000 C 
ATOM     10  N   UNL     1       1.636   2.391  19.334  0.00  0.00    +0.000 N 
ATOM     11  C   UNL     1       1.571   3.755  19.496  0.00  0.00    +0.000 C 
ATOM     12  O   UNL     1       0.713   4.263  20.202  0.00  0.00    +0.000 OA
ATOM     13  H   UNL     1       0.977   1.880  19.910  0.00  0.00    +0.000 HD
ENDROOT
TORSDOF 0
ENDMDL
