MODEL 1
REMARK VINA RESULT:      -7.5      0.000      0.000
REMARK  Name = 
REMARK  17 active torsions:
REMARK  status: ('A' for Active; 'I' for Inactive)
REMARK    1  A    between atoms: C_1  and  C_2
REMARK    2  A    between atoms: C_2  and  C_3
REMARK    3  A    between atoms: C_3  and  C_4
REMARK    4  A    between atoms: C_4  and  C_5
REMARK    5  A    between atoms: C_5  and  O_6
REMARK    6  A    between atoms: C_5  and  C_22
REMARK    7  A    between atoms: O_6  and  C_7
REMARK    8  A    between atoms: C_9  and  C_10
REMARK    9  A    between atoms: C_10  and  C_11
REMARK   10  A    between atoms: C_10  and  C_12
REMARK   11  A    between atoms: C_10  and  C_13
REMARK   12  A    between atoms: C_14  and  O_15
REMARK   13  A    between atoms: C_16  and  C_17
REMARK   14  A    between atoms: C_17  and  C_18
REMARK   15  A    between atoms: C_17  and  C_19
REMARK   16  A    between atoms: C_17  and  C_20
REMARK   17  A    between atoms: C_22  and  O_24
REMARK                            x       y       z     vdW  Elec       q    Type
REMARK                         _______ _______ _______ _____ _____    ______ ____
ROOT
ATOM      1  C   UNL     1       3.009   6.402  17.925  0.00  0.00    +0.000 A 
ATOM      2  C   UNL     1       2.455   5.221  18.416  0.00  0.00    +0.000 A 
ATOM      3  C   UNL     1       3.252   4.125  18.804  0.00  0.00    +0.000 A 
ATOM      4  C   UNL     1       4.655   4.319  18.724  0.00  0.00    +0.000 A 
ATOM      5  C   UNL     1       5.250   5.478  18.166  0.00  0.00    +0.000 A 
ATOM      6  C   UNL     1       4.377   6.481  17.723  0.00  0.00    +0.000 A 
ENDROOT
BRANCH   3   7
ATOM      7  C   UNL     1       2.589   2.802  19.264  0.00  0.00    +0.000 C 
ATOM      8  C   UNL     1       3.220   1.538  18.617  0.00  0.00    +0.000 C 
ATOM      9  C   UNL     1       2.773   2.624  20.790  0.00  0.00    +0.000 C 
ATOM     10  C   UNL     1       1.084   2.744  18.924  0.00  0.00    +0.000 C 
ENDBRANCH   3   7
BRANCH   5  11
ATOM     11  C   UNL     1       6.779   5.711  18.070  0.00  0.00    +0.000 C 
ATOM     12  C   UNL     1       7.451   4.642  17.185  0.00  0.00    +0.000 C 
ATOM     13  C   UNL     1       7.159   7.084  17.442  0.00  0.00    +0.000 C 
ATOM     14  C   UNL     1       7.412   5.704  19.478  0.00  0.00    +0.000 C 
ENDBRANCH   5  11
BRANCH   4  15
ATOM     15  O   UNL     1       5.480   3.368  19.258  0.00  0.00    +0.000 OA
ATOM     16  H   UNL     1       6.378   3.590  18.966  0.00  0.00    +0.000 HD
ENDBRANCH   4  15
BRANCH   1  17
ATOM     17  O   UNL     1       2.132   7.434  17.750  0.00  0.00    +0.000 OA
BRANCH  17  18
ATOM     18  C   UNL     1       2.122   8.549  18.645  0.00  0.00    +0.000 C 
BRANCH  18  19
ATOM     19  C   UNL     1       1.518   9.915  18.217  0.00  0.00    +0.000 C 
ATOM     20  O   UNL     1       2.123  10.977  18.251  0.00  0.00    +0.000 OA
BRANCH  19  21
ATOM     21  O   UNL     1       0.253   9.841  17.738  0.00  0.00    +0.000 OA
ATOM     22  H   UNL     1      -0.056   8.923  17.600  0.00  0.00    +0.000 HD
ENDBRANCH  19  21
ENDBRANCH  18  19
BRANCH  18  23
ATOM     23  C   UNL     1       1.642   8.140  20.055  0.00  0.00    +0.000 C 
BRANCH  23  24
ATOM     24  C   UNL     1       1.010   9.302  20.819  0.00  0.00    +0.000 C 
BRANCH  24  26
ATOM     25  C   UNL     1      -0.161   9.474  23.039  0.00  0.00    +0.000 C 
ATOM     26  C   UNL     1      -0.165   8.819  21.671  0.00  0.00    +0.000 C 
ENDBRANCH  24  26
ENDBRANCH  23  24
ENDBRANCH  18  23
ENDBRANCH  17  18
ENDBRANCH   1  17
TORSDOF 10
ENDMDL
MODEL 2
REMARK VINA RESULT:      -7.5      0.341      1.302
REMARK  Name = 
REMARK  17 active torsions:
REMARK  status: ('A' for Active; 'I' for Inactive)
REMARK    1  A    between atoms: C_1  and  C_2
REMARK    2  A    between atoms: C_2  and  C_3
REMARK    3  A    between atoms: C_3  and  C_4
REMARK    4  A    between atoms: C_4  and  C_5
REMARK    5  A    between atoms: C_5  and  O_6
REMARK    6  A    between atoms: C_5  and  C_22
REMARK    7  A    between atoms: O_6  and  C_7
REMARK    8  A    between atoms: C_9  and  C_10
REMARK    9  A    between atoms: C_10  and  C_11
REMARK   10  A    between atoms: C_10  and  C_12
REMARK   11  A    between atoms: C_10  and  C_13
REMARK   12  A    between atoms: C_14  and  O_15
REMARK   13  A    between atoms: C_16  and  C_17
REMARK   14  A    between atoms: C_17  and  C_18
REMARK   15  A    between atoms: C_17  and  C_19
REMARK   16  A    between atoms: C_17  and  C_20
REMARK   17  A    between atoms: C_22  and  O_24
REMARK                            x       y       z     vdW  Elec       q    Type
REMARK                         _______ _______ _______ _____ _____    ______ ____
ROOT
ATOM      1  C   UNL     1       2.994   6.471  17.955  0.00  0.00    +0.000 A 
ATOM      2  C   UNL     1       2.453   5.298  18.479  0.00  0.00    +0.000 A 
ATOM      3  C   UNL     1       3.259   4.207  18.859  0.00  0.00    +0.000 A 
ATOM      4  C   UNL     1       4.659   4.396  18.736  0.00  0.00    +0.000 A 
ATOM      5  C   UNL     1       5.240   5.545  18.144  0.00  0.00    +0.000 A 
ATOM      6  C   UNL     1       4.356   6.544  17.712  0.00  0.00    +0.000 A 
ENDROOT
BRANCH   3   7
ATOM      7  C   UNL     1       2.607   2.891  19.358  0.00  0.00    +0.000 C 
ATOM      8  C   UNL     1       1.072   2.836  19.124  0.00  0.00    +0.000 C 
ATOM      9  C   UNL     1       3.190   1.687  18.582  0.00  0.00    +0.000 C 
ATOM     10  C   UNL     1       2.811   2.667  20.872  0.00  0.00    +0.000 C 
ENDBRANCH   3   7
BRANCH   5  11
ATOM     11  C   UNL     1       6.766   5.773  18.000  0.00  0.00    +0.000 C 
ATOM     12  C   UNL     1       7.067   7.158  17.392  0.00  0.00    +0.000 C 
ATOM     13  C   UNL     1       7.530   5.728  19.355  0.00  0.00    +0.000 C 
ATOM     14  C   UNL     1       7.394   4.666  17.127  0.00  0.00    +0.000 C 
ENDBRANCH   5  11
BRANCH   4  15
ATOM     15  O   UNL     1       5.497   3.451  19.260  0.00  0.00    +0.000 OA
ATOM     16  H   UNL     1       6.098   3.921  19.859  0.00  0.00    +0.000 HD
ENDBRANCH   4  15
BRANCH   1  17
ATOM     17  O   UNL     1       2.115   7.502  17.790  0.00  0.00    +0.000 OA
BRANCH  17  18
ATOM     18  C   UNL     1       2.078   8.592  18.716  0.00  0.00    +0.000 C 
BRANCH  18  19
ATOM     19  C   UNL     1       1.327   9.908  18.376  0.00  0.00    +0.000 C 
ATOM     20  O   UNL     1       1.736  11.026  18.653  0.00  0.00    +0.000 OA
BRANCH  19  21
ATOM     21  O   UNL     1       0.178   9.731  17.682  0.00  0.00    +0.000 OA
ATOM     22  H   UNL     1      -0.013   8.794  17.479  0.00  0.00    +0.000 HD
ENDBRANCH  19  21
ENDBRANCH  18  19
BRANCH  18  23
ATOM     23  C   UNL     1       1.747   8.110  20.146  0.00  0.00    +0.000 C 
BRANCH  23  24
ATOM     24  C   UNL     1       0.696   8.982  20.830  0.00  0.00    +0.000 C 
BRANCH  24  26
ATOM     25  C   UNL     1      -0.195   9.660  23.083  0.00  0.00    +0.000 C 
ATOM     26  C   UNL     1       1.011   9.149  22.317  0.00  0.00    +0.000 C 
ENDBRANCH  24  26
ENDBRANCH  23  24
ENDBRANCH  18  23
ENDBRANCH  17  18
ENDBRANCH   1  17
TORSDOF 10
ENDMDL
MODEL 3
REMARK VINA RESULT:      -7.5      0.152      1.250
REMARK  Name = 
REMARK  17 active torsions:
REMARK  status: ('A' for Active; 'I' for Inactive)
REMARK    1  A    between atoms: C_1  and  C_2
REMARK    2  A    between atoms: C_2  and  C_3
REMARK    3  A    between atoms: C_3  and  C_4
REMARK    4  A    between atoms: C_4  and  C_5
REMARK    5  A    between atoms: C_5  and  O_6
REMARK    6  A    between atoms: C_5  and  C_22
REMARK    7  A    between atoms: O_6  and  C_7
REMARK    8  A    between atoms: C_9  and  C_10
REMARK    9  A    between atoms: C_10  and  C_11
REMARK   10  A    between atoms: C_10  and  C_12
REMARK   11  A    between atoms: C_10  and  C_13
REMARK   12  A    between atoms: C_14  and  O_15
REMARK   13  A    between atoms: C_16  and  C_17
REMARK   14  A    between atoms: C_17  and  C_18
REMARK   15  A    between atoms: C_17  and  C_19
REMARK   16  A    between atoms: C_17  and  C_20
REMARK   17  A    between atoms: C_22  and  O_24
REMARK                            x       y       z     vdW  Elec       q    Type
REMARK                         _______ _______ _______ _____ _____    ______ ____
ROOT
ATOM      1  C   UNL     1       3.114   6.468  17.910  0.00  0.00    +0.000 A 
ATOM      2  C   UNL     1       2.537   5.311  18.432  0.00  0.00    +0.000 A 
ATOM      3  C   UNL     1       3.313   4.216  18.860  0.00  0.00    +0.000 A 
ATOM      4  C   UNL     1       4.720   4.385  18.789  0.00  0.00    +0.000 A 
ATOM      5  C   UNL     1       5.338   5.516  18.200  0.00  0.00    +0.000 A 
ATOM      6  C   UNL     1       4.485   6.519  17.719  0.00  0.00    +0.000 A 
ENDROOT
BRANCH   3   7
ATOM      7  C   UNL     1       2.625   2.918  19.355  0.00  0.00    +0.000 C 
ATOM      8  C   UNL     1       2.792   2.674  20.880  0.00  0.00    +0.000 C 
ATOM      9  C   UNL     1       1.100   3.004  19.111  0.00  0.00    +0.000 C 
ATOM     10  C   UNL     1       3.179   1.653  18.662  0.00  0.00    +0.000 C 
ENDBRANCH   3   7
BRANCH   5  11
ATOM     11  C   UNL     1       6.872   5.722  18.112  0.00  0.00    +0.000 C 
ATOM     12  C   UNL     1       7.515   5.719  19.513  0.00  0.00    +0.000 C 
ATOM     13  C   UNL     1       7.602   4.609  17.306  0.00  0.00    +0.000 C 
ATOM     14  C   UNL     1       7.194   7.046  17.387  0.00  0.00    +0.000 C 
ENDBRANCH   5  11
BRANCH   4  15
ATOM     15  O   UNL     1       5.525   3.438  19.359  0.00  0.00    +0.000 OA
ATOM     16  H   UNL     1       6.084   3.905  20.000  0.00  0.00    +0.000 HD
ENDBRANCH   4  15
BRANCH   1  17
ATOM     17  O   UNL     1       2.257   7.508  17.695  0.00  0.00    +0.000 OA
BRANCH  17  18
ATOM     18  C   UNL     1       2.112   8.553  18.660  0.00  0.00    +0.000 C 
BRANCH  18  19
ATOM     19  C   UNL     1       1.433   9.900  18.287  0.00  0.00    +0.000 C 
ATOM     20  O   UNL     1       1.968  10.993  18.393  0.00  0.00    +0.000 OA
BRANCH  19  21
ATOM     21  O   UNL     1       0.188   9.772  17.771  0.00  0.00    +0.000 OA
ATOM     22  H   UNL     1      -0.429  10.471  18.068  0.00  0.00    +0.000 HD
ENDBRANCH  19  21
ENDBRANCH  18  19
BRANCH  18  23
ATOM     23  C   UNL     1       1.585   8.012  20.007  0.00  0.00    +0.000 C 
BRANCH  23  24
ATOM     24  C   UNL     1       1.176   9.127  20.968  0.00  0.00    +0.000 C 
BRANCH  24  26
ATOM     25  C   UNL     1      -0.296   9.579  22.957  0.00  0.00    +0.000 C 
ATOM     26  C   UNL     1      -0.136   8.784  21.675  0.00  0.00    +0.000 C 
ENDBRANCH  24  26
ENDBRANCH  23  24
ENDBRANCH  18  23
ENDBRANCH  17  18
ENDBRANCH   1  17
TORSDOF 10
ENDMDL
MODEL 4
REMARK VINA RESULT:      -7.4      0.145      1.107
REMARK  Name = 
REMARK  17 active torsions:
REMARK  status: ('A' for Active; 'I' for Inactive)
REMARK    1  A    between atoms: C_1  and  C_2
REMARK    2  A    between atoms: C_2  and  C_3
REMARK    3  A    between atoms: C_3  and  C_4
REMARK    4  A    between atoms: C_4  and  C_5
REMARK    5  A    between atoms: C_5  and  O_6
REMARK    6  A    between atoms: C_5  and  C_22
REMARK    7  A    between atoms: O_6  and  C_7
REMARK    8  A    between atoms: C_9  and  C_10
REMARK    9  A    between atoms: C_10  and  C_11
REMARK   10  A    between atoms: C_10  and  C_12
REMARK   11  A    between atoms: C_10  and  C_13
REMARK   12  A    between atoms: C_14  and  O_15
REMARK   13  A    between atoms: C_16  and  C_17
REMARK   14  A    between atoms: C_17  and  C_18
REMARK   15  A    between atoms: C_17  and  C_19
REMARK   16  A    between atoms: C_17  and  C_20
REMARK   17  A    between atoms: C_22  and  O_24
REMARK                            x       y       z     vdW  Elec       q    Type
REMARK                         _______ _______ _______ _____ _____    ______ ____
ROOT
ATOM      1  C   UNL     1       2.910   6.345  17.957  0.00  0.00    +0.000 A 
ATOM      2  C   UNL     1       2.377   5.162  18.470  0.00  0.00    +0.000 A 
ATOM      3  C   UNL     1       3.194   4.088  18.875  0.00  0.00    +0.000 A 
ATOM      4  C   UNL     1       4.593   4.305  18.790  0.00  0.00    +0.000 A 
ATOM      5  C   UNL     1       5.167   5.464  18.210  0.00  0.00    +0.000 A 
ATOM      6  C   UNL     1       4.276   6.444  17.751  0.00  0.00    +0.000 A 
ENDROOT
BRANCH   3   7
ATOM      7  C   UNL     1       2.555   2.761  19.360  0.00  0.00    +0.000 C 
ATOM      8  C   UNL     1       3.239   1.496  18.772  0.00  0.00    +0.000 C 
ATOM      9  C   UNL     1       2.700   2.637  20.895  0.00  0.00    +0.000 C 
ATOM     10  C   UNL     1       1.062   2.649  18.980  0.00  0.00    +0.000 C 
ENDBRANCH   3   7
BRANCH   5  11
ATOM     11  C   UNL     1       6.692   5.722  18.107  0.00  0.00    +0.000 C 
ATOM     12  C   UNL     1       7.348   5.742  19.502  0.00  0.00    +0.000 C 
ATOM     13  C   UNL     1       7.452   4.634  17.295  0.00  0.00    +0.000 C 
ATOM     14  C   UNL     1       6.962   7.055  17.378  0.00  0.00    +0.000 C 
ENDBRANCH   5  11
BRANCH   4  15
ATOM     15  O   UNL     1       5.436   3.378  19.339  0.00  0.00    +0.000 OA
ATOM     16  H   UNL     1       5.711   2.796  18.614  0.00  0.00    +0.000 HD
ENDBRANCH   4  15
BRANCH   1  17
ATOM     17  O   UNL     1       2.015   7.357  17.765  0.00  0.00    +0.000 OA
BRANCH  17  18
ATOM     18  C   UNL     1       2.016   8.509  18.613  0.00  0.00    +0.000 C 
BRANCH  18  19
ATOM     19  C   UNL     1       1.285   9.814  18.194  0.00  0.00    +0.000 C 
ATOM     20  O   UNL     1       0.077   9.905  18.030  0.00  0.00    +0.000 OA
BRANCH  19  21
ATOM     21  O   UNL     1       2.095  10.892  18.069  0.00  0.00    +0.000 OA
ATOM     22  H   UNL     1       2.434  11.224  18.924  0.00  0.00    +0.000 HD
ENDBRANCH  19  21
ENDBRANCH  18  19
BRANCH  18  23
ATOM     23  C   UNL     1       1.700   8.134  20.078  0.00  0.00    +0.000 C 
BRANCH  23  24
ATOM     24  C   UNL     1       1.121   9.304  20.871  0.00  0.00    +0.000 C 
BRANCH  24  26
ATOM     25  C   UNL     1      -0.101   9.407  23.068  0.00  0.00    +0.000 C 
ATOM     26  C   UNL     1      -0.124   8.874  21.648  0.00  0.00    +0.000 C 
ENDBRANCH  24  26
ENDBRANCH  23  24
ENDBRANCH  18  23
ENDBRANCH  17  18
ENDBRANCH   1  17
TORSDOF 10
ENDMDL
MODEL 5
REMARK VINA RESULT:      -7.3      0.364      3.824
REMARK  Name = 
REMARK  17 active torsions:
REMARK  status: ('A' for Active; 'I' for Inactive)
REMARK    1  A    between atoms: C_1  and  C_2
REMARK    2  A    between atoms: C_2  and  C_3
REMARK    3  A    between atoms: C_3  and  C_4
REMARK    4  A    between atoms: C_4  and  C_5
REMARK    5  A    between atoms: C_5  and  O_6
REMARK    6  A    between atoms: C_5  and  C_22
REMARK    7  A    between atoms: O_6  and  C_7
REMARK    8  A    between atoms: C_9  and  C_10
REMARK    9  A    between atoms: C_10  and  C_11
REMARK   10  A    between atoms: C_10  and  C_12
REMARK   11  A    between atoms: C_10  and  C_13
REMARK   12  A    between atoms: C_14  and  O_15
REMARK   13  A    between atoms: C_16  and  C_17
REMARK   14  A    between atoms: C_17  and  C_18
REMARK   15  A    between atoms: C_17  and  C_19
REMARK   16  A    between atoms: C_17  and  C_20
REMARK   17  A    between atoms: C_22  and  O_24
REMARK                            x       y       z     vdW  Elec       q    Type
REMARK                         _______ _______ _______ _____ _____    ______ ____
ROOT
ATOM      1  C   UNL     1       3.095   6.632  18.243  0.00  0.00    +0.000 A 
ATOM      2  C   UNL     1       4.469   6.703  18.019  0.00  0.00    +0.000 A 
ATOM      3  C   UNL     1       5.328   5.620  18.290  0.00  0.00    +0.000 A 
ATOM      4  C   UNL     1       4.703   4.430  18.744  0.00  0.00    +0.000 A 
ATOM      5  C   UNL     1       3.321   4.344  19.048  0.00  0.00    +0.000 A 
ATOM      6  C   UNL     1       2.558   5.500  18.832  0.00  0.00    +0.000 A 
ENDROOT
BRANCH   3   7
ATOM      7  C   UNL     1       6.860   5.773  18.106  0.00  0.00    +0.000 C 
ATOM      8  C   UNL     1       7.653   5.680  19.439  0.00  0.00    +0.000 C 
ATOM      9  C   UNL     1       7.401   4.627  17.219  0.00  0.00    +0.000 C 
ATOM     10  C   UNL     1       7.248   7.129  17.478  0.00  0.00    +0.000 C 
ENDBRANCH   3   7
BRANCH   5  11
ATOM     11  C   UNL     1       2.617   3.055  19.543  0.00  0.00    +0.000 C 
ATOM     12  C   UNL     1       1.090   3.250  19.620  0.00  0.00    +0.000 C 
ATOM     13  C   UNL     1       2.844   1.828  18.613  0.00  0.00    +0.000 C 
ATOM     14  C   UNL     1       3.167   2.641  20.925  0.00  0.00    +0.000 C 
ENDBRANCH   5  11
BRANCH   4  15
ATOM     15  O   UNL     1       5.454   3.292  18.846  0.00  0.00    +0.000 OA
ATOM     16  H   UNL     1       5.572   2.960  17.942  0.00  0.00    +0.000 HD
ENDBRANCH   4  15
BRANCH   1  17
ATOM     17  O   UNL     1       2.368   7.691  17.779  0.00  0.00    +0.000 OA
BRANCH  17  18
ATOM     18  C   UNL     1       1.979   8.753  18.654  0.00  0.00    +0.000 C 
BRANCH  18  19
ATOM     19  C   UNL     1       1.074   9.913  18.152  0.00  0.00    +0.000 C 
ATOM     20  O   UNL     1      -0.121   9.803  17.920  0.00  0.00    +0.000 OA
BRANCH  19  21
ATOM     21  O   UNL     1       1.707  11.105  18.037  0.00  0.00    +0.000 OA
ATOM     22  H   UNL     1       1.335  11.675  17.336  0.00  0.00    +0.000 HD
ENDBRANCH  19  21
ENDBRANCH  18  19
BRANCH  18  23
ATOM     23  C   UNL     1       1.498   8.216  20.019  0.00  0.00    +0.000 C 
BRANCH  23  24
ATOM     24  C   UNL     1       1.080   9.332  20.975  0.00  0.00    +0.000 C 
BRANCH  24  26
ATOM     25  C   UNL     1      -0.177   9.580  23.140  0.00  0.00    +0.000 C 
ATOM     26  C   UNL     1      -0.165   8.934  21.768  0.00  0.00    +0.000 C 
ENDBRANCH  24  26
ENDBRANCH  23  24
ENDBRANCH  18  23
ENDBRANCH  17  18
ENDBRANCH   1  17
TORSDOF 10
ENDMDL
MODEL 6
REMARK VINA RESULT:      -7.3      0.530      3.808
REMARK  Name = 
REMARK  17 active torsions:
REMARK  status: ('A' for Active; 'I' for Inactive)
REMARK    1  A    between atoms: C_1  and  C_2
REMARK    2  A    between atoms: C_2  and  C_3
REMARK    3  A    between atoms: C_3  and  C_4
REMARK    4  A    between atoms: C_4  and  C_5
REMARK    5  A    between atoms: C_5  and  O_6
REMARK    6  A    between atoms: C_5  and  C_22
REMARK    7  A    between atoms: O_6  and  C_7
REMARK    8  A    between atoms: C_9  and  C_10
REMARK    9  A    between atoms: C_10  and  C_11
REMARK   10  A    between atoms: C_10  and  C_12
REMARK   11  A    between atoms: C_10  and  C_13
REMARK   12  A    between atoms: C_14  and  O_15
REMARK   13  A    between atoms: C_16  and  C_17
REMARK   14  A    between atoms: C_17  and  C_18
REMARK   15  A    between atoms: C_17  and  C_19
REMARK   16  A    between atoms: C_17  and  C_20
REMARK   17  A    between atoms: C_22  and  O_24
REMARK                            x       y       z     vdW  Elec       q    Type
REMARK                         _______ _______ _______ _____ _____    ______ ____
ROOT
ATOM      1  C   UNL     1       3.118   6.657  18.232  0.00  0.00    +0.000 A 
ATOM      2  C   UNL     1       4.494   6.681  18.011  0.00  0.00    +0.000 A 
ATOM      3  C   UNL     1       5.321   5.583  18.319  0.00  0.00    +0.000 A 
ATOM      4  C   UNL     1       4.661   4.426  18.807  0.00  0.00    +0.000 A 
ATOM      5  C   UNL     1       3.277   4.389  19.109  0.00  0.00    +0.000 A 
ATOM      6  C   UNL     1       2.547   5.559  18.855  0.00  0.00    +0.000 A 
ENDROOT
BRANCH   3   7
ATOM      7  C   UNL     1       6.857   5.686  18.135  0.00  0.00    +0.000 C 
ATOM      8  C   UNL     1       7.313   7.025  17.492  0.00  0.00    +0.000 C 
ATOM      9  C   UNL     1       7.558   5.626  19.513  0.00  0.00    +0.000 C 
ATOM     10  C   UNL     1       7.422   4.570  17.230  0.00  0.00    +0.000 C 
ENDBRANCH   3   7
BRANCH   5  11
ATOM     11  C   UNL     1       2.536   3.137  19.643  0.00  0.00    +0.000 C 
ATOM     12  C   UNL     1       2.626   1.968  18.641  0.00  0.00    +0.000 C 
ATOM     13  C   UNL     1       3.115   2.597  20.982  0.00  0.00    +0.000 C 
ATOM     14  C   UNL     1       1.057   3.472  19.930  0.00  0.00    +0.000 C 
ENDBRANCH   5  11
BRANCH   4  15
ATOM     15  O   UNL     1       5.379   3.271  18.947  0.00  0.00    +0.000 OA
ATOM     16  H   UNL     1       4.735   2.546  18.941  0.00  0.00    +0.000 HD
ENDBRANCH   4  15
BRANCH   1  17
ATOM     17  O   UNL     1       2.423   7.720  17.734  0.00  0.00    +0.000 OA
BRANCH  17  18
ATOM     18  C   UNL     1       1.997   8.785  18.588  0.00  0.00    +0.000 C 
BRANCH  18  19
ATOM     19  C   UNL     1       1.093   9.930  18.053  0.00  0.00    +0.000 C 
ATOM     20  O   UNL     1      -0.089   9.800  17.773  0.00  0.00    +0.000 OA
BRANCH  19  21
ATOM     21  O   UNL     1       1.710  11.132  17.963  0.00  0.00    +0.000 OA
ATOM     22  H   UNL     1       2.096  11.305  17.081  0.00  0.00    +0.000 HD
ENDBRANCH  19  21
ENDBRANCH  18  19
BRANCH  18  23
ATOM     23  C   UNL     1       1.485   8.253  19.944  0.00  0.00    +0.000 C 
BRANCH  23  24
ATOM     24  C   UNL     1       0.897   9.356  20.823  0.00  0.00    +0.000 C 
BRANCH  24  26
ATOM     25  C   UNL     1       0.007   9.514  23.171  0.00  0.00    +0.000 C 
ATOM     26  C   UNL     1       1.171   9.079  22.302  0.00  0.00    +0.000 C 
ENDBRANCH  24  26
ENDBRANCH  23  24
ENDBRANCH  18  23
ENDBRANCH  17  18
ENDBRANCH   1  17
TORSDOF 10
ENDMDL
MODEL 7
REMARK VINA RESULT:      -7.2      0.445      3.763
REMARK  Name = 
REMARK  17 active torsions:
REMARK  status: ('A' for Active; 'I' for Inactive)
REMARK    1  A    between atoms: C_1  and  C_2
REMARK    2  A    between atoms: C_2  and  C_3
REMARK    3  A    between atoms: C_3  and  C_4
REMARK    4  A    between atoms: C_4  and  C_5
REMARK    5  A    between atoms: C_5  and  O_6
REMARK    6  A    between atoms: C_5  and  C_22
REMARK    7  A    between atoms: O_6  and  C_7
REMARK    8  A    between atoms: C_9  and  C_10
REMARK    9  A    between atoms: C_10  and  C_11
REMARK   10  A    between atoms: C_10  and  C_12
REMARK   11  A    between atoms: C_10  and  C_13
REMARK   12  A    between atoms: C_14  and  O_15
REMARK   13  A    between atoms: C_16  and  C_17
REMARK   14  A    between atoms: C_17  and  C_18
REMARK   15  A    between atoms: C_17  and  C_19
REMARK   16  A    between atoms: C_17  and  C_20
REMARK   17  A    between atoms: C_22  and  O_24
REMARK                            x       y       z     vdW  Elec       q    Type
REMARK                         _______ _______ _______ _____ _____    ______ ____
ROOT
ATOM      1  C   UNL     1       2.951   6.546  18.408  0.00  0.00    +0.000 A 
ATOM      2  C   UNL     1       4.314   6.613  18.122  0.00  0.00    +0.000 A 
ATOM      3  C   UNL     1       5.183   5.531  18.365  0.00  0.00    +0.000 A 
ATOM      4  C   UNL     1       4.578   4.346  18.858  0.00  0.00    +0.000 A 
ATOM      5  C   UNL     1       3.211   4.265  19.224  0.00  0.00    +0.000 A 
ATOM      6  C   UNL     1       2.440   5.420  19.032  0.00  0.00    +0.000 A 
ENDROOT
BRANCH   3   7
ATOM      7  C   UNL     1       6.705   5.680  18.112  0.00  0.00    +0.000 C 
ATOM      8  C   UNL     1       7.288   4.573  17.190  0.00  0.00    +0.000 C 
ATOM      9  C   UNL     1       6.990   7.017  17.388  0.00  0.00    +0.000 C 
ATOM     10  C   UNL     1       7.532   5.622  19.415  0.00  0.00    +0.000 C 
ENDBRANCH   3   7
BRANCH   5  11
ATOM     11  C   UNL     1       2.529   2.982  19.763  0.00  0.00    +0.000 C 
ATOM     12  C   UNL     1       1.010   3.187  19.929  0.00  0.00    +0.000 C 
ATOM     13  C   UNL     1       2.693   1.752  18.824  0.00  0.00    +0.000 C 
ATOM     14  C   UNL     1       3.156   2.568  21.111  0.00  0.00    +0.000 C 
ENDBRANCH   5  11
BRANCH   4  15
ATOM     15  O   UNL     1       5.332   3.208  18.937  0.00  0.00    +0.000 OA
ATOM     16  H   UNL     1       5.831   3.269  19.766  0.00  0.00    +0.000 HD
ENDBRANCH   4  15
BRANCH   1  17
ATOM     17  O   UNL     1       2.205   7.601  17.967  0.00  0.00    +0.000 OA
BRANCH  17  18
ATOM     18  C   UNL     1       2.005   8.753  18.790  0.00  0.00    +0.000 C 
BRANCH  18  19
ATOM     19  C   UNL     1       1.471  10.083  18.190  0.00  0.00    +0.000 C 
ATOM     20  O   UNL     1       2.127  11.112  18.103  0.00  0.00    +0.000 OA
BRANCH  19  21
ATOM     21  O   UNL     1       0.209  10.011  17.706  0.00  0.00    +0.000 OA
ATOM     22  H   UNL     1       0.170   9.940  16.732  0.00  0.00    +0.000 HD
ENDBRANCH  19  21
ENDBRANCH  18  19
BRANCH  18  23
ATOM     23  C   UNL     1       1.270   8.394  20.100  0.00  0.00    +0.000 C 
BRANCH  23  24
ATOM     24  C   UNL     1       1.130   9.588  21.041  0.00  0.00    +0.000 C 
BRANCH  24  26
ATOM     25  C   UNL     1      -0.134   9.538  23.216  0.00  0.00    +0.000 C 
ATOM     26  C   UNL     1      -0.247   9.602  21.705  0.00  0.00    +0.000 C 
ENDBRANCH  24  26
ENDBRANCH  23  24
ENDBRANCH  18  23
ENDBRANCH  17  18
ENDBRANCH   1  17
TORSDOF 10
ENDMDL
MODEL 8
REMARK VINA RESULT:      -7.1      0.715      3.821
REMARK  Name = 
REMARK  17 active torsions:
REMARK  status: ('A' for Active; 'I' for Inactive)
REMARK    1  A    between atoms: C_1  and  C_2
REMARK    2  A    between atoms: C_2  and  C_3
REMARK    3  A    between atoms: C_3  and  C_4
REMARK    4  A    between atoms: C_4  and  C_5
REMARK    5  A    between atoms: C_5  and  O_6
REMARK    6  A    between atoms: C_5  and  C_22
REMARK    7  A    between atoms: O_6  and  C_7
REMARK    8  A    between atoms: C_9  and  C_10
REMARK    9  A    between atoms: C_10  and  C_11
REMARK   10  A    between atoms: C_10  and  C_12
REMARK   11  A    between atoms: C_10  and  C_13
REMARK   12  A    between atoms: C_14  and  O_15
REMARK   13  A    between atoms: C_16  and  C_17
REMARK   14  A    between atoms: C_17  and  C_18
REMARK   15  A    between atoms: C_17  and  C_19
REMARK   16  A    between atoms: C_17  and  C_20
REMARK   17  A    between atoms: C_22  and  O_24
REMARK                            x       y       z     vdW  Elec       q    Type
REMARK                         _______ _______ _______ _____ _____    ______ ____
ROOT
ATOM      1  C   UNL     1       2.860   6.626  18.508  0.00  0.00    +0.000 A 
ATOM      2  C   UNL     1       4.214   6.689  18.182  0.00  0.00    +0.000 A 
ATOM      3  C   UNL     1       5.087   5.604  18.399  0.00  0.00    +0.000 A 
ATOM      4  C   UNL     1       4.493   4.421  18.910  0.00  0.00    +0.000 A 
ATOM      5  C   UNL     1       3.138   4.345  19.317  0.00  0.00    +0.000 A 
ATOM      6  C   UNL     1       2.364   5.502  19.147  0.00  0.00    +0.000 A 
ENDROOT
BRANCH   3   7
ATOM      7  C   UNL     1       6.601   5.748  18.100  0.00  0.00    +0.000 C 
ATOM      8  C   UNL     1       7.149   4.651  17.146  0.00  0.00    +0.000 C 
ATOM      9  C   UNL     1       6.871   7.093  17.385  0.00  0.00    +0.000 C 
ATOM     10  C   UNL     1       7.467   5.669  19.376  0.00  0.00    +0.000 C 
ENDBRANCH   3   7
BRANCH   5  11
ATOM     11  C   UNL     1       2.468   3.064  19.876  0.00  0.00    +0.000 C 
ATOM     12  C   UNL     1       2.584   1.894  18.879  0.00  0.00    +0.000 C 
ATOM     13  C   UNL     1       3.107   2.559  21.202  0.00  0.00    +0.000 C 
ATOM     14  C   UNL     1       0.984   3.334  20.202  0.00  0.00    +0.000 C 
ENDBRANCH   5  11
BRANCH   4  15
ATOM     15  O   UNL     1       5.245   3.281  18.967  0.00  0.00    +0.000 OA
ATOM     16  H   UNL     1       6.094   3.492  18.547  0.00  0.00    +0.000 HD
ENDBRANCH   4  15
BRANCH   1  17
ATOM     17  O   UNL     1       2.105   7.683  18.089  0.00  0.00    +0.000 OA
BRANCH  17  18
ATOM     18  C   UNL     1       1.835   8.784  18.961  0.00  0.00    +0.000 C 
BRANCH  18  19
ATOM     19  C   UNL     1       1.355  10.151  18.401  0.00  0.00    +0.000 C 
ATOM     20  O   UNL     1       0.391  10.770  18.828  0.00  0.00    +0.000 OA
BRANCH  19  21
ATOM     21  O   UNL     1       2.133  10.653  17.413  0.00  0.00    +0.000 OA
ATOM     22  H   UNL     1       2.989  10.191  17.320  0.00  0.00    +0.000 HD
ENDBRANCH  19  21
ENDBRANCH  18  19
BRANCH  18  23
ATOM     23  C   UNL     1       0.990   8.348  20.178  0.00  0.00    +0.000 C 
BRANCH  23  24
ATOM     24  C   UNL     1       1.449   9.006  21.478  0.00  0.00    +0.000 C 
BRANCH  24  26
ATOM     25  C   UNL     1      -0.358  10.499  22.393  0.00  0.00    +0.000 C 
ATOM     26  C   UNL     1       0.289   9.129  22.467  0.00  0.00    +0.000 C 
ENDBRANCH  24  26
ENDBRANCH  23  24
ENDBRANCH  18  23
ENDBRANCH  17  18
ENDBRANCH   1  17
TORSDOF 10
ENDMDL
MODEL 9
REMARK VINA RESULT:      -7.1      0.424      1.175
REMARK  Name = 
REMARK  17 active torsions:
REMARK  status: ('A' for Active; 'I' for Inactive)
REMARK    1  A    between atoms: C_1  and  C_2
REMARK    2  A    between atoms: C_2  and  C_3
REMARK    3  A    between atoms: C_3  and  C_4
REMARK    4  A    between atoms: C_4  and  C_5
REMARK    5  A    between atoms: C_5  and  O_6
REMARK    6  A    between atoms: C_5  and  C_22
REMARK    7  A    between atoms: O_6  and  C_7
REMARK    8  A    between atoms: C_9  and  C_10
REMARK    9  A    between atoms: C_10  and  C_11
REMARK   10  A    between atoms: C_10  and  C_12
REMARK   11  A    between atoms: C_10  and  C_13
REMARK   12  A    between atoms: C_14  and  O_15
REMARK   13  A    between atoms: C_16  and  C_17
REMARK   14  A    between atoms: C_17  and  C_18
REMARK   15  A    between atoms: C_17  and  C_19
REMARK   16  A    between atoms: C_17  and  C_20
REMARK   17  A    between atoms: C_22  and  O_24
REMARK                            x       y       z     vdW  Elec       q    Type
REMARK                         _______ _______ _______ _____ _____    ______ ____
ROOT
ATOM      1  C   UNL     1       2.944   6.334  17.909  0.00  0.00    +0.000 A 
ATOM      2  C   UNL     1       2.414   5.153  18.425  0.00  0.00    +0.000 A 
ATOM      3  C   UNL     1       3.232   4.077  18.825  0.00  0.00    +0.000 A 
ATOM      4  C   UNL     1       4.631   4.293  18.730  0.00  0.00    +0.000 A 
ATOM      5  C   UNL     1       5.202   5.451  18.147  0.00  0.00    +0.000 A 
ATOM      6  C   UNL     1       4.309   6.432  17.694  0.00  0.00    +0.000 A 
ENDROOT
BRANCH   3   7
ATOM      7  C   UNL     1       2.595   2.751  19.314  0.00  0.00    +0.000 C 
ATOM      8  C   UNL     1       1.070   2.657  19.029  0.00  0.00    +0.000 C 
ATOM      9  C   UNL     1       3.232   1.554  18.569  0.00  0.00    +0.000 C 
ATOM     10  C   UNL     1       2.753   2.544  20.836  0.00  0.00    +0.000 C 
ENDBRANCH   3   7
BRANCH   5  11
ATOM     11  C   UNL     1       6.726   5.707  18.034  0.00  0.00    +0.000 C 
ATOM     12  C   UNL     1       7.407   4.638  17.157  0.00  0.00    +0.000 C 
ATOM     13  C   UNL     1       7.078   7.078  17.386  0.00  0.00    +0.000 C 
ATOM     14  C   UNL     1       7.371   5.728  19.436  0.00  0.00    +0.000 C 
ENDBRANCH   5  11
BRANCH   4  15
ATOM     15  O   UNL     1       5.476   3.365  19.274  0.00  0.00    +0.000 OA
ATOM     16  H   UNL     1       4.914   2.656  19.625  0.00  0.00    +0.000 HD
ENDBRANCH   4  15
BRANCH   1  17
ATOM     17  O   UNL     1       2.049   7.348  17.722  0.00  0.00    +0.000 OA
BRANCH  17  18
ATOM     18  C   UNL     1       2.081   8.516  18.547  0.00  0.00    +0.000 C 
BRANCH  18  19
ATOM     19  C   UNL     1       1.244   9.774  18.187  0.00  0.00    +0.000 C 
ATOM     20  O   UNL     1       0.041   9.762  17.969  0.00  0.00    +0.000 OA
BRANCH  19  21
ATOM     21  O   UNL     1       1.948  10.930  18.182  0.00  0.00    +0.000 OA
ATOM     22  H   UNL     1       1.779  11.485  17.394  0.00  0.00    +0.000 HD
ENDBRANCH  19  21
ENDBRANCH  18  19
BRANCH  18  23
ATOM     23  C   UNL     1       1.940   8.158  20.043  0.00  0.00    +0.000 C 
BRANCH  23  24
ATOM     24  C   UNL     1       0.632   8.665  20.648  0.00  0.00    +0.000 C 
BRANCH  24  26
ATOM     25  C   UNL     1      -0.128  10.500  22.192  0.00  0.00    +0.000 C 
ATOM     26  C   UNL     1       0.889   9.397  21.966  0.00  0.00    +0.000 C 
ENDBRANCH  24  26
ENDBRANCH  23  24
ENDBRANCH  18  23
ENDBRANCH  17  18
ENDBRANCH   1  17
TORSDOF 10
ENDMDL
