MODEL 1
REMARK VINA RESULT:      -7.7      0.000      0.000
REMARK  Name = 
REMARK  9 active torsions:
REMARK  status: ('A' for Active; 'I' for Inactive)
REMARK    1  A    between atoms: N_1  and  S_2
REMARK    2  A    between atoms: S_2  and  C_5
REMARK    3  A    between atoms: C_7  and  C_8
REMARK    4  A    between atoms: N_10  and  C_11
REMARK    5  A    between atoms: C_11  and  C_12
REMARK    6  A    between atoms: C_12  and  C_13
REMARK    7  A    between atoms: C_13  and  O_14
REMARK    8  A    between atoms: C_15  and  N_16
REMARK    9  A    between atoms: N_16  and  C_17
REMARK                            x       y       z     vdW  Elec       q    Type
REMARK                         _______ _______ _______ _____ _____    ______ ____
ROOT
ATOM      1  C   UNL     1       1.498   8.972  19.281  0.00  0.00    +0.000 A 
ATOM      2  C   UNL     1       2.324   8.254  18.409  0.00  0.00    +0.000 A 
ATOM      3  C   UNL     1       2.800   6.974  18.764  0.00  0.00    +0.000 A 
ATOM      4  C   UNL     1       2.472   6.420  20.035  0.00  0.00    +0.000 A 
ATOM      5  C   UNL     1       1.647   7.180  20.877  0.00  0.00    +0.000 A 
ATOM      6  C   UNL     1       1.167   8.441  20.526  0.00  0.00    +0.000 A 
ATOM      7 CL   UNL     1       0.183   9.243  21.698  0.00  0.00    +0.000 Cl
ENDROOT
BRANCH   3   8
ATOM      8  C   UNL     1       3.671   6.227  17.788  0.00  0.00    +0.000 C 
ATOM      9  O   UNL     1       3.436   5.056  17.510  0.00  0.00    +0.000 OA
ATOM     10  N   UNL     1       4.767   6.917  17.261  0.00  0.00    +0.000 N 
ATOM     11  H   UNL     1       4.938   7.878  17.509  0.00  0.00    +0.000 HD
BRANCH  10  12
ATOM     12  C   UNL     1       5.663   6.301  16.301  0.00  0.00    +0.000 C 
BRANCH  12  13
ATOM     13  C   UNL     1       7.024   5.945  16.895  0.00  0.00    +0.000 C 
BRANCH  13  14
ATOM     14  C   UNL     1       7.034   4.655  17.708  0.00  0.00    +0.000 C 
BRANCH  14  15
ATOM     15  O   UNL     1       8.314   4.042  17.666  0.00  0.00    +0.000 OA
ATOM     16  H   UNL     1       8.627   4.127  16.737  0.00  0.00    +0.000 HD
ENDBRANCH  14  15
ENDBRANCH  13  14
ENDBRANCH  12  13
ENDBRANCH  10  12
ENDBRANCH   3   8
BRANCH   1  17
ATOM     17  S   UNL     1       0.908  10.557  18.803  0.00  0.00    +0.000 S 
ATOM     18  O   UNL     1       1.131  11.479  19.893  0.00  0.00    +0.000 OA
ATOM     19  O   UNL     1      -0.380  10.418  18.173  0.00  0.00    +0.000 OA
BRANCH  17  20
ATOM     20  N   UNL     1       2.006  11.007  17.609  0.00  0.00    +0.000 NA
ATOM     21  H   UNL     1       1.900  10.406  16.790  0.00  0.00    +0.000 HD
ATOM     22  H   UNL     1       2.960  11.008  17.976  0.00  0.00    +0.000 HD
ENDBRANCH  17  20
ENDBRANCH   1  17
BRANCH   4  23
ATOM     23  N   UNL     1       2.917   5.147  20.422  0.00  0.00    +0.000 N 
ATOM     24  H   UNL     1       3.886   5.159  20.752  0.00  0.00    +0.000 HD
BRANCH  23  25
ATOM     25  C   UNL     1       2.038   4.134  21.033  0.00  0.00    +0.000 C 
ATOM     26  C   UNL     1       0.767   3.970  20.187  0.00  0.00    +0.000 C 
ATOM     27  C   UNL     1       1.040   3.314  18.834  0.00  0.00    +0.000 C 
ATOM     28  C   UNL     1       1.774   1.983  18.964  0.00  0.00    +0.000 C 
ATOM     29  C   UNL     1       3.000   2.052  19.870  0.00  0.00    +0.000 C 
ATOM     30  C   UNL     1       2.739   2.777  21.185  0.00  0.00    +0.000 C 
ENDBRANCH  23  25
ENDBRANCH   4  23
TORSDOF 9
ENDMDL
MODEL 2
REMARK VINA RESULT:      -7.4      0.839      1.011
REMARK  Name = 
REMARK  9 active torsions:
REMARK  status: ('A' for Active; 'I' for Inactive)
REMARK    1  A    between atoms: N_1  and  S_2
REMARK    2  A    between atoms: S_2  and  C_5
REMARK    3  A    between atoms: C_7  and  C_8
REMARK    4  A    between atoms: N_10  and  C_11
REMARK    5  A    between atoms: C_11  and  C_12
REMARK    6  A    between atoms: C_12  and  C_13
REMARK    7  A    between atoms: C_13  and  O_14
REMARK    8  A    between atoms: C_15  and  N_16
REMARK    9  A    between atoms: N_16  and  C_17
REMARK                            x       y       z     vdW  Elec       q    Type
REMARK                         _______ _______ _______ _____ _____    ______ ____
ROOT
ATOM      1  C   UNL     1       1.556   8.803  19.234  0.00  0.00    +0.000 A 
ATOM      2  C   UNL     1       2.470   8.085  18.454  0.00  0.00    +0.000 A 
ATOM      3  C   UNL     1       2.936   6.822  18.876  0.00  0.00    +0.000 A 
ATOM      4  C   UNL     1       2.505   6.285  20.124  0.00  0.00    +0.000 A 
ATOM      5  C   UNL     1       1.595   7.044  20.874  0.00  0.00    +0.000 A 
ATOM      6  C   UNL     1       1.126   8.288  20.456  0.00  0.00    +0.000 A 
ATOM      7 CL   UNL     1       0.026   9.092  21.519  0.00  0.00    +0.000 Cl
ENDROOT
BRANCH   3   8
ATOM      8  C   UNL     1       3.904   6.075  17.997  0.00  0.00    +0.000 C 
ATOM      9  O   UNL     1       3.767   4.872  17.796  0.00  0.00    +0.000 OA
ATOM     10  N   UNL     1       4.972   6.805  17.468  0.00  0.00    +0.000 N 
ATOM     11  H   UNL     1       5.062   7.792  17.651  0.00  0.00    +0.000 HD
BRANCH  10  12
ATOM     12  C   UNL     1       5.955   6.192  16.595  0.00  0.00    +0.000 C 
BRANCH  12  13
ATOM     13  C   UNL     1       5.372   5.752  15.253  0.00  0.00    +0.000 C 
BRANCH  13  14
ATOM     14  C   UNL     1       5.686   4.308  14.878  0.00  0.00    +0.000 C 
BRANCH  14  15
ATOM     15  O   UNL     1       5.886   3.517  16.040  0.00  0.00    +0.000 OA
ATOM     16  H   UNL     1       5.010   3.457  16.484  0.00  0.00    +0.000 HD
ENDBRANCH  14  15
ENDBRANCH  13  14
ENDBRANCH  12  13
ENDBRANCH  10  12
ENDBRANCH   3   8
BRANCH   1  17
ATOM     17  S   UNL     1       0.983  10.367  18.674  0.00  0.00    +0.000 S 
ATOM     18  O   UNL     1       1.176  11.333  19.731  0.00  0.00    +0.000 OA
ATOM     19  O   UNL     1      -0.287  10.202  18.013  0.00  0.00    +0.000 OA
BRANCH  17  20
ATOM     20  N   UNL     1       2.116  10.766  17.495  0.00  0.00    +0.000 NA
ATOM     21  H   UNL     1       2.547  11.666  17.712  0.00  0.00    +0.000 HD
ATOM     22  H   UNL     1       1.693  10.746  16.564  0.00  0.00    +0.000 HD
ENDBRANCH  17  20
ENDBRANCH   1  17
BRANCH   4  23
ATOM     23  N   UNL     1       2.937   5.029  20.575  0.00  0.00    +0.000 N 
ATOM     24  H   UNL     1       3.865   5.070  21.005  0.00  0.00    +0.000 HD
BRANCH  23  25
ATOM     25  C   UNL     1       2.023   4.001  21.104  0.00  0.00    +0.000 C 
ATOM     26  C   UNL     1       0.785   3.894  20.203  0.00  0.00    +0.000 C 
ATOM     27  C   UNL     1       1.102   3.296  18.832  0.00  0.00    +0.000 C 
ATOM     28  C   UNL     1       1.814   1.951  18.930  0.00  0.00    +0.000 C 
ATOM     29  C   UNL     1       3.004   1.961  19.884  0.00  0.00    +0.000 C 
ATOM     30  C   UNL     1       2.702   2.629  21.220  0.00  0.00    +0.000 C 
ENDBRANCH  23  25
ENDBRANCH   4  23
TORSDOF 9
ENDMDL
MODEL 3
REMARK VINA RESULT:      -7.3      1.001      1.592
REMARK  Name = 
REMARK  9 active torsions:
REMARK  status: ('A' for Active; 'I' for Inactive)
REMARK    1  A    between atoms: N_1  and  S_2
REMARK    2  A    between atoms: S_2  and  C_5
REMARK    3  A    between atoms: C_7  and  C_8
REMARK    4  A    between atoms: N_10  and  C_11
REMARK    5  A    between atoms: C_11  and  C_12
REMARK    6  A    between atoms: C_12  and  C_13
REMARK    7  A    between atoms: C_13  and  O_14
REMARK    8  A    between atoms: C_15  and  N_16
REMARK    9  A    between atoms: N_16  and  C_17
REMARK                            x       y       z     vdW  Elec       q    Type
REMARK                         _______ _______ _______ _____ _____    ______ ____
ROOT
ATOM      1  C   UNL     1       1.726   8.740  19.009  0.00  0.00    +0.000 A 
ATOM      2  C   UNL     1       2.699   8.176  18.176  0.00  0.00    +0.000 A 
ATOM      3  C   UNL     1       3.303   6.945  18.511  0.00  0.00    +0.000 A 
ATOM      4  C   UNL     1       2.950   6.286  19.724  0.00  0.00    +0.000 A 
ATOM      5  C   UNL     1       1.975   6.894  20.529  0.00  0.00    +0.000 A 
ATOM      6  C   UNL     1       1.370   8.105  20.197  0.00  0.00    +0.000 A 
ATOM      7 CL   UNL     1       0.208   8.717  21.320  0.00  0.00    +0.000 Cl
ENDROOT
BRANCH   3   8
ATOM      8  C   UNL     1       4.331   6.364  17.577  0.00  0.00    +0.000 C 
ATOM      9  O   UNL     1       4.033   5.460  16.802  0.00  0.00    +0.000 OA
ATOM     10  N   UNL     1       5.631   6.871  17.671  0.00  0.00    +0.000 N 
ATOM     11  H   UNL     1       5.848   7.612  18.318  0.00  0.00    +0.000 HD
BRANCH  10  12
ATOM     12  C   UNL     1       6.697   6.396  16.809  0.00  0.00    +0.000 C 
BRANCH  12  13
ATOM     13  C   UNL     1       7.528   5.283  17.444  0.00  0.00    +0.000 C 
BRANCH  13  14
ATOM     14  C   UNL     1       7.820   5.487  18.926  0.00  0.00    +0.000 C 
BRANCH  14  15
ATOM     15  O   UNL     1       6.694   5.129  19.716  0.00  0.00    +0.000 OA
ATOM     16  H   UNL     1       6.729   5.702  20.515  0.00  0.00    +0.000 HD
ENDBRANCH  14  15
ENDBRANCH  13  14
ENDBRANCH  12  13
ENDBRANCH  10  12
ENDBRANCH   3   8
BRANCH   1  17
ATOM     17  S   UNL     1       0.982  10.267  18.557  0.00  0.00    +0.000 S 
ATOM     18  O   UNL     1       0.994  11.143  19.705  0.00  0.00    +0.000 OA
ATOM     19  O   UNL     1      -0.221  10.009  17.807  0.00  0.00    +0.000 OA
BRANCH  17  20
ATOM     20  N   UNL     1       2.110  10.917  17.489  0.00  0.00    +0.000 NA
ATOM     21  H   UNL     1       1.676  11.085  16.580  0.00  0.00    +0.000 HD
ATOM     22  H   UNL     1       2.937  10.320  17.428  0.00  0.00    +0.000 HD
ENDBRANCH  17  20
ENDBRANCH   1  17
BRANCH   4  23
ATOM     23  N   UNL     1       3.519   5.057  20.088  0.00  0.00    +0.000 N 
ATOM     24  H   UNL     1       3.745   5.016  21.086  0.00  0.00    +0.000 HD
BRANCH  23  25
ATOM     25  C   UNL     1       3.157   3.778  19.453  0.00  0.00    +0.000 C 
ATOM     26  C   UNL     1       3.532   2.613  20.380  0.00  0.00    +0.000 C 
ATOM     27  C   UNL     1       2.658   2.551  21.633  0.00  0.00    +0.000 C 
ATOM     28  C   UNL     1       1.168   2.521  21.308  0.00  0.00    +0.000 C 
ATOM     29  C   UNL     1       0.741   3.598  20.316  0.00  0.00    +0.000 C 
ATOM     30  C   UNL     1       1.663   3.706  19.107  0.00  0.00    +0.000 C 
ENDBRANCH  23  25
ENDBRANCH   4  23
TORSDOF 9
ENDMDL
MODEL 4
REMARK VINA RESULT:      -7.2      3.150      5.796
REMARK  Name = 
REMARK  9 active torsions:
REMARK  status: ('A' for Active; 'I' for Inactive)
REMARK    1  A    between atoms: N_1  and  S_2
REMARK    2  A    between atoms: S_2  and  C_5
REMARK    3  A    between atoms: C_7  and  C_8
REMARK    4  A    between atoms: N_10  and  C_11
REMARK    5  A    between atoms: C_11  and  C_12
REMARK    6  A    between atoms: C_12  and  C_13
REMARK    7  A    between atoms: C_13  and  O_14
REMARK    8  A    between atoms: C_15  and  N_16
REMARK    9  A    between atoms: N_16  and  C_17
REMARK                            x       y       z     vdW  Elec       q    Type
REMARK                         _______ _______ _______ _____ _____    ______ ____
ROOT
ATOM      1  C   UNL     1       5.616   5.566  17.317  0.00  0.00    +0.000 A 
ATOM      2  C   UNL     1       4.777   6.195  18.244  0.00  0.00    +0.000 A 
ATOM      3  C   UNL     1       3.488   5.683  18.505  0.00  0.00    +0.000 A 
ATOM      4  C   UNL     1       3.018   4.541  17.796  0.00  0.00    +0.000 A 
ATOM      5  C   UNL     1       3.893   3.950  16.872  0.00  0.00    +0.000 A 
ATOM      6  C   UNL     1       5.170   4.447  16.617  0.00  0.00    +0.000 A 
ATOM      7 CL   UNL     1       6.100   3.605  15.429  0.00  0.00    +0.000 Cl
ENDROOT
BRANCH   3   8
ATOM      8  C   UNL     1       2.625   6.379  19.524  0.00  0.00    +0.000 C 
ATOM      9  O   UNL     1       2.248   5.790  20.532  0.00  0.00    +0.000 OA
ATOM     10  N   UNL     1       2.248   7.696  19.242  0.00  0.00    +0.000 N 
ATOM     11  H   UNL     1       2.570   8.155  18.406  0.00  0.00    +0.000 HD
BRANCH  10  12
ATOM     12  C   UNL     1       1.432   8.467  20.161  0.00  0.00    +0.000 C 
BRANCH  12  13
ATOM     13  C   UNL     1       1.017   9.825  19.597  0.00  0.00    +0.000 C 
BRANCH  13  14
ATOM     14  C   UNL     1       0.710   9.816  18.104  0.00  0.00    +0.000 C 
BRANCH  14  15
ATOM     15  O   UNL     1       1.889  10.044  17.345  0.00  0.00    +0.000 OA
ATOM     16  H   UNL     1       2.630  10.068  17.993  0.00  0.00    +0.000 HD
ENDBRANCH  14  15
ENDBRANCH  13  14
ENDBRANCH  12  13
ENDBRANCH  10  12
ENDBRANCH   3   8
BRANCH   1  17
ATOM     17  S   UNL     1       7.222   6.219  17.024  0.00  0.00    +0.000 S 
ATOM     18  O   UNL     1       7.546   6.033  15.628  0.00  0.00    +0.000 OA
ATOM     19  O   UNL     1       8.110   5.795  18.076  0.00  0.00    +0.000 OA
BRANCH  17  20
ATOM     20  N   UNL     1       6.979   7.875  17.207  0.00  0.00    +0.000 NA
ATOM     21  H   UNL     1       7.876   8.355  17.285  0.00  0.00    +0.000 HD
ATOM     22  H   UNL     1       6.359   8.064  17.998  0.00  0.00    +0.000 HD
ENDBRANCH  17  20
ENDBRANCH   1  17
BRANCH   4  23
ATOM     23  N   UNL     1       1.748   3.996  18.033  0.00  0.00    +0.000 N 
ATOM     24  H   UNL     1       1.030   4.408  17.430  0.00  0.00    +0.000 HD
BRANCH  23  25
ATOM     25  C   UNL     1       1.531   2.594  18.433  0.00  0.00    +0.000 C 
ATOM     26  C   UNL     1       2.854   1.978  18.910  0.00  0.00    +0.000 C 
ATOM     27  C   UNL     1       3.335   2.568  20.236  0.00  0.00    +0.000 C 
ATOM     28  C   UNL     1       2.278   2.485  21.332  0.00  0.00    +0.000 C 
ATOM     29  C   UNL     1       0.909   2.996  20.895  0.00  0.00    +0.000 C 
ATOM     30  C   UNL     1       0.470   2.465  19.535  0.00  0.00    +0.000 C 
ENDBRANCH  23  25
ENDBRANCH   4  23
TORSDOF 9
ENDMDL
MODEL 5
REMARK VINA RESULT:      -7.2      2.157      4.554
REMARK  Name = 
REMARK  9 active torsions:
REMARK  status: ('A' for Active; 'I' for Inactive)
REMARK    1  A    between atoms: N_1  and  S_2
REMARK    2  A    between atoms: S_2  and  C_5
REMARK    3  A    between atoms: C_7  and  C_8
REMARK    4  A    between atoms: N_10  and  C_11
REMARK    5  A    between atoms: C_11  and  C_12
REMARK    6  A    between atoms: C_12  and  C_13
REMARK    7  A    between atoms: C_13  and  O_14
REMARK    8  A    between atoms: C_15  and  N_16
REMARK    9  A    between atoms: N_16  and  C_17
REMARK                            x       y       z     vdW  Elec       q    Type
REMARK                         _______ _______ _______ _____ _____    ______ ____
ROOT
ATOM      1  C   UNL     1       1.285   8.787  19.992  0.00  0.00    +0.000 A 
ATOM      2  C   UNL     1       1.492   7.442  20.320  0.00  0.00    +0.000 A 
ATOM      3  C   UNL     1       2.263   6.610  19.480  0.00  0.00    +0.000 A 
ATOM      4  C   UNL     1       2.806   7.128  18.269  0.00  0.00    +0.000 A 
ATOM      5  C   UNL     1       2.565   8.480  17.980  0.00  0.00    +0.000 A 
ATOM      6  C   UNL     1       1.812   9.307  18.811  0.00  0.00    +0.000 A 
ATOM      7 CL   UNL     1       1.600  10.939  18.283  0.00  0.00    +0.000 Cl
ENDROOT
BRANCH   3   8
ATOM      8  C   UNL     1       2.477   5.175  19.881  0.00  0.00    +0.000 C 
ATOM      9  O   UNL     1       3.572   4.793  20.280  0.00  0.00    +0.000 OA
ATOM     10  N   UNL     1       1.390   4.307  19.732  0.00  0.00    +0.000 N 
ATOM     11  H   UNL     1       0.502   4.646  19.399  0.00  0.00    +0.000 HD
BRANCH  10  12
ATOM     12  C   UNL     1       1.479   2.907  20.102  0.00  0.00    +0.000 C 
BRANCH  12  13
ATOM     13  C   UNL     1       1.484   1.969  18.896  0.00  0.00    +0.000 C 
BRANCH  13  14
ATOM     14  C   UNL     1       2.602   2.241  17.897  0.00  0.00    +0.000 C 
BRANCH  14  15
ATOM     15  O   UNL     1       2.254   3.309  17.028  0.00  0.00    +0.000 OA
ATOM     16  H   UNL     1       1.418   3.039  16.585  0.00  0.00    +0.000 HD
ENDBRANCH  14  15
ENDBRANCH  13  14
ENDBRANCH  12  13
ENDBRANCH  10  12
ENDBRANCH   3   8
BRANCH   1  17
ATOM     17  S   UNL     1       0.333   9.802  21.066  0.00  0.00    +0.000 S 
ATOM     18  O   UNL     1      -0.764  10.365  20.313  0.00  0.00    +0.000 OA
ATOM     19  O   UNL     1       1.216  10.620  21.857  0.00  0.00    +0.000 OA
BRANCH  17  20
ATOM     20  N   UNL     1      -0.370   8.674  22.099  0.00  0.00    +0.000 NA
ATOM     21  H   UNL     1      -0.834   9.150  22.874  0.00  0.00    +0.000 HD
ATOM     22  H   UNL     1       0.322   7.990  22.414  0.00  0.00    +0.000 HD
ENDBRANCH  17  20
ENDBRANCH   1  17
BRANCH   4  23
ATOM     23  N   UNL     1       3.585   6.337  17.412  0.00  0.00    +0.000 N 
ATOM     24  H   UNL     1       3.021   5.864  16.701  0.00  0.00    +0.000 HD
BRANCH  23  25
ATOM     25  C   UNL     1       4.963   6.685  17.019  0.00  0.00    +0.000 C 
ATOM     26  C   UNL     1       5.962   5.961  17.933  0.00  0.00    +0.000 C 
ATOM     27  C   UNL     1       5.986   4.451  17.701  0.00  0.00    +0.000 C 
ATOM     28  C   UNL     1       6.231   4.085  16.241  0.00  0.00    +0.000 C 
ATOM     29  C   UNL     1       5.332   4.840  15.267  0.00  0.00    +0.000 C 
ATOM     30  C   UNL     1       5.251   6.335  15.553  0.00  0.00    +0.000 C 
ENDBRANCH  23  25
ENDBRANCH   4  23
TORSDOF 9
ENDMDL
MODEL 6
REMARK VINA RESULT:      -7.1      1.138      1.289
REMARK  Name = 
REMARK  9 active torsions:
REMARK  status: ('A' for Active; 'I' for Inactive)
REMARK    1  A    between atoms: N_1  and  S_2
REMARK    2  A    between atoms: S_2  and  C_5
REMARK    3  A    between atoms: C_7  and  C_8
REMARK    4  A    between atoms: N_10  and  C_11
REMARK    5  A    between atoms: C_11  and  C_12
REMARK    6  A    between atoms: C_12  and  C_13
REMARK    7  A    between atoms: C_13  and  O_14
REMARK    8  A    between atoms: C_15  and  N_16
REMARK    9  A    between atoms: N_16  and  C_17
REMARK                            x       y       z     vdW  Elec       q    Type
REMARK                         _______ _______ _______ _____ _____    ______ ____
ROOT
ATOM      1  C   UNL     1       1.815   8.775  19.067  0.00  0.00    +0.000 A 
ATOM      2  C   UNL     1       2.627   7.926  18.306  0.00  0.00    +0.000 A 
ATOM      3  C   UNL     1       3.000   6.658  18.802  0.00  0.00    +0.000 A 
ATOM      4  C   UNL     1       2.581   6.250  20.100  0.00  0.00    +0.000 A 
ATOM      5  C   UNL     1       1.774   7.139  20.827  0.00  0.00    +0.000 A 
ATOM      6  C   UNL     1       1.397   8.388  20.338  0.00  0.00    +0.000 A 
ATOM      7 CL   UNL     1       0.420   9.359  21.382  0.00  0.00    +0.000 Cl
ENDROOT
BRANCH   3   8
ATOM      8  C   UNL     1       3.859   5.768  17.942  0.00  0.00    +0.000 C 
ATOM      9  O   UNL     1       3.349   4.944  17.189  0.00  0.00    +0.000 OA
ATOM     10  N   UNL     1       5.244   5.899  18.080  0.00  0.00    +0.000 N 
ATOM     11  H   UNL     1       5.636   6.582  18.708  0.00  0.00    +0.000 HD
BRANCH  10  12
ATOM     12  C   UNL     1       6.166   5.104  17.291  0.00  0.00    +0.000 C 
BRANCH  12  13
ATOM     13  C   UNL     1       7.560   5.017  17.908  0.00  0.00    +0.000 C 
BRANCH  13  14
ATOM     14  C   UNL     1       7.835   6.062  18.983  0.00  0.00    +0.000 C 
BRANCH  14  15
ATOM     15  O   UNL     1       7.720   5.494  20.280  0.00  0.00    +0.000 OA
ATOM     16  H   UNL     1       8.618   5.168  20.516  0.00  0.00    +0.000 HD
ENDBRANCH  14  15
ENDBRANCH  13  14
ENDBRANCH  12  13
ENDBRANCH  10  12
ENDBRANCH   3   8
BRANCH   1  17
ATOM     17  S   UNL     1       1.356  10.342  18.416  0.00  0.00    +0.000 S 
ATOM     18  O   UNL     1       2.205  10.638  17.286  0.00  0.00    +0.000 OA
ATOM     19  O   UNL     1       1.175  11.275  19.500  0.00  0.00    +0.000 OA
BRANCH  17  20
ATOM     20  N   UNL     1      -0.164  10.031  17.762  0.00  0.00    +0.000 NA
ATOM     21  H   UNL     1      -0.102   9.279  17.073  0.00  0.00    +0.000 HD
ATOM     22  H   UNL     1      -0.575  10.884  17.379  0.00  0.00    +0.000 HD
ENDBRANCH  17  20
ENDBRANCH   1  17
BRANCH   4  23
ATOM     23  N   UNL     1       2.921   4.995  20.625  0.00  0.00    +0.000 N 
ATOM     24  H   UNL     1       3.827   5.007  21.102  0.00  0.00    +0.000 HD
BRANCH  23  25
ATOM     25  C   UNL     1       1.928   4.039  21.146  0.00  0.00    +0.000 C 
ATOM     26  C   UNL     1       0.732   3.958  20.188  0.00  0.00    +0.000 C 
ATOM     27  C   UNL     1       1.084   3.287  18.860  0.00  0.00    +0.000 C 
ATOM     28  C   UNL     1       1.717   1.912  19.047  0.00  0.00    +0.000 C 
ATOM     29  C   UNL     1       2.857   1.901  20.061  0.00  0.00    +0.000 C 
ATOM     30  C   UNL     1       2.525   2.640  21.352  0.00  0.00    +0.000 C 
ENDBRANCH  23  25
ENDBRANCH   4  23
TORSDOF 9
ENDMDL
MODEL 7
REMARK VINA RESULT:      -7.1      1.093      1.195
REMARK  Name = 
REMARK  9 active torsions:
REMARK  status: ('A' for Active; 'I' for Inactive)
REMARK    1  A    between atoms: N_1  and  S_2
REMARK    2  A    between atoms: S_2  and  C_5
REMARK    3  A    between atoms: C_7  and  C_8
REMARK    4  A    between atoms: N_10  and  C_11
REMARK    5  A    between atoms: C_11  and  C_12
REMARK    6  A    between atoms: C_12  and  C_13
REMARK    7  A    between atoms: C_13  and  O_14
REMARK    8  A    between atoms: C_15  and  N_16
REMARK    9  A    between atoms: N_16  and  C_17
REMARK                            x       y       z     vdW  Elec       q    Type
REMARK                         _______ _______ _______ _____ _____    ______ ____
ROOT
ATOM      1  C   UNL     1       1.479   8.642  19.328  0.00  0.00    +0.000 A 
ATOM      2  C   UNL     1       2.465   7.864  18.710  0.00  0.00    +0.000 A 
ATOM      3  C   UNL     1       2.873   6.639  19.280  0.00  0.00    +0.000 A 
ATOM      4  C   UNL     1       2.307   6.204  20.512  0.00  0.00    +0.000 A 
ATOM      5  C   UNL     1       1.327   7.021  21.097  0.00  0.00    +0.000 A 
ATOM      6  C   UNL     1       0.916   8.227  20.533  0.00  0.00    +0.000 A 
ATOM      7 CL   UNL     1      -0.285   9.113  21.405  0.00  0.00    +0.000 Cl
ENDROOT
BRANCH   3   8
ATOM      8  C   UNL     1       3.923   5.825  18.571  0.00  0.00    +0.000 C 
ATOM      9  O   UNL     1       4.990   5.568  19.119  0.00  0.00    +0.000 OA
ATOM     10  N   UNL     1       3.639   5.425  17.262  0.00  0.00    +0.000 N 
ATOM     11  H   UNL     1       2.755   5.653  16.835  0.00  0.00    +0.000 HD
BRANCH  10  12
ATOM     12  C   UNL     1       4.571   4.624  16.492  0.00  0.00    +0.000 C 
BRANCH  12  13
ATOM     13  C   UNL     1       5.457   5.460  15.570  0.00  0.00    +0.000 C 
BRANCH  13  14
ATOM     14  C   UNL     1       6.918   5.531  16.001  0.00  0.00    +0.000 C 
BRANCH  14  15
ATOM     15  O   UNL     1       7.782   5.356  14.887  0.00  0.00    +0.000 OA
ATOM     16  H   UNL     1       8.148   4.446  14.966  0.00  0.00    +0.000 HD
ENDBRANCH  14  15
ENDBRANCH  13  14
ENDBRANCH  12  13
ENDBRANCH  10  12
ENDBRANCH   3   8
BRANCH   1  17
ATOM     17  S   UNL     1       0.981  10.156  18.586  0.00  0.00    +0.000 S 
ATOM     18  O   UNL     1       1.267  11.234  19.504  0.00  0.00    +0.000 OA
ATOM     19  O   UNL     1      -0.318   9.989  17.985  0.00  0.00    +0.000 OA
BRANCH  17  20
ATOM     20  N   UNL     1       2.096  10.329  17.336  0.00  0.00    +0.000 NA
ATOM     21  H   UNL     1       2.678   9.493  17.267  0.00  0.00    +0.000 HD
ATOM     22  H   UNL     1       2.644  11.184  17.455  0.00  0.00    +0.000 HD
ENDBRANCH  17  20
ENDBRANCH   1  17
BRANCH   4  23
ATOM     23  N   UNL     1       2.677   4.989  21.106  0.00  0.00    +0.000 N 
ATOM     24  H   UNL     1       3.383   5.114  21.838  0.00  0.00    +0.000 HD
BRANCH  23  25
ATOM     25  C   UNL     1       1.747   3.861  21.290  0.00  0.00    +0.000 C 
ATOM     26  C   UNL     1       0.739   3.824  20.133  0.00  0.00    +0.000 C 
ATOM     27  C   UNL     1       1.382   3.432  18.803  0.00  0.00    +0.000 C 
ATOM     28  C   UNL     1       2.151   2.117  18.888  0.00  0.00    +0.000 C 
ATOM     29  C   UNL     1       3.107   2.048  20.075  0.00  0.00    +0.000 C 
ATOM     30  C   UNL     1       2.481   2.516  21.384  0.00  0.00    +0.000 C 
ENDBRANCH  23  25
ENDBRANCH   4  23
TORSDOF 9
ENDMDL
MODEL 8
REMARK VINA RESULT:      -7.1      1.141      1.254
REMARK  Name = 
REMARK  9 active torsions:
REMARK  status: ('A' for Active; 'I' for Inactive)
REMARK    1  A    between atoms: N_1  and  S_2
REMARK    2  A    between atoms: S_2  and  C_5
REMARK    3  A    between atoms: C_7  and  C_8
REMARK    4  A    between atoms: N_10  and  C_11
REMARK    5  A    between atoms: C_11  and  C_12
REMARK    6  A    between atoms: C_12  and  C_13
REMARK    7  A    between atoms: C_13  and  O_14
REMARK    8  A    between atoms: C_15  and  N_16
REMARK    9  A    between atoms: N_16  and  C_17
REMARK                            x       y       z     vdW  Elec       q    Type
REMARK                         _______ _______ _______ _____ _____    ______ ____
ROOT
ATOM      1  C   UNL     1       1.684   8.835  19.121  0.00  0.00    +0.000 A 
ATOM      2  C   UNL     1       2.647   8.261  18.283  0.00  0.00    +0.000 A 
ATOM      3  C   UNL     1       3.180   6.987  18.571  0.00  0.00    +0.000 A 
ATOM      4  C   UNL     1       2.767   6.291  19.744  0.00  0.00    +0.000 A 
ATOM      5  C   UNL     1       1.805   6.910  20.557  0.00  0.00    +0.000 A 
ATOM      6  C   UNL     1       1.270   8.165  20.270  0.00  0.00    +0.000 A 
ATOM      7 CL   UNL     1       0.114   8.782  21.397  0.00  0.00    +0.000 Cl
ENDROOT
BRANCH   3   8
ATOM      8  C   UNL     1       4.199   6.398  17.632  0.00  0.00    +0.000 C 
ATOM      9  O   UNL     1       4.220   6.723  16.449  0.00  0.00    +0.000 OA
ATOM     10  N   UNL     1       5.073   5.445  18.162  0.00  0.00    +0.000 N 
ATOM     11  H   UNL     1       5.032   5.194  19.137  0.00  0.00    +0.000 HD
BRANCH  10  12
ATOM     12  C   UNL     1       6.105   4.824  17.352  0.00  0.00    +0.000 C 
BRANCH  12  13
ATOM     13  C   UNL     1       7.462   4.768  18.052  0.00  0.00    +0.000 C 
BRANCH  13  14
ATOM     14  C   UNL     1       7.742   5.951  18.970  0.00  0.00    +0.000 C 
BRANCH  14  15
ATOM     15  O   UNL     1       7.727   5.548  20.332  0.00  0.00    +0.000 OA
ATOM     16  H   UNL     1       7.574   6.366  20.858  0.00  0.00    +0.000 HD
ENDBRANCH  14  15
ENDBRANCH  13  14
ENDBRANCH  12  13
ENDBRANCH  10  12
ENDBRANCH   3   8
BRANCH   1  17
ATOM     17  S   UNL     1       1.028  10.418  18.727  0.00  0.00    +0.000 S 
ATOM     18  O   UNL     1       1.202  11.285  19.869  0.00  0.00    +0.000 OA
ATOM     19  O   UNL     1      -0.248  10.257  18.078  0.00  0.00    +0.000 OA
BRANCH  17  20
ATOM     20  N   UNL     1       2.114  10.981  17.570  0.00  0.00    +0.000 NA
ATOM     21  H   UNL     1       1.930  11.965  17.366  0.00  0.00    +0.000 HD
ATOM     22  H   UNL     1       2.091  10.393  16.735  0.00  0.00    +0.000 HD
ENDBRANCH  17  20
ENDBRANCH   1  17
BRANCH   4  23
ATOM     23  N   UNL     1       3.265   5.019  20.061  0.00  0.00    +0.000 N 
ATOM     24  H   UNL     1       4.104   5.066  20.646  0.00  0.00    +0.000 HD
BRANCH  23  25
ATOM     25  C   UNL     1       2.404   3.839  20.258  0.00  0.00    +0.000 C 
ATOM     26  C   UNL     1       1.454   3.683  19.062  0.00  0.00    +0.000 C 
ATOM     27  C   UNL     1       2.182   3.279  17.779  0.00  0.00    +0.000 C 
ATOM     28  C   UNL     1       3.032   2.026  17.957  0.00  0.00    +0.000 C 
ATOM     29  C   UNL     1       3.936   2.073  19.185  0.00  0.00    +0.000 C 
ATOM     30  C   UNL     1       3.221   2.553  20.444  0.00  0.00    +0.000 C 
ENDBRANCH  23  25
ENDBRANCH   4  23
TORSDOF 9
ENDMDL
MODEL 9
REMARK VINA RESULT:      -7.0      1.994      4.481
REMARK  Name = 
REMARK  9 active torsions:
REMARK  status: ('A' for Active; 'I' for Inactive)
REMARK    1  A    between atoms: N_1  and  S_2
REMARK    2  A    between atoms: S_2  and  C_5
REMARK    3  A    between atoms: C_7  and  C_8
REMARK    4  A    between atoms: N_10  and  C_11
REMARK    5  A    between atoms: C_11  and  C_12
REMARK    6  A    between atoms: C_12  and  C_13
REMARK    7  A    between atoms: C_13  and  O_14
REMARK    8  A    between atoms: C_15  and  N_16
REMARK    9  A    between atoms: N_16  and  C_17
REMARK                            x       y       z     vdW  Elec       q    Type
REMARK                         _______ _______ _______ _____ _____    ______ ____
ROOT
ATOM      1  C   UNL     1       1.298   8.593  19.964  0.00  0.00    +0.000 A 
ATOM      2  C   UNL     1       1.609   7.274  20.313  0.00  0.00    +0.000 A 
ATOM      3  C   UNL     1       2.445   6.491  19.488  0.00  0.00    +0.000 A 
ATOM      4  C   UNL     1       2.949   7.032  18.270  0.00  0.00    +0.000 A 
ATOM      5  C   UNL     1       2.604   8.355  17.959  0.00  0.00    +0.000 A 
ATOM      6  C   UNL     1       1.786   9.134  18.776  0.00  0.00    +0.000 A 
ATOM      7 CL   UNL     1       1.448  10.735  18.223  0.00  0.00    +0.000 Cl
ENDROOT
BRANCH   3   8
ATOM      8  C   UNL     1       2.769   5.083  19.912  0.00  0.00    +0.000 C 
ATOM      9  O   UNL     1       3.924   4.757  20.166  0.00  0.00    +0.000 OA
ATOM     10  N   UNL     1       1.708   4.174  19.955  0.00  0.00    +0.000 N 
ATOM     11  H   UNL     1       0.769   4.469  19.739  0.00  0.00    +0.000 HD
BRANCH  10  12
ATOM     12  C   UNL     1       1.902   2.796  20.365  0.00  0.00    +0.000 C 
BRANCH  12  13
ATOM     13  C   UNL     1       1.880   1.816  19.194  0.00  0.00    +0.000 C 
BRANCH  13  14
ATOM     14  C   UNL     1       3.157   1.805  18.362  0.00  0.00    +0.000 C 
BRANCH  14  15
ATOM     15  O   UNL     1       4.291   2.072  19.176  0.00  0.00    +0.000 OA
ATOM     16  H   UNL     1       4.230   3.022  19.426  0.00  0.00    +0.000 HD
ENDBRANCH  14  15
ENDBRANCH  13  14
ENDBRANCH  12  13
ENDBRANCH  10  12
ENDBRANCH   3   8
BRANCH   1  17
ATOM     17  S   UNL     1       0.266   9.546  21.020  0.00  0.00    +0.000 S 
ATOM     18  O   UNL     1      -0.100   8.737  22.158  0.00  0.00    +0.000 OA
ATOM     19  O   UNL     1      -0.719  10.238  20.227  0.00  0.00    +0.000 OA
BRANCH  17  20
ATOM     20  N   UNL     1       1.332  10.703  21.620  0.00  0.00    +0.000 NA
ATOM     21  H   UNL     1       1.835  11.149  20.851  0.00  0.00    +0.000 HD
ATOM     22  H   UNL     1       1.958  10.292  22.316  0.00  0.00    +0.000 HD
ENDBRANCH  17  20
ENDBRANCH   1  17
BRANCH   4  23
ATOM     23  N   UNL     1       3.791   6.291  17.427  0.00  0.00    +0.000 N 
ATOM     24  H   UNL     1       3.265   5.694  16.782  0.00  0.00    +0.000 HD
BRANCH  23  25
ATOM     25  C   UNL     1       5.088   6.790  16.937  0.00  0.00    +0.000 C 
ATOM     26  C   UNL     1       6.223   6.224  17.802  0.00  0.00    +0.000 C 
ATOM     27  C   UNL     1       6.419   4.721  17.608  0.00  0.00    +0.000 C 
ATOM     28  C   UNL     1       6.617   4.339  16.145  0.00  0.00    +0.000 C 
ATOM     29  C   UNL     1       5.574   4.946  15.212  0.00  0.00    +0.000 C 
ATOM     30  C   UNL     1       5.327   6.429  15.465  0.00  0.00    +0.000 C 
ENDBRANCH  23  25
ENDBRANCH   4  23
TORSDOF 9
ENDMDL
