MODEL 1
REMARK VINA RESULT:      -7.0      0.000      0.000
REMARK  Name = 
REMARK  4 active torsions:
REMARK  status: ('A' for Active; 'I' for Inactive)
REMARK    1  A    between atoms: C_1  and  S_2
REMARK    2  A    between atoms: S_2  and  C_3
REMARK    3  A    between atoms: S_2  and  C_4
REMARK    4  A    between atoms: N_10  and  C_11
REMARK                            x       y       z     vdW  Elec       q    Type
REMARK                         _______ _______ _______ _____ _____    ______ ____
ROOT
ATOM      1  C   UNL     1       5.138   4.843  16.365  0.00  0.00    +0.000 A 
ATOM      2  C   UNL     1       5.020   6.187  16.296  0.00  0.00    +0.000 A 
ATOM      3  O   UNL     1       5.484   7.100  15.571  0.00  0.00    +0.000 OA
ATOM      4  N   UNL     1       4.189   6.820  17.169  0.00  0.00    +0.000 N 
ATOM      5  C   UNL     1       3.393   6.247  18.114  0.00  0.00    +0.000 A 
ATOM      6  O   UNL     1       2.649   6.952  18.802  0.00  0.00    +0.000 OA
ATOM      7  N   UNL     1       3.515   4.870  18.241  0.00  0.00    +0.000 N 
ATOM      8  C   UNL     1       4.346   4.104  17.424  0.00  0.00    +0.000 A 
ATOM      9  O   UNL     1       4.389   2.868  17.483  0.00  0.00    +0.000 OA
ATOM     10  H   UNL     1       4.160   7.819  17.042  0.00  0.00    +0.000 HD
ENDROOT
BRANCH   7  11
ATOM     11  C   UNL     1       2.708   4.200  19.203  0.00  0.00    +0.000 A 
ATOM     12  C   UNL     1       3.198   3.965  20.495  0.00  0.00    +0.000 A 
ATOM     13  C   UNL     1       2.394   3.341  21.453  0.00  0.00    +0.000 A 
ATOM     14  C   UNL     1       1.106   2.920  21.119  0.00  0.00    +0.000 A 
ATOM     15  C   UNL     1       0.621   3.128  19.828  0.00  0.00    +0.000 A 
ATOM     16  C   UNL     1       1.415   3.775  18.884  0.00  0.00    +0.000 A 
ATOM     17  F   UNL     1       0.936   3.914  17.637  0.00  0.00    +0.000 F 
ENDBRANCH   7  11
BRANCH   1  19
ATOM     18  C   UNL     1       5.135   4.084  13.724  0.00  0.00    +0.000 C 
ATOM     19  S   UNL     1       6.106   3.821  15.223  0.00  0.00    +0.000 S 
ATOM     20  C   UNL     1       7.461   4.922  14.788  0.00  0.00    +0.000 C 
ENDBRANCH   1  19
TORSDOF 2
ENDMDL
MODEL 2
REMARK VINA RESULT:      -6.8      2.885      5.737
REMARK  Name = 
REMARK  4 active torsions:
REMARK  status: ('A' for Active; 'I' for Inactive)
REMARK    1  A    between atoms: C_1  and  S_2
REMARK    2  A    between atoms: S_2  and  C_3
REMARK    3  A    between atoms: S_2  and  C_4
REMARK    4  A    between atoms: N_10  and  C_11
REMARK                            x       y       z     vdW  Elec       q    Type
REMARK                         _______ _______ _______ _____ _____    ______ ____
ROOT
ATOM      1  C   UNL     1       3.130   3.720  18.989  0.00  0.00    +0.000 A 
ATOM      2  C   UNL     1       3.261   2.749  18.058  0.00  0.00    +0.000 A 
ATOM      3  O   UNL     1       2.618   1.725  17.722  0.00  0.00    +0.000 OA
ATOM      4  N   UNL     1       4.306   2.809  17.189  0.00  0.00    +0.000 N 
ATOM      5  C   UNL     1       5.252   3.784  17.101  0.00  0.00    +0.000 A 
ATOM      6  O   UNL     1       6.115   3.728  16.220  0.00  0.00    +0.000 OA
ATOM      7  N   UNL     1       5.173   4.781  18.065  0.00  0.00    +0.000 N 
ATOM      8  C   UNL     1       4.164   4.825  19.027  0.00  0.00    +0.000 A 
ATOM      9  O   UNL     1       4.047   5.759  19.831  0.00  0.00    +0.000 OA
ATOM     10  H   UNL     1       4.322   2.048  16.529  0.00  0.00    +0.000 HD
ENDROOT
BRANCH   7  11
ATOM     11  C   UNL     1       6.123   5.839  18.031  0.00  0.00    +0.000 A 
ATOM     12  C   UNL     1       7.258   5.795  18.852  0.00  0.00    +0.000 A 
ATOM     13  C   UNL     1       8.212   6.815  18.794  0.00  0.00    +0.000 A 
ATOM     14  C   UNL     1       8.024   7.901  17.938  0.00  0.00    +0.000 A 
ATOM     15  C   UNL     1       6.886   7.963  17.136  0.00  0.00    +0.000 A 
ATOM     16  C   UNL     1       5.950   6.931  17.176  0.00  0.00    +0.000 A 
ATOM     17  F   UNL     1       4.841   7.048  16.428  0.00  0.00    +0.000 F 
ENDBRANCH   7  11
BRANCH   1  19
ATOM     18  C   UNL     1       0.556   2.810  19.308  0.00  0.00    +0.000 C 
ATOM     19  S   UNL     1       1.749   3.867  20.155  0.00  0.00    +0.000 S 
ATOM     20  C   UNL     1       2.207   2.683  21.431  0.00  0.00    +0.000 C 
ENDBRANCH   1  19
TORSDOF 2
ENDMDL
MODEL 3
REMARK VINA RESULT:      -6.4      3.652      5.695
REMARK  Name = 
REMARK  4 active torsions:
REMARK  status: ('A' for Active; 'I' for Inactive)
REMARK    1  A    between atoms: C_1  and  S_2
REMARK    2  A    between atoms: S_2  and  C_3
REMARK    3  A    between atoms: S_2  and  C_4
REMARK    4  A    between atoms: N_10  and  C_11
REMARK                            x       y       z     vdW  Elec       q    Type
REMARK                         _______ _______ _______ _____ _____    ______ ____
ROOT
ATOM      1  C   UNL     1       1.498   8.872  19.487  0.00  0.00    +0.000 A 
ATOM      2  C   UNL     1       1.075   8.502  20.715  0.00  0.00    +0.000 A 
ATOM      3  O   UNL     1       0.396   9.022  21.634  0.00  0.00    +0.000 OA
ATOM      4  N   UNL     1       1.379   7.254  21.167  0.00  0.00    +0.000 N 
ATOM      5  C   UNL     1       2.044   6.273  20.496  0.00  0.00    +0.000 A 
ATOM      6  O   UNL     1       2.201   5.167  21.021  0.00  0.00    +0.000 OA
ATOM      7  N   UNL     1       2.528   6.629  19.244  0.00  0.00    +0.000 N 
ATOM      8  C   UNL     1       2.305   7.882  18.674  0.00  0.00    +0.000 A 
ATOM      9  O   UNL     1       2.664   8.167  17.524  0.00  0.00    +0.000 OA
ATOM     10  H   UNL     1       1.020   7.063  22.089  0.00  0.00    +0.000 HD
ENDROOT
BRANCH   7  11
ATOM     11  C   UNL     1       3.226   5.652  18.481  0.00  0.00    +0.000 A 
ATOM     12  C   UNL     1       4.627   5.636  18.467  0.00  0.00    +0.000 A 
ATOM     13  C   UNL     1       5.316   4.656  17.748  0.00  0.00    +0.000 A 
ATOM     14  C   UNL     1       4.611   3.702  17.013  0.00  0.00    +0.000 A 
ATOM     15  C   UNL     1       3.217   3.726  17.002  0.00  0.00    +0.000 A 
ATOM     16  C   UNL     1       2.533   4.688  17.743  0.00  0.00    +0.000 A 
ATOM     17  F   UNL     1       1.193   4.714  17.669  0.00  0.00    +0.000 F 
ENDBRANCH   7  11
BRANCH   1  19
ATOM     18  C   UNL     1      -0.699  10.283  18.628  0.00  0.00    +0.000 C 
ATOM     19  S   UNL     1       1.098  10.444  18.677  0.00  0.00    +0.000 S 
ATOM     20  C   UNL     1       1.166  11.604  20.051  0.00  0.00    +0.000 C 
ENDBRANCH   1  19
TORSDOF 2
ENDMDL
MODEL 4
REMARK VINA RESULT:      -6.3      3.077      5.942
REMARK  Name = 
REMARK  4 active torsions:
REMARK  status: ('A' for Active; 'I' for Inactive)
REMARK    1  A    between atoms: C_1  and  S_2
REMARK    2  A    between atoms: S_2  and  C_3
REMARK    3  A    between atoms: S_2  and  C_4
REMARK    4  A    between atoms: N_10  and  C_11
REMARK                            x       y       z     vdW  Elec       q    Type
REMARK                         _______ _______ _______ _____ _____    ______ ____
ROOT
ATOM      1  C   UNL     1       3.254   3.777  18.977  0.00  0.00    +0.000 A 
ATOM      2  C   UNL     1       3.416   2.786  18.073  0.00  0.00    +0.000 A 
ATOM      3  O   UNL     1       2.810   1.730  17.769  0.00  0.00    +0.000 OA
ATOM      4  N   UNL     1       4.455   2.860  17.197  0.00  0.00    +0.000 N 
ATOM      5  C   UNL     1       5.365   3.866  17.078  0.00  0.00    +0.000 A 
ATOM      6  O   UNL     1       6.226   3.816  16.194  0.00  0.00    +0.000 OA
ATOM      7  N   UNL     1       5.254   4.885  18.014  0.00  0.00    +0.000 N 
ATOM      8  C   UNL     1       4.248   4.920  18.980  0.00  0.00    +0.000 A 
ATOM      9  O   UNL     1       4.100   5.871  19.758  0.00  0.00    +0.000 OA
ATOM     10  H   UNL     1       4.496   2.082  16.558  0.00  0.00    +0.000 HD
ENDROOT
BRANCH   7  11
ATOM     11  C   UNL     1       6.165   5.975  17.946  0.00  0.00    +0.000 A 
ATOM     12  C   UNL     1       5.885   7.078  17.126  0.00  0.00    +0.000 A 
ATOM     13  C   UNL     1       6.759   8.167  17.085  0.00  0.00    +0.000 A 
ATOM     14  C   UNL     1       7.934   8.151  17.839  0.00  0.00    +0.000 A 
ATOM     15  C   UNL     1       8.231   7.047  18.637  0.00  0.00    +0.000 A 
ATOM     16  C   UNL     1       7.343   5.975  18.697  0.00  0.00    +0.000 A 
ATOM     17  F   UNL     1       7.684   4.907  19.436  0.00  0.00    +0.000 F 
ENDBRANCH   7  11
BRANCH   1  19
ATOM     18  C   UNL     1       0.679   2.865  19.282  0.00  0.00    +0.000 C 
ATOM     19  S   UNL     1       1.874   3.907  20.146  0.00  0.00    +0.000 S 
ATOM     20  C   UNL     1       2.330   2.701  21.402  0.00  0.00    +0.000 C 
ENDBRANCH   1  19
TORSDOF 2
ENDMDL
MODEL 5
REMARK VINA RESULT:      -6.3      2.884      5.697
REMARK  Name = 
REMARK  4 active torsions:
REMARK  status: ('A' for Active; 'I' for Inactive)
REMARK    1  A    between atoms: C_1  and  S_2
REMARK    2  A    between atoms: S_2  and  C_3
REMARK    3  A    between atoms: S_2  and  C_4
REMARK    4  A    between atoms: N_10  and  C_11
REMARK                            x       y       z     vdW  Elec       q    Type
REMARK                         _______ _______ _______ _____ _____    ______ ____
ROOT
ATOM      1  C   UNL     1       2.605   3.828  19.008  0.00  0.00    +0.000 A 
ATOM      2  C   UNL     1       2.588   2.912  18.015  0.00  0.00    +0.000 A 
ATOM      3  O   UNL     1       1.811   2.001  17.637  0.00  0.00    +0.000 OA
ATOM      4  N   UNL     1       3.610   2.897  17.117  0.00  0.00    +0.000 N 
ATOM      5  C   UNL     1       4.670   3.750  17.059  0.00  0.00    +0.000 A 
ATOM      6  O   UNL     1       5.496   3.644  16.148  0.00  0.00    +0.000 OA
ATOM      7  N   UNL     1       4.743   4.682  18.085  0.00  0.00    +0.000 N 
ATOM      8  C   UNL     1       3.773   4.789  19.082  0.00  0.00    +0.000 A 
ATOM      9  O   UNL     1       3.795   5.675  19.946  0.00  0.00    +0.000 OA
ATOM     10  H   UNL     1       3.513   2.186  16.410  0.00  0.00    +0.000 HD
ENDROOT
BRANCH   7  11
ATOM     11  C   UNL     1       5.819   5.612  18.086  0.00  0.00    +0.000 A 
ATOM     12  C   UNL     1       6.933   5.402  18.910  0.00  0.00    +0.000 A 
ATOM     13  C   UNL     1       8.009   6.294  18.885  0.00  0.00    +0.000 A 
ATOM     14  C   UNL     1       7.966   7.419  18.061  0.00  0.00    +0.000 A 
ATOM     15  C   UNL     1       6.850   7.649  17.257  0.00  0.00    +0.000 A 
ATOM     16  C   UNL     1       5.792   6.743  17.263  0.00  0.00    +0.000 A 
ATOM     17  F   UNL     1       4.712   7.020  16.516  0.00  0.00    +0.000 F 
ENDBRANCH   7  11
BRANCH   1  19
ATOM     18  C   UNL     1       2.105   3.364  21.671  0.00  0.00    +0.000 C 
ATOM     19  S   UNL     1       1.284   4.069  20.227  0.00  0.00    +0.000 S 
ATOM     20  C   UNL     1       1.505   5.796  20.684  0.00  0.00    +0.000 C 
ENDBRANCH   1  19
TORSDOF 2
ENDMDL
MODEL 6
REMARK VINA RESULT:      -6.2      3.792      5.753
REMARK  Name = 
REMARK  4 active torsions:
REMARK  status: ('A' for Active; 'I' for Inactive)
REMARK    1  A    between atoms: C_1  and  S_2
REMARK    2  A    between atoms: S_2  and  C_3
REMARK    3  A    between atoms: S_2  and  C_4
REMARK    4  A    between atoms: N_10  and  C_11
REMARK                            x       y       z     vdW  Elec       q    Type
REMARK                         _______ _______ _______ _____ _____    ______ ____
ROOT
ATOM      1  C   UNL     1       1.589   8.814  19.480  0.00  0.00    +0.000 A 
ATOM      2  C   UNL     1       1.144   8.551  20.728  0.00  0.00    +0.000 A 
ATOM      3  O   UNL     1       0.523   9.181  21.619  0.00  0.00    +0.000 OA
ATOM      4  N   UNL     1       1.336   7.308  21.247  0.00  0.00    +0.000 N 
ATOM      5  C   UNL     1       1.904   6.235  20.630  0.00  0.00    +0.000 A 
ATOM      6  O   UNL     1       1.963   5.149  21.214  0.00  0.00    +0.000 OA
ATOM      7  N   UNL     1       2.408   6.475  19.359  0.00  0.00    +0.000 N 
ATOM      8  C   UNL     1       2.296   7.710  18.720  0.00  0.00    +0.000 A 
ATOM      9  O   UNL     1       2.670   7.898  17.556  0.00  0.00    +0.000 OA
ATOM     10  H   UNL     1       0.969   7.201  22.179  0.00  0.00    +0.000 HD
ENDROOT
BRANCH   7  11
ATOM     11  C   UNL     1       3.007   5.398  18.648  0.00  0.00    +0.000 A 
ATOM     12  C   UNL     1       2.230   4.585  17.811  0.00  0.00    +0.000 A 
ATOM     13  C   UNL     1       2.822   3.550  17.084  0.00  0.00    +0.000 A 
ATOM     14  C   UNL     1       4.189   3.299  17.209  0.00  0.00    +0.000 A 
ATOM     15  C   UNL     1       4.964   4.087  18.058  0.00  0.00    +0.000 A 
ATOM     16  C   UNL     1       4.376   5.136  18.761  0.00  0.00    +0.000 A 
ATOM     17  F   UNL     1       5.141   5.843  19.608  0.00  0.00    +0.000 F 
ENDBRANCH   7  11
BRANCH   1  19
ATOM     18  C   UNL     1      -0.452  10.239  18.315  0.00  0.00    +0.000 C 
ATOM     19  S   UNL     1       1.328  10.369  18.585  0.00  0.00    +0.000 S 
ATOM     20  C   UNL     1       1.248  11.566  19.926  0.00  0.00    +0.000 C 
ENDBRANCH   1  19
TORSDOF 2
ENDMDL
MODEL 7
REMARK VINA RESULT:      -6.2      2.290      2.994
REMARK  Name = 
REMARK  4 active torsions:
REMARK  status: ('A' for Active; 'I' for Inactive)
REMARK    1  A    between atoms: C_1  and  S_2
REMARK    2  A    between atoms: S_2  and  C_3
REMARK    3  A    between atoms: S_2  and  C_4
REMARK    4  A    between atoms: N_10  and  C_11
REMARK                            x       y       z     vdW  Elec       q    Type
REMARK                         _______ _______ _______ _____ _____    ______ ____
ROOT
ATOM      1  C   UNL     1       5.988   5.137  17.265  0.00  0.00    +0.000 A 
ATOM      2  C   UNL     1       5.578   4.659  16.070  0.00  0.00    +0.000 A 
ATOM      3  O   UNL     1       6.027   4.645  14.898  0.00  0.00    +0.000 OA
ATOM      4  N   UNL     1       4.403   3.975  16.003  0.00  0.00    +0.000 N 
ATOM      5  C   UNL     1       3.574   3.656  17.036  0.00  0.00    +0.000 A 
ATOM      6  O   UNL     1       2.562   2.981  16.826  0.00  0.00    +0.000 OA
ATOM      7  N   UNL     1       3.942   4.163  18.275  0.00  0.00    +0.000 N 
ATOM      8  C   UNL     1       5.110   4.898  18.476  0.00  0.00    +0.000 A 
ATOM      9  O   UNL     1       5.479   5.275  19.596  0.00  0.00    +0.000 OA
ATOM     10  H   UNL     1       4.179   3.652  15.075  0.00  0.00    +0.000 HD
ENDROOT
BRANCH   7  11
ATOM     11  C   UNL     1       3.128   3.863  19.402  0.00  0.00    +0.000 A 
ATOM     12  C   UNL     1       1.988   4.633  19.674  0.00  0.00    +0.000 A 
ATOM     13  C   UNL     1       1.166   4.319  20.759  0.00  0.00    +0.000 A 
ATOM     14  C   UNL     1       1.492   3.254  21.599  0.00  0.00    +0.000 A 
ATOM     15  C   UNL     1       2.638   2.499  21.350  0.00  0.00    +0.000 A 
ATOM     16  C   UNL     1       3.440   2.797  20.251  0.00  0.00    +0.000 A 
ATOM     17  F   UNL     1       4.563   2.083  20.070  0.00  0.00    +0.000 F 
ENDBRANCH   7  11
BRANCH   1  19
ATOM     18  C   UNL     1       6.981   7.679  17.588  0.00  0.00    +0.000 C 
ATOM     19  S   UNL     1       7.568   5.972  17.567  0.00  0.00    +0.000 S 
ATOM     20  C   UNL     1       7.754   5.795  19.348  0.00  0.00    +0.000 C 
ENDBRANCH   1  19
TORSDOF 2
ENDMDL
MODEL 8
REMARK VINA RESULT:      -6.2      1.119      1.560
REMARK  Name = 
REMARK  4 active torsions:
REMARK  status: ('A' for Active; 'I' for Inactive)
REMARK    1  A    between atoms: C_1  and  S_2
REMARK    2  A    between atoms: S_2  and  C_3
REMARK    3  A    between atoms: S_2  and  C_4
REMARK    4  A    between atoms: N_10  and  C_11
REMARK                            x       y       z     vdW  Elec       q    Type
REMARK                         _______ _______ _______ _____ _____    ______ ____
ROOT
ATOM      1  C   UNL     1       5.151   4.761  16.108  0.00  0.00    +0.000 A 
ATOM      2  C   UNL     1       5.015   6.105  16.067  0.00  0.00    +0.000 A 
ATOM      3  O   UNL     1       5.451   7.037  15.348  0.00  0.00    +0.000 OA
ATOM      4  N   UNL     1       4.199   6.711  16.971  0.00  0.00    +0.000 N 
ATOM      5  C   UNL     1       3.433   6.112  17.925  0.00  0.00    +0.000 A 
ATOM      6  O   UNL     1       2.698   6.795  18.643  0.00  0.00    +0.000 OA
ATOM      7  N   UNL     1       3.574   4.734  18.023  0.00  0.00    +0.000 N 
ATOM      8  C   UNL     1       4.394   3.993  17.172  0.00  0.00    +0.000 A 
ATOM      9  O   UNL     1       4.452   2.757  17.207  0.00  0.00    +0.000 OA
ATOM     10  H   UNL     1       4.155   7.712  16.864  0.00  0.00    +0.000 HD
ENDROOT
BRANCH   7  11
ATOM     11  C   UNL     1       2.798   4.037  18.991  0.00  0.00    +0.000 A 
ATOM     12  C   UNL     1       1.421   3.861  18.797  0.00  0.00    +0.000 A 
ATOM     13  C   UNL     1       0.662   3.145  19.728  0.00  0.00    +0.000 A 
ATOM     14  C   UNL     1       1.268   2.626  20.873  0.00  0.00    +0.000 A 
ATOM     15  C   UNL     1       2.632   2.819  21.085  0.00  0.00    +0.000 A 
ATOM     16  C   UNL     1       3.391   3.509  20.141  0.00  0.00    +0.000 A 
ATOM     17  F   UNL     1       4.691   3.719  20.401  0.00  0.00    +0.000 F 
ENDBRANCH   7  11
BRANCH   1  19
ATOM     18  C   UNL     1       5.065   4.009  13.466  0.00  0.00    +0.000 C 
ATOM     19  S   UNL     1       6.102   3.772  14.924  0.00  0.00    +0.000 S 
ATOM     20  C   UNL     1       7.405   4.915  14.440  0.00  0.00    +0.000 C 
ENDBRANCH   1  19
TORSDOF 2
ENDMDL
MODEL 9
REMARK VINA RESULT:      -6.1      2.327      5.689
REMARK  Name = 
REMARK  4 active torsions:
REMARK  status: ('A' for Active; 'I' for Inactive)
REMARK    1  A    between atoms: C_1  and  S_2
REMARK    2  A    between atoms: S_2  and  C_3
REMARK    3  A    between atoms: S_2  and  C_4
REMARK    4  A    between atoms: N_10  and  C_11
REMARK                            x       y       z     vdW  Elec       q    Type
REMARK                         _______ _______ _______ _____ _____    ______ ____
ROOT
ATOM      1  C   UNL     1       2.794   4.074  19.208  0.00  0.00    +0.000 A 
ATOM      2  C   UNL     1       2.443   5.337  19.537  0.00  0.00    +0.000 A 
ATOM      3  O   UNL     1       1.706   5.876  20.399  0.00  0.00    +0.000 OA
ATOM      4  N   UNL     1       2.986   6.373  18.842  0.00  0.00    +0.000 N 
ATOM      5  C   UNL     1       3.910   6.303  17.844  0.00  0.00    +0.000 A 
ATOM      6  O   UNL     1       4.351   7.340  17.340  0.00  0.00    +0.000 OA
ATOM      7  N   UNL     1       4.269   5.021  17.452  0.00  0.00    +0.000 N 
ATOM      8  C   UNL     1       3.770   3.873  18.067  0.00  0.00    +0.000 A 
ATOM      9  O   UNL     1       4.155   2.734  17.772  0.00  0.00    +0.000 OA
ATOM     10  H   UNL     1       2.671   7.277  19.157  0.00  0.00    +0.000 HD
ENDROOT
BRANCH   7  11
ATOM     11  C   UNL     1       5.237   4.869  16.421  0.00  0.00    +0.000 A 
ATOM     12  C   UNL     1       4.834   4.567  15.113  0.00  0.00    +0.000 A 
ATOM     13  C   UNL     1       5.779   4.454  14.090  0.00  0.00    +0.000 A 
ATOM     14  C   UNL     1       7.137   4.612  14.371  0.00  0.00    +0.000 A 
ATOM     15  C   UNL     1       7.548   4.889  15.675  0.00  0.00    +0.000 A 
ATOM     16  C   UNL     1       6.600   5.028  16.687  0.00  0.00    +0.000 A 
ATOM     17  F   UNL     1       7.034   5.244  17.939  0.00  0.00    +0.000 F 
ENDBRANCH   7  11
BRANCH   1  19
ATOM     18  C   UNL     1       2.139   3.267  21.752  0.00  0.00    +0.000 C 
ATOM     19  S   UNL     1       2.262   2.581  20.087  0.00  0.00    +0.000 S 
ATOM     20  C   UNL     1       0.496   2.550  19.744  0.00  0.00    +0.000 C 
ENDBRANCH   1  19
TORSDOF 2
ENDMDL
