MODEL 1
REMARK VINA RESULT:      -8.8      0.000      0.000
REMARK  Name = 
REMARK  3 active torsions:
REMARK  status: ('A' for Active; 'I' for Inactive)
REMARK    1  A    between atoms: S_2  and  C_4
REMARK    2  A    between atoms: S_2  and  C_11
REMARK    3  A    between atoms: C_7  and  O_8
REMARK                            x       y       z     vdW  Elec       q    Type
REMARK                         _______ _______ _______ _____ _____    ______ ____
ROOT
ATOM      1  O   UNL     1       6.550   4.129  18.180  0.00  0.00    +0.000 OA
ATOM      2  S   UNL     1       6.242   5.342  17.434  0.00  0.00    +0.000 S 
ATOM      3  O   UNL     1       6.972   6.559  17.753  0.00  0.00    +0.000 OA
ENDROOT
BRANCH   2   4
ATOM      4  C   UNL     1       4.477   5.619  17.631  0.00  0.00    +0.000 A 
ATOM      5  C   UNL     1       4.080   6.962  17.769  0.00  0.00    +0.000 A 
ATOM      6  C   UNL     1       2.761   7.273  18.074  0.00  0.00    +0.000 A 
ATOM      7  C   UNL     1       1.868   6.247  18.363  0.00  0.00    +0.000 A 
ATOM      8  C   UNL     1       2.264   4.903  18.286  0.00  0.00    +0.000 A 
ATOM      9  C   UNL     1       1.404   3.899  18.757  0.00  0.00    +0.000 A 
ATOM     10  C   UNL     1       1.732   2.554  18.625  0.00  0.00    +0.000 A 
ATOM     11  C   UNL     1       2.852   2.199  17.892  0.00  0.00    +0.000 A 
ATOM     12  C   UNL     1       3.741   3.189  17.467  0.00  0.00    +0.000 A 
ATOM     13  C   UNL     1       3.538   4.558  17.771  0.00  0.00    +0.000 A 
ENDBRANCH   2   4
BRANCH   2  14
ATOM     14  C   UNL     1       6.610   4.968  15.739  0.00  0.00    +0.000 A 
ATOM     15  C   UNL     1       5.845   4.044  15.043  0.00  0.00    +0.000 A 
ATOM     16  C   UNL     1       6.131   3.846  13.691  0.00  0.00    +0.000 A 
ATOM     17  C   UNL     1       7.159   4.588  13.132  0.00  0.00    +0.000 A 
ATOM     18  N   UNL     1       7.879   5.478  13.842  0.00  0.00    +0.000 NA
ATOM     19  N   UNL     1       7.605   5.682  15.173  0.00  0.00    +0.000 NA
BRANCH  17  20
ATOM     20  O   UNL     1       7.495   4.447  11.825  0.00  0.00    +0.000 OA
ATOM     21  H   UNL     1       7.075   5.163  11.313  0.00  0.00    +0.000 HD
ENDBRANCH  17  20
ENDBRANCH   2  14
TORSDOF 3
ENDMDL
MODEL 2
REMARK VINA RESULT:      -8.5      1.115      1.115
REMARK  Name = 
REMARK  3 active torsions:
REMARK  status: ('A' for Active; 'I' for Inactive)
REMARK    1  A    between atoms: S_2  and  C_4
REMARK    2  A    between atoms: S_2  and  C_11
REMARK    3  A    between atoms: C_7  and  O_8
REMARK                            x       y       z     vdW  Elec       q    Type
REMARK                         _______ _______ _______ _____ _____    ______ ____
ROOT
ATOM      1  O   UNL     1       6.974   4.419  18.527  0.00  0.00    +0.000 OA
ATOM      2  S   UNL     1       6.471   5.529  17.730  0.00  0.00    +0.000 S 
ATOM      3  O   UNL     1       7.125   6.824  17.848  0.00  0.00    +0.000 OA
ENDROOT
BRANCH   2   4
ATOM      4  C   UNL     1       4.727   5.689  18.135  0.00  0.00    +0.000 A 
ATOM      5  C   UNL     1       4.124   6.908  17.775  0.00  0.00    +0.000 A 
ATOM      6  C   UNL     1       2.823   7.190  18.174  0.00  0.00    +0.000 A 
ATOM      7  C   UNL     1       2.170   6.314  19.033  0.00  0.00    +0.000 A 
ATOM      8  C   UNL     1       2.780   5.120  19.448  0.00  0.00    +0.000 A 
ATOM      9  C   UNL     1       2.179   4.348  20.454  0.00  0.00    +0.000 A 
ATOM     10  C   UNL     1       2.716   3.122  20.834  0.00  0.00    +0.000 A 
ATOM     11  C   UNL     1       3.773   2.594  20.112  0.00  0.00    +0.000 A 
ATOM     12  C   UNL     1       4.410   3.376  19.148  0.00  0.00    +0.000 A 
ATOM     13  C   UNL     1       4.014   4.712  18.885  0.00  0.00    +0.000 A 
ENDBRANCH   2   4
BRANCH   2  14
ATOM     14  C   UNL     1       6.655   5.028  16.038  0.00  0.00    +0.000 A 
ATOM     15  C   UNL     1       5.807   4.076  15.493  0.00  0.00    +0.000 A 
ATOM     16  C   UNL     1       5.948   3.776  14.137  0.00  0.00    +0.000 A 
ATOM     17  C   UNL     1       6.926   4.451  13.424  0.00  0.00    +0.000 A 
ATOM     18  N   UNL     1       7.731   5.371  13.990  0.00  0.00    +0.000 NA
ATOM     19  N   UNL     1       7.599   5.676  15.324  0.00  0.00    +0.000 NA
BRANCH  17  20
ATOM     20  O   UNL     1       7.123   4.210  12.103  0.00  0.00    +0.000 OA
ATOM     21  H   UNL     1       6.855   3.293  11.907  0.00  0.00    +0.000 HD
ENDBRANCH  17  20
ENDBRANCH   2  14
TORSDOF 3
ENDMDL
MODEL 3
REMARK VINA RESULT:      -7.8      1.348      2.534
REMARK  Name = 
REMARK  3 active torsions:
REMARK  status: ('A' for Active; 'I' for Inactive)
REMARK    1  A    between atoms: S_2  and  C_4
REMARK    2  A    between atoms: S_2  and  C_11
REMARK    3  A    between atoms: C_7  and  O_8
REMARK                            x       y       z     vdW  Elec       q    Type
REMARK                         _______ _______ _______ _____ _____    ______ ____
ROOT
ATOM      1  O   UNL     1       6.426   5.579  18.490  0.00  0.00    +0.000 OA
ATOM      2  S   UNL     1       5.285   5.508  17.588  0.00  0.00    +0.000 S 
ATOM      3  O   UNL     1       4.462   6.694  17.412  0.00  0.00    +0.000 OA
ENDROOT
BRANCH   2   4
ATOM      4  C   UNL     1       4.271   4.142  18.168  0.00  0.00    +0.000 A 
ATOM      5  C   UNL     1       4.492   2.904  17.536  0.00  0.00    +0.000 A 
ATOM      6  C   UNL     1       3.661   1.823  17.805  0.00  0.00    +0.000 A 
ATOM      7  C   UNL     1       2.539   2.009  18.605  0.00  0.00    +0.000 A 
ATOM      8  C   UNL     1       2.273   3.253  19.197  0.00  0.00    +0.000 A 
ATOM      9  C   UNL     1       1.046   3.464  19.844  0.00  0.00    +0.000 A 
ATOM     10  C   UNL     1       0.781   4.658  20.507  0.00  0.00    +0.000 A 
ATOM     11  C   UNL     1       1.794   5.592  20.650  0.00  0.00    +0.000 A 
ATOM     12  C   UNL     1       2.997   5.416  19.965  0.00  0.00    +0.000 A 
ATOM     13  C   UNL     1       3.217   4.306  19.111  0.00  0.00    +0.000 A 
ENDBRANCH   2   4
BRANCH   2  14
ATOM     14  C   UNL     1       5.958   5.125  15.992  0.00  0.00    +0.000 A 
ATOM     15  C   UNL     1       5.220   4.387  15.079  0.00  0.00    +0.000 A 
ATOM     16  C   UNL     1       5.767   4.182  13.811  0.00  0.00    +0.000 A 
ATOM     17  C   UNL     1       7.011   4.730  13.547  0.00  0.00    +0.000 A 
ATOM     18  N   UNL     1       7.697   5.443  14.462  0.00  0.00    +0.000 NA
ATOM     19  N   UNL     1       7.167   5.653  15.712  0.00  0.00    +0.000 NA
BRANCH  17  20
ATOM     20  O   UNL     1       7.607   4.570  12.338  0.00  0.00    +0.000 OA
ATOM     21  H   UNL     1       8.527   4.887  12.396  0.00  0.00    +0.000 HD
ENDBRANCH  17  20
ENDBRANCH   2  14
TORSDOF 3
ENDMDL
MODEL 4
REMARK VINA RESULT:      -7.7      1.356      1.957
REMARK  Name = 
REMARK  3 active torsions:
REMARK  status: ('A' for Active; 'I' for Inactive)
REMARK    1  A    between atoms: S_2  and  C_4
REMARK    2  A    between atoms: S_2  and  C_11
REMARK    3  A    between atoms: C_7  and  O_8
REMARK                            x       y       z     vdW  Elec       q    Type
REMARK                         _______ _______ _______ _____ _____    ______ ____
ROOT
ATOM      1  O   UNL     1       4.450   2.955  17.239  0.00  0.00    +0.000 OA
ATOM      2  S   UNL     1       5.243   4.156  17.461  0.00  0.00    +0.000 S 
ATOM      3  O   UNL     1       6.256   4.138  18.505  0.00  0.00    +0.000 OA
ENDROOT
BRANCH   2   4
ATOM      4  C   UNL     1       4.072   5.484  17.769  0.00  0.00    +0.000 A 
ATOM      5  C   UNL     1       4.296   6.675  17.055  0.00  0.00    +0.000 A 
ATOM      6  C   UNL     1       3.539   7.808  17.329  0.00  0.00    +0.000 A 
ATOM      7  C   UNL     1       2.650   7.790  18.397  0.00  0.00    +0.000 A 
ATOM      8  C   UNL     1       2.457   6.625  19.156  0.00  0.00    +0.000 A 
ATOM      9  C   UNL     1       1.697   6.684  20.334  0.00  0.00    +0.000 A 
ATOM     10  C   UNL     1       1.422   5.535  21.069  0.00  0.00    +0.000 A 
ATOM     11  C   UNL     1       1.782   4.301  20.554  0.00  0.00    +0.000 A 
ATOM     12  C   UNL     1       2.584   4.237  19.413  0.00  0.00    +0.000 A 
ATOM     13  C   UNL     1       3.055   5.404  18.762  0.00  0.00    +0.000 A 
ENDBRANCH   2   4
BRANCH   2  14
ATOM     14  C   UNL     1       6.103   4.450  15.937  0.00  0.00    +0.000 A 
ATOM     15  C   UNL     1       5.634   3.906  14.751  0.00  0.00    +0.000 A 
ATOM     16  C   UNL     1       6.305   4.232  13.572  0.00  0.00    +0.000 A 
ATOM     17  C   UNL     1       7.396   5.082  13.662  0.00  0.00    +0.000 A 
ATOM     18  N   UNL     1       7.821   5.592  14.835  0.00  0.00    +0.000 NA
ATOM     19  N   UNL     1       7.166   5.278  16.002  0.00  0.00    +0.000 NA
BRANCH  17  20
ATOM     20  O   UNL     1       8.099   5.442  12.559  0.00  0.00    +0.000 OA
ATOM     21  H   UNL     1       9.029   5.171  12.676  0.00  0.00    +0.000 HD
ENDBRANCH  17  20
ENDBRANCH   2  14
TORSDOF 3
ENDMDL
MODEL 5
REMARK VINA RESULT:      -7.7      1.160      2.532
REMARK  Name = 
REMARK  3 active torsions:
REMARK  status: ('A' for Active; 'I' for Inactive)
REMARK    1  A    between atoms: S_2  and  C_4
REMARK    2  A    between atoms: S_2  and  C_11
REMARK    3  A    between atoms: C_7  and  O_8
REMARK                            x       y       z     vdW  Elec       q    Type
REMARK                         _______ _______ _______ _____ _____    ______ ____
ROOT
ATOM      1  O   UNL     1       7.962   4.368  18.297  0.00  0.00    +0.000 OA
ATOM      2  S   UNL     1       7.021   5.302  17.694  0.00  0.00    +0.000 S 
ATOM      3  O   UNL     1       7.326   6.724  17.741  0.00  0.00    +0.000 OA
ENDROOT
BRANCH   2   4
ATOM      4  C   UNL     1       5.434   4.992  18.478  0.00  0.00    +0.000 A 
ATOM      5  C   UNL     1       5.300   3.746  19.118  0.00  0.00    +0.000 A 
ATOM      6  C   UNL     1       4.068   3.349  19.625  0.00  0.00    +0.000 A 
ATOM      7  C   UNL     1       2.947   4.134  19.383  0.00  0.00    +0.000 A 
ATOM      8  C   UNL     1       3.055   5.353  18.696  0.00  0.00    +0.000 A 
ATOM      9  C   UNL     1       1.891   6.034  18.307  0.00  0.00    +0.000 A 
ATOM     10  C   UNL     1       1.960   7.280  17.693  0.00  0.00    +0.000 A 
ATOM     11  C   UNL     1       3.185   7.918  17.595  0.00  0.00    +0.000 A 
ATOM     12  C   UNL     1       4.352   7.228  17.928  0.00  0.00    +0.000 A 
ATOM     13  C   UNL     1       4.326   5.879  18.361  0.00  0.00    +0.000 A 
ENDBRANCH   2   4
BRANCH   2  14
ATOM     14  C   UNL     1       6.943   4.863  15.977  0.00  0.00    +0.000 A 
ATOM     15  C   UNL     1       6.056   3.891  15.542  0.00  0.00    +0.000 A 
ATOM     16  C   UNL     1       5.982   3.640  14.171  0.00  0.00    +0.000 A 
ATOM     17  C   UNL     1       6.799   4.382  13.333  0.00  0.00    +0.000 A 
ATOM     18  N   UNL     1       7.649   5.320  13.795  0.00  0.00    +0.000 NA
ATOM     19  N   UNL     1       7.728   5.576  15.143  0.00  0.00    +0.000 NA
BRANCH  17  20
ATOM     20  O   UNL     1       6.785   4.192  11.989  0.00  0.00    +0.000 OA
ATOM     21  H   UNL     1       6.107   3.524  11.773  0.00  0.00    +0.000 HD
ENDBRANCH  17  20
ENDBRANCH   2  14
TORSDOF 3
ENDMDL
MODEL 6
REMARK VINA RESULT:      -7.6      1.502      1.684
REMARK  Name = 
REMARK  3 active torsions:
REMARK  status: ('A' for Active; 'I' for Inactive)
REMARK    1  A    between atoms: S_2  and  C_4
REMARK    2  A    between atoms: S_2  and  C_11
REMARK    3  A    between atoms: C_7  and  O_8
REMARK                            x       y       z     vdW  Elec       q    Type
REMARK                         _______ _______ _______ _____ _____    ______ ____
ROOT
ATOM      1  O   UNL     1       5.747   3.240  19.375  0.00  0.00    +0.000 OA
ATOM      2  S   UNL     1       5.655   4.618  18.915  0.00  0.00    +0.000 S 
ATOM      3  O   UNL     1       6.539   5.610  19.506  0.00  0.00    +0.000 OA
ENDROOT
BRANCH   2   4
ATOM      4  C   UNL     1       3.942   5.112  19.147  0.00  0.00    +0.000 A 
ATOM      5  C   UNL     1       3.727   6.483  19.377  0.00  0.00    +0.000 A 
ATOM      6  C   UNL     1       2.460   6.946  19.715  0.00  0.00    +0.000 A 
ATOM      7  C   UNL     1       1.440   6.030  19.945  0.00  0.00    +0.000 A 
ATOM      8  C   UNL     1       1.655   4.653  19.775  0.00  0.00    +0.000 A 
ATOM      9  C   UNL     1       0.670   3.743  20.188  0.00  0.00    +0.000 A 
ATOM     10  C   UNL     1       0.817   2.377  19.964  0.00  0.00    +0.000 A 
ATOM     11  C   UNL     1       1.879   1.928  19.198  0.00  0.00    +0.000 A 
ATOM     12  C   UNL     1       2.890   2.817  18.830  0.00  0.00    +0.000 A 
ATOM     13  C   UNL     1       2.871   4.178  19.226  0.00  0.00    +0.000 A 
ENDBRANCH   2   4
BRANCH   2  14
ATOM     14  C   UNL     1       6.041   4.573  17.184  0.00  0.00    +0.000 A 
ATOM     15  C   UNL     1       5.029   4.461  16.242  0.00  0.00    +0.000 A 
ATOM     16  C   UNL     1       5.384   4.507  14.893  0.00  0.00    +0.000 A 
ATOM     17  C   UNL     1       6.725   4.664  14.583  0.00  0.00    +0.000 A 
ATOM     18  N   UNL     1       7.680   4.770  15.528  0.00  0.00    +0.000 NA
ATOM     19  N   UNL     1       7.341   4.728  16.859  0.00  0.00    +0.000 NA
BRANCH  17  20
ATOM     20  O   UNL     1       7.146   4.715  13.293  0.00  0.00    +0.000 OA
ATOM     21  H   UNL     1       6.470   5.172  12.759  0.00  0.00    +0.000 HD
ENDBRANCH  17  20
ENDBRANCH   2  14
TORSDOF 3
ENDMDL
MODEL 7
REMARK VINA RESULT:      -7.5      2.297      3.621
REMARK  Name = 
REMARK  3 active torsions:
REMARK  status: ('A' for Active; 'I' for Inactive)
REMARK    1  A    between atoms: S_2  and  C_4
REMARK    2  A    between atoms: S_2  and  C_11
REMARK    3  A    between atoms: C_7  and  O_8
REMARK                            x       y       z     vdW  Elec       q    Type
REMARK                         _______ _______ _______ _____ _____    ______ ____
ROOT
ATOM      1  O   UNL     1       2.255   3.252  16.696  0.00  0.00    +0.000 OA
ATOM      2  S   UNL     1       3.399   3.203  17.596  0.00  0.00    +0.000 S 
ATOM      3  O   UNL     1       3.831   1.909  18.103  0.00  0.00    +0.000 OA
ENDROOT
BRANCH   2   4
ATOM      4  C   UNL     1       3.005   4.295  18.969  0.00  0.00    +0.000 A 
ATOM      5  C   UNL     1       2.650   3.660  20.173  0.00  0.00    +0.000 A 
ATOM      6  C   UNL     1       2.186   4.409  21.248  0.00  0.00    +0.000 A 
ATOM      7  C   UNL     1       1.956   5.769  21.082  0.00  0.00    +0.000 A 
ATOM      8  C   UNL     1       2.251   6.407  19.867  0.00  0.00    +0.000 A 
ATOM      9  C   UNL     1       1.843   7.734  19.664  0.00  0.00    +0.000 A 
ATOM     10  C   UNL     1       2.185   8.421  18.504  0.00  0.00    +0.000 A 
ATOM     11  C   UNL     1       3.059   7.835  17.604  0.00  0.00    +0.000 A 
ATOM     12  C   UNL     1       3.427   6.499  17.769  0.00  0.00    +0.000 A 
ATOM     13  C   UNL     1       2.923   5.710  18.834  0.00  0.00    +0.000 A 
ENDBRANCH   2   4
BRANCH   2  14
ATOM     14  C   UNL     1       4.764   3.860  16.675  0.00  0.00    +0.000 A 
ATOM     15  C   UNL     1       4.631   4.129  15.321  0.00  0.00    +0.000 A 
ATOM     16  C   UNL     1       5.713   4.716  14.662  0.00  0.00    +0.000 A 
ATOM     17  C   UNL     1       6.849   4.995  15.405  0.00  0.00    +0.000 A 
ATOM     18  N   UNL     1       6.939   4.718  16.721  0.00  0.00    +0.000 NA
ATOM     19  N   UNL     1       5.880   4.142  17.379  0.00  0.00    +0.000 NA
BRANCH  17  20
ATOM     20  O   UNL     1       7.940   5.563  14.833  0.00  0.00    +0.000 OA
ATOM     21  H   UNL     1       8.576   5.799  15.534  0.00  0.00    +0.000 HD
ENDBRANCH  17  20
ENDBRANCH   2  14
TORSDOF 3
ENDMDL
MODEL 8
REMARK VINA RESULT:      -7.5      2.497      4.108
REMARK  Name = 
REMARK  3 active torsions:
REMARK  status: ('A' for Active; 'I' for Inactive)
REMARK    1  A    between atoms: S_2  and  C_4
REMARK    2  A    between atoms: S_2  and  C_11
REMARK    3  A    between atoms: C_7  and  O_8
REMARK                            x       y       z     vdW  Elec       q    Type
REMARK                         _______ _______ _______ _____ _____    ______ ____
ROOT
ATOM      1  O   UNL     1       4.295   5.360  15.807  0.00  0.00    +0.000 OA
ATOM      2  S   UNL     1       5.211   4.545  16.592  0.00  0.00    +0.000 S 
ATOM      3  O   UNL     1       6.050   3.579  15.899  0.00  0.00    +0.000 OA
ENDROOT
BRANCH   2   4
ATOM      4  C   UNL     1       4.208   3.707  17.826  0.00  0.00    +0.000 A 
ATOM      5  C   UNL     1       4.118   2.309  17.695  0.00  0.00    +0.000 A 
ATOM      6  C   UNL     1       3.252   1.585  18.506  0.00  0.00    +0.000 A 
ATOM      7  C   UNL     1       2.387   2.265  19.356  0.00  0.00    +0.000 A 
ATOM      8  C   UNL     1       2.425   3.664  19.456  0.00  0.00    +0.000 A 
ATOM      9  C   UNL     1       1.425   4.334  20.177  0.00  0.00    +0.000 A 
ATOM     10  C   UNL     1       1.475   5.712  20.361  0.00  0.00    +0.000 A 
ATOM     11  C   UNL     1       2.598   6.410  19.948  0.00  0.00    +0.000 A 
ATOM     12  C   UNL     1       3.570   5.763  19.183  0.00  0.00    +0.000 A 
ATOM     13  C   UNL     1       3.441   4.403  18.803  0.00  0.00    +0.000 A 
ENDBRANCH   2   4
BRANCH   2  14
ATOM     14  C   UNL     1       6.313   5.688  17.383  0.00  0.00    +0.000 A 
ATOM     15  C   UNL     1       7.064   5.293  18.480  0.00  0.00    +0.000 A 
ATOM     16  C   UNL     1       7.970   6.209  19.015  0.00  0.00    +0.000 A 
ATOM     17  C   UNL     1       8.062   7.454  18.414  0.00  0.00    +0.000 A 
ATOM     18  N   UNL     1       7.315   7.801  17.348  0.00  0.00    +0.000 NA
ATOM     19  N   UNL     1       6.421   6.905  16.812  0.00  0.00    +0.000 NA
BRANCH  17  20
ATOM     20  O   UNL     1       8.919   8.397  18.881  0.00  0.00    +0.000 OA
ATOM     21  H   UNL     1       8.694   9.256  18.475  0.00  0.00    +0.000 HD
ENDBRANCH  17  20
ENDBRANCH   2  14
TORSDOF 3
ENDMDL
MODEL 9
REMARK VINA RESULT:      -7.5      2.494      3.780
REMARK  Name = 
REMARK  3 active torsions:
REMARK  status: ('A' for Active; 'I' for Inactive)
REMARK    1  A    between atoms: S_2  and  C_4
REMARK    2  A    between atoms: S_2  and  C_11
REMARK    3  A    between atoms: C_7  and  O_8
REMARK                            x       y       z     vdW  Elec       q    Type
REMARK                         _______ _______ _______ _____ _____    ______ ____
ROOT
ATOM      1  O   UNL     1       2.213   3.328  16.653  0.00  0.00    +0.000 OA
ATOM      2  S   UNL     1       3.361   3.018  17.494  0.00  0.00    +0.000 S 
ATOM      3  O   UNL     1       3.747   1.625  17.658  0.00  0.00    +0.000 OA
ENDROOT
BRANCH   2   4
ATOM      4  C   UNL     1       3.019   3.749  19.100  0.00  0.00    +0.000 A 
ATOM      5  C   UNL     1       2.842   2.841  20.161  0.00  0.00    +0.000 A 
ATOM      6  C   UNL     1       2.429   3.294  21.408  0.00  0.00    +0.000 A 
ATOM      7  C   UNL     1       2.072   4.628  21.564  0.00  0.00    +0.000 A 
ATOM      8  C   UNL     1       2.188   5.535  20.499  0.00  0.00    +0.000 A 
ATOM      9  C   UNL     1       1.651   6.826  20.627  0.00  0.00    +0.000 A 
ATOM     10  C   UNL     1       1.816   7.773  19.621  0.00  0.00    +0.000 A 
ATOM     11  C   UNL     1       2.640   7.484  18.547  0.00  0.00    +0.000 A 
ATOM     12  C   UNL     1       3.132   6.188  18.384  0.00  0.00    +0.000 A 
ATOM     13  C   UNL     1       2.807   5.144  19.287  0.00  0.00    +0.000 A 
ENDBRANCH   2   4
BRANCH   2  14
ATOM     14  C   UNL     1       4.743   3.834  16.741  0.00  0.00    +0.000 A 
ATOM     15  C   UNL     1       5.881   4.116  17.483  0.00  0.00    +0.000 A 
ATOM     16  C   UNL     1       6.967   4.690  16.820  0.00  0.00    +0.000 A 
ATOM     17  C   UNL     1       6.839   4.940  15.464  0.00  0.00    +0.000 A 
ATOM     18  N   UNL     1       5.716   4.651  14.777  0.00  0.00    +0.000 NA
ATOM     19  N   UNL     1       4.641   4.084  15.419  0.00  0.00    +0.000 NA
BRANCH  17  20
ATOM     20  O   UNL     1       7.852   5.499  14.754  0.00  0.00    +0.000 OA
ATOM     21  H   UNL     1       7.474   6.109  14.094  0.00  0.00    +0.000 HD
ENDBRANCH  17  20
ENDBRANCH   2  14
TORSDOF 3
ENDMDL
