MODEL 1
REMARK VINA RESULT:      -7.9      0.000      0.000
REMARK  Name = 
REMARK  5 active torsions:
REMARK  status: ('A' for Active; 'I' for Inactive)
REMARK    1  A    between atoms: C_1  and  C_2
REMARK    2  A    between atoms: N_4  and  C_5
REMARK    3  A    between atoms: C_13  and  C_14
REMARK    4  A    between atoms: C_15  and  C_16
REMARK    5  A    between atoms: C_18  and  N_19
REMARK                            x       y       z     vdW  Elec       q    Type
REMARK                         _______ _______ _______ _____ _____    ______ ____
ROOT
ATOM      1  C   UNL     1       3.912   5.135  19.299  0.00  0.00    +0.000 C 
ATOM      2  C   UNL     1       3.574   3.972  20.232  0.00  0.00    +0.000 C 
ATOM      3  C   UNL     1       2.613   4.090  21.174  0.00  0.00    +0.000 C 
ATOM      4  O   UNL     1       1.914   5.277  21.345  0.00  0.00    +0.000 OA
ATOM      5  C   UNL     1       2.005   6.288  20.405  0.00  0.00    +0.000 C 
ATOM      6  C   UNL     1       2.889   6.249  19.389  0.00  0.00    +0.000 C 
ATOM      7  C   UNL     1       2.876   7.371  18.400  0.00  0.00    +0.000 C 
ATOM      8  O   UNL     1       3.658   7.392  17.453  0.00  0.00    +0.000 OA
ATOM      9  C   UNL     1       1.839   8.465  18.556  0.00  0.00    +0.000 C 
ATOM     10  C   UNL     1       1.563   8.721  20.026  0.00  0.00    +0.000 C 
ATOM     11  C   UNL     1       1.084   7.441  20.696  0.00  0.00    +0.000 C 
ENDROOT
BRANCH   1  18
ATOM     12  C   UNL     1       1.976   3.424  17.354  0.00  0.00    +0.000 C 
ATOM     13  C   UNL     1       3.335   3.945  17.036  0.00  0.00    +0.000 A 
ATOM     14  N   UNL     1       3.841   3.819  15.800  0.00  0.00    +0.000 NA
ATOM     15  N   UNL     1       5.107   4.323  15.882  0.00  0.00    +0.000 N 
ATOM     16  C   UNL     1       5.333   4.857  17.137  0.00  0.00    +0.000 A 
ATOM     17 CL   UNL     1       6.704   5.795  17.547  0.00  0.00    +0.000 Cl
ATOM     18  C   UNL     1       4.211   4.656  17.904  0.00  0.00    +0.000 A 
BRANCH  15  19
ATOM     19  C   UNL     1       5.951   4.315  14.734  0.00  0.00    +0.000 A 
ATOM     20  C   UNL     1       5.601   3.537  13.622  0.00  0.00    +0.000 A 
ATOM     21  C   UNL     1       6.332   3.651  12.435  0.00  0.00    +0.000 A 
ATOM     22  C   UNL     1       7.429   4.510  12.368  0.00  0.00    +0.000 A 
ATOM     23  C   UNL     1       7.825   5.222  13.499  0.00  0.00    +0.000 A 
ATOM     24  C   UNL     1       7.101   5.110  14.682  0.00  0.00    +0.000 A 
ENDBRANCH  15  19
ENDBRANCH   1  18
BRANCH   3  25
ATOM     25  N   UNL     1       2.227   3.117  22.063  0.00  0.00    +0.000 N 
ATOM     26  H   UNL     1       2.827   2.297  22.129  0.00  0.00    +0.000 HD
ATOM     27  H   UNL     1       1.951   3.495  22.965  0.00  0.00    +0.000 HD
ENDBRANCH   3  25
BRANCH   2  28
ATOM     28  C   UNL     1       4.290   2.744  20.099  0.00  0.00    +0.000 C 
ATOM     29  N   UNL     1       4.867   1.741  20.015  0.00  0.00    +0.000 NA
ENDBRANCH   2  28
TORSDOF 4
ENDMDL
MODEL 2
REMARK VINA RESULT:      -7.3      9.644     12.564
REMARK  Name = 
REMARK  5 active torsions:
REMARK  status: ('A' for Active; 'I' for Inactive)
REMARK    1  A    between atoms: C_1  and  C_2
REMARK    2  A    between atoms: N_4  and  C_5
REMARK    3  A    between atoms: C_13  and  C_14
REMARK    4  A    between atoms: C_15  and  C_16
REMARK    5  A    between atoms: C_18  and  N_19
REMARK                            x       y       z     vdW  Elec       q    Type
REMARK                         _______ _______ _______ _____ _____    ______ ____
ROOT
ATOM      1  C   UNL     1       9.256  15.177  19.491  0.00  0.00    +0.000 C 
ATOM      2  C   UNL     1       9.582  16.062  18.288  0.00  0.00    +0.000 C 
ATOM      3  C   UNL     1      10.392  15.626  17.299  0.00  0.00    +0.000 C 
ATOM      4  O   UNL     1      10.978  14.369  17.351  0.00  0.00    +0.000 OA
ATOM      5  C   UNL     1      10.560  13.436  18.283  0.00  0.00    +0.000 C 
ATOM      6  C   UNL     1       9.709  13.746  19.280  0.00  0.00    +0.000 C 
ATOM      7  C   UNL     1       9.284  12.654  20.209  0.00  0.00    +0.000 C 
ATOM      8  O   UNL     1       8.510  12.874  21.137  0.00  0.00    +0.000 OA
ATOM      9  C   UNL     1       9.786  11.247  19.954  0.00  0.00    +0.000 C 
ATOM     10  C   UNL     1      11.195  11.285  19.393  0.00  0.00    +0.000 C 
ATOM     11  C   UNL     1      11.220  12.096  18.105  0.00  0.00    +0.000 C 
ENDROOT
BRANCH   1  18
ATOM     12  C   UNL     1       8.167  16.523  22.222  0.00  0.00    +0.000 C 
ATOM     13  C   UNL     1       7.351  15.973  21.104  0.00  0.00    +0.000 A 
ATOM     14  N   UNL     1       6.015  16.099  21.110  0.00  0.00    +0.000 NA
ATOM     15  N   UNL     1       5.590  15.424  20.001  0.00  0.00    +0.000 N 
ATOM     16  C   UNL     1       6.672  14.983  19.261  0.00  0.00    +0.000 A 
ATOM     17 CL   UNL     1       6.551  14.318  17.690  0.00  0.00    +0.000 Cl
ATOM     18  C   UNL     1       7.824  15.335  19.923  0.00  0.00    +0.000 A 
BRANCH  15  19
ATOM     19  C   UNL     1       4.197  15.332  19.715  0.00  0.00    +0.000 A 
ATOM     20  C   UNL     1       3.618  16.225  18.803  0.00  0.00    +0.000 A 
ATOM     21  C   UNL     1       2.293  16.038  18.393  0.00  0.00    +0.000 A 
ATOM     22  C   UNL     1       1.539  14.988  18.917  0.00  0.00    +0.000 A 
ATOM     23  C   UNL     1       2.092  14.150  19.884  0.00  0.00    +0.000 A 
ATOM     24  C   UNL     1       3.408  14.334  20.295  0.00  0.00    +0.000 A 
ENDBRANCH  15  19
ENDBRANCH   1  18
BRANCH   3  25
ATOM     25  N   UNL     1      10.753  16.332  16.178  0.00  0.00    +0.000 N 
ATOM     26  H   UNL     1      11.689  16.163  15.815  0.00  0.00    +0.000 HD
ATOM     27  H   UNL     1      10.031  16.331  15.463  0.00  0.00    +0.000 HD
ENDBRANCH   3  25
BRANCH   2  28
ATOM     28  C   UNL     1       9.014  17.370  18.215  0.00  0.00    +0.000 C 
ATOM     29  N   UNL     1       8.539  18.426  18.136  0.00  0.00    +0.000 NA
ENDBRANCH   2  28
TORSDOF 4
ENDMDL
MODEL 3
REMARK VINA RESULT:      -7.1      5.922      9.171
REMARK  Name = 
REMARK  5 active torsions:
REMARK  status: ('A' for Active; 'I' for Inactive)
REMARK    1  A    between atoms: C_1  and  C_2
REMARK    2  A    between atoms: N_4  and  C_5
REMARK    3  A    between atoms: C_13  and  C_14
REMARK    4  A    between atoms: C_15  and  C_16
REMARK    5  A    between atoms: C_18  and  N_19
REMARK                            x       y       z     vdW  Elec       q    Type
REMARK                         _______ _______ _______ _____ _____    ______ ____
ROOT
ATOM      1  C   UNL     1      -0.171  10.181  19.917  0.00  0.00    +0.000 C 
ATOM      2  C   UNL     1      -0.466  10.288  21.414  0.00  0.00    +0.000 C 
ATOM      3  C   UNL     1       0.060   9.409  22.294  0.00  0.00    +0.000 C 
ATOM      4  O   UNL     1       0.867   8.363  21.871  0.00  0.00    +0.000 OA
ATOM      5  C   UNL     1       1.357   8.331  20.577  0.00  0.00    +0.000 C 
ATOM      6  C   UNL     1       0.945   9.196  19.631  0.00  0.00    +0.000 C 
ATOM      7  C   UNL     1       1.569   9.106  18.274  0.00  0.00    +0.000 C 
ATOM      8  O   UNL     1       1.235   9.867  17.369  0.00  0.00    +0.000 OA
ATOM      9  C   UNL     1       2.668   8.088  18.046  0.00  0.00    +0.000 C 
ATOM     10  C   UNL     1       2.403   6.837  18.864  0.00  0.00    +0.000 C 
ATOM     11  C   UNL     1       2.311   7.192  20.341  0.00  0.00    +0.000 C 
ENDROOT
BRANCH   1  18
ATOM     12  C   UNL     1      -2.045  11.547  17.665  0.00  0.00    +0.000 C 
ATOM     13  C   UNL     1      -0.858  12.151  18.332  0.00  0.00    +0.000 A 
ATOM     14  N   UNL     1      -0.524  13.430  18.102  0.00  0.00    +0.000 NA
ATOM     15  N   UNL     1       0.634  13.625  18.798  0.00  0.00    +0.000 N 
ATOM     16  C   UNL     1       0.946  12.501  19.540  0.00  0.00    +0.000 A 
ATOM     17 CL   UNL     1       2.179  12.445  20.725  0.00  0.00    +0.000 Cl
ATOM     18  C   UNL     1      -0.001  11.537  19.288  0.00  0.00    +0.000 A 
BRANCH  15  19
ATOM     19  C   UNL     1       1.290  14.889  18.748  0.00  0.00    +0.000 A 
ATOM     20  C   UNL     1       2.566  14.985  18.174  0.00  0.00    +0.000 A 
ATOM     21  C   UNL     1       3.144  16.242  17.973  0.00  0.00    +0.000 A 
ATOM     22  C   UNL     1       2.470  17.396  18.373  0.00  0.00    +0.000 A 
ATOM     23  C   UNL     1       1.238  17.294  19.017  0.00  0.00    +0.000 A 
ATOM     24  C   UNL     1       0.660  16.045  19.220  0.00  0.00    +0.000 A 
ENDBRANCH  15  19
ENDBRANCH   1  18
BRANCH   3  25
ATOM     25  N   UNL     1      -0.137   9.409  23.653  0.00  0.00    +0.000 N 
ATOM     26  H   UNL     1      -0.802  10.088  24.017  0.00  0.00    +0.000 HD
ATOM     27  H   UNL     1      -0.258   8.474  24.033  0.00  0.00    +0.000 HD
ENDBRANCH   3  25
BRANCH   2  28
ATOM     28  C   UNL     1      -1.312  11.339  21.880  0.00  0.00    +0.000 C 
ATOM     29  N   UNL     1      -1.983  12.198  22.278  0.00  0.00    +0.000 NA
ENDBRANCH   2  28
TORSDOF 4
ENDMDL
MODEL 4
REMARK VINA RESULT:      -6.9     10.368     12.807
REMARK  Name = 
REMARK  5 active torsions:
REMARK  status: ('A' for Active; 'I' for Inactive)
REMARK    1  A    between atoms: C_1  and  C_2
REMARK    2  A    between atoms: N_4  and  C_5
REMARK    3  A    between atoms: C_13  and  C_14
REMARK    4  A    between atoms: C_15  and  C_16
REMARK    5  A    between atoms: C_18  and  N_19
REMARK                            x       y       z     vdW  Elec       q    Type
REMARK                         _______ _______ _______ _____ _____    ______ ____
ROOT
ATOM      1  C   UNL     1       9.450  14.814  18.178  0.00  0.00    +0.000 C 
ATOM      2  C   UNL     1      10.226  13.589  17.693  0.00  0.00    +0.000 C 
ATOM      3  C   UNL     1      11.445  13.714  17.127  0.00  0.00    +0.000 C 
ATOM      4  O   UNL     1      12.029  14.960  16.943  0.00  0.00    +0.000 OA
ATOM      5  C   UNL     1      11.496  16.083  17.550  0.00  0.00    +0.000 C 
ATOM      6  C   UNL     1      10.312  16.060  18.192  0.00  0.00    +0.000 C 
ATOM      7  C   UNL     1       9.846  17.317  18.855  0.00  0.00    +0.000 C 
ATOM      8  O   UNL     1       8.776  17.360  19.456  0.00  0.00    +0.000 OA
ATOM      9  C   UNL     1      10.748  18.536  18.818  0.00  0.00    +0.000 C 
ATOM     10  C   UNL     1      11.511  18.585  17.508  0.00  0.00    +0.000 C 
ATOM     11  C   UNL     1      12.333  17.315  17.337  0.00  0.00    +0.000 C 
ENDROOT
BRANCH   1  18
ATOM     12  C   UNL     1       6.277  15.103  18.728  0.00  0.00    +0.000 C 
ATOM     13  C   UNL     1       7.313  14.615  19.681  0.00  0.00    +0.000 A 
ATOM     14  N   UNL     1       6.960  14.133  20.882  0.00  0.00    +0.000 NA
ATOM     15  N   UNL     1       8.139  13.858  21.514  0.00  0.00    +0.000 N 
ATOM     16  C   UNL     1       9.205  14.067  20.658  0.00  0.00    +0.000 A 
ATOM     17 CL   UNL     1      10.815  13.600  21.000  0.00  0.00    +0.000 Cl
ATOM     18  C   UNL     1       8.716  14.533  19.461  0.00  0.00    +0.000 A 
BRANCH  15  19
ATOM     19  C   UNL     1       8.131  13.350  22.846  0.00  0.00    +0.000 A 
ATOM     20  C   UNL     1       8.582  14.159  23.898  0.00  0.00    +0.000 A 
ATOM     21  C   UNL     1       8.424  13.731  25.220  0.00  0.00    +0.000 A 
ATOM     22  C   UNL     1       7.852  12.487  25.491  0.00  0.00    +0.000 A 
ATOM     23  C   UNL     1       7.479  11.651  24.441  0.00  0.00    +0.000 A 
ATOM     24  C   UNL     1       7.635  12.072  23.124  0.00  0.00    +0.000 A 
ENDBRANCH  15  19
ENDBRANCH   1  18
BRANCH   3  25
ATOM     25  N   UNL     1      12.228  12.689  16.656  0.00  0.00    +0.000 N 
ATOM     26  H   UNL     1      12.439  11.939  17.311  0.00  0.00    +0.000 HD
ATOM     27  H   UNL     1      11.939  12.361  15.739  0.00  0.00    +0.000 HD
ENDBRANCH   3  25
BRANCH   2  28
ATOM     28  C   UNL     1       9.644  12.294  17.846  0.00  0.00    +0.000 C 
ATOM     29  N   UNL     1       9.190  11.235  17.987  0.00  0.00    +0.000 NA
ENDBRANCH   2  28
TORSDOF 4
ENDMDL
MODEL 5
REMARK VINA RESULT:      -6.7     10.391     13.161
REMARK  Name = 
REMARK  5 active torsions:
REMARK  status: ('A' for Active; 'I' for Inactive)
REMARK    1  A    between atoms: C_1  and  C_2
REMARK    2  A    between atoms: N_4  and  C_5
REMARK    3  A    between atoms: C_13  and  C_14
REMARK    4  A    between atoms: C_15  and  C_16
REMARK    5  A    between atoms: C_18  and  N_19
REMARK                            x       y       z     vdW  Elec       q    Type
REMARK                         _______ _______ _______ _____ _____    ______ ____
ROOT
ATOM      1  C   UNL     1       9.918  15.492  19.654  0.00  0.00    +0.000 C 
ATOM      2  C   UNL     1       9.955  16.206  18.302  0.00  0.00    +0.000 C 
ATOM      3  C   UNL     1      10.599  15.666  17.245  0.00  0.00    +0.000 C 
ATOM      4  O   UNL     1      11.270  14.456  17.352  0.00  0.00    +0.000 OA
ATOM      5  C   UNL     1      11.096  13.651  18.464  0.00  0.00    +0.000 C 
ATOM      6  C   UNL     1      10.422  14.067  19.554  0.00  0.00    +0.000 C 
ATOM      7  C   UNL     1      10.252  13.103  20.685  0.00  0.00    +0.000 C 
ATOM      8  O   UNL     1       9.647  13.423  21.706  0.00  0.00    +0.000 OA
ATOM      9  C   UNL     1      10.795  11.697  20.531  0.00  0.00    +0.000 C 
ATOM     10  C   UNL     1      12.072  11.714  19.711  0.00  0.00    +0.000 C 
ATOM     11  C   UNL     1      11.803  12.330  18.344  0.00  0.00    +0.000 C 
ENDROOT
BRANCH   1  18
ATOM     12  C   UNL     1       9.304  16.921  22.488  0.00  0.00    +0.000 C 
ATOM     13  C   UNL     1       8.313  16.323  21.551  0.00  0.00    +0.000 A 
ATOM     14  N   UNL     1       6.997  16.435  21.789  0.00  0.00    +0.000 NA
ATOM     15  N   UNL     1       6.395  15.717  20.794  0.00  0.00    +0.000 N 
ATOM     16  C   UNL     1       7.337  15.262  19.890  0.00  0.00    +0.000 A 
ATOM     17 CL   UNL     1       6.953  14.541  18.387  0.00  0.00    +0.000 Cl
ATOM     18  C   UNL     1       8.582  15.649  20.327  0.00  0.00    +0.000 A 
BRANCH  15  19
ATOM     19  C   UNL     1       4.975  15.600  20.762  0.00  0.00    +0.000 A 
ATOM     20  C   UNL     1       4.354  14.531  21.422  0.00  0.00    +0.000 A 
ATOM     21  C   UNL     1       2.960  14.500  21.534  0.00  0.00    +0.000 A 
ATOM     22  C   UNL     1       2.188  15.510  20.960  0.00  0.00    +0.000 A 
ATOM     23  C   UNL     1       2.803  16.528  20.235  0.00  0.00    +0.000 A 
ATOM     24  C   UNL     1       4.189  16.562  20.120  0.00  0.00    +0.000 A 
ENDBRANCH  15  19
ENDBRANCH   1  18
BRANCH   3  25
ATOM     25  N   UNL     1      10.698  16.217  15.990  0.00  0.00    +0.000 N 
ATOM     26  H   UNL     1      11.067  15.615  15.257  0.00  0.00    +0.000 HD
ATOM     27  H   UNL     1       9.864  16.728  15.718  0.00  0.00    +0.000 HD
ENDBRANCH   3  25
BRANCH   2  28
ATOM     28  C   UNL     1       9.294  17.464  18.164  0.00  0.00    +0.000 C 
ATOM     29  N   UNL     1       8.739  18.479  18.069  0.00  0.00    +0.000 NA
ENDBRANCH   2  28
TORSDOF 4
ENDMDL
MODEL 6
REMARK VINA RESULT:      -6.6      7.835     12.281
REMARK  Name = 
REMARK  5 active torsions:
REMARK  status: ('A' for Active; 'I' for Inactive)
REMARK    1  A    between atoms: C_1  and  C_2
REMARK    2  A    between atoms: N_4  and  C_5
REMARK    3  A    between atoms: C_13  and  C_14
REMARK    4  A    between atoms: C_15  and  C_16
REMARK    5  A    between atoms: C_18  and  N_19
REMARK                            x       y       z     vdW  Elec       q    Type
REMARK                         _______ _______ _______ _____ _____    ______ ____
ROOT
ATOM      1  C   UNL     1      -0.294  12.702  21.246  0.00  0.00    +0.000 C 
ATOM      2  C   UNL     1       0.181  13.291  19.918  0.00  0.00    +0.000 C 
ATOM      3  C   UNL     1       0.927  12.564  19.058  0.00  0.00    +0.000 C 
ATOM      4  O   UNL     1       1.308  11.264  19.359  0.00  0.00    +0.000 OA
ATOM      5  C   UNL     1       0.738  10.592  20.426  0.00  0.00    +0.000 C 
ATOM      6  C   UNL     1      -0.067  11.206  21.314  0.00  0.00    +0.000 C 
ATOM      7  C   UNL     1      -0.670  10.380  22.406  0.00  0.00    +0.000 C 
ATOM      8  O   UNL     1      -1.412  10.882  23.247  0.00  0.00    +0.000 OA
ATOM      9  C   UNL     1      -0.390   8.890  22.429  0.00  0.00    +0.000 C 
ATOM     10  C   UNL     1       1.015   8.612  21.930  0.00  0.00    +0.000 C 
ATOM     11  C   UNL     1       1.183   9.159  20.519  0.00  0.00    +0.000 C 
ENDROOT
BRANCH   1  18
ATOM     12  C   UNL     1      -1.216  14.537  23.744  0.00  0.00    +0.000 C 
ATOM     13  C   UNL     1      -2.081  14.000  22.657  0.00  0.00    +0.000 A 
ATOM     14  N   UNL     1      -3.374  14.349  22.580  0.00  0.00    +0.000 NA
ATOM     15  N   UNL     1      -3.875  13.626  21.535  0.00  0.00    +0.000 N 
ATOM     16  C   UNL     1      -2.864  12.922  20.908  0.00  0.00    +0.000 A 
ATOM     17 CL   UNL     1      -3.050  12.099  19.419  0.00  0.00    +0.000 Cl
ATOM     18  C   UNL     1      -1.690  13.152  21.583  0.00  0.00    +0.000 A 
BRANCH  15  19
ATOM     19  C   UNL     1      -5.253  13.736  21.190  0.00  0.00    +0.000 A 
ATOM     20  C   UNL     1      -5.680  14.793  20.374  0.00  0.00    +0.000 A 
ATOM     21  C   UNL     1      -6.995  14.815  19.897  0.00  0.00    +0.000 A 
ATOM     22  C   UNL     1      -7.890  13.809  20.262  0.00  0.00    +0.000 A 
ATOM     23  C   UNL     1      -7.486  12.804  21.139  0.00  0.00    +0.000 A 
ATOM     24  C   UNL     1      -6.180  12.779  21.616  0.00  0.00    +0.000 A 
ENDBRANCH  15  19
ENDBRANCH   1  18
BRANCH   3  25
ATOM     25  N   UNL     1       1.408  12.988  17.844  0.00  0.00    +0.000 N 
ATOM     26  H   UNL     1       2.122  12.409  17.409  0.00  0.00    +0.000 HD
ATOM     27  H   UNL     1       0.670  13.275  17.206  0.00  0.00    +0.000 HD
ENDBRANCH   3  25
BRANCH   2  28
ATOM     28  C   UNL     1      -0.174  14.634  19.587  0.00  0.00    +0.000 C 
ATOM     29  N   UNL     1      -0.440  15.729  19.307  0.00  0.00    +0.000 NA
ENDBRANCH   2  28
TORSDOF 4
ENDMDL
MODEL 7
REMARK VINA RESULT:      -6.6      7.516     11.929
REMARK  Name = 
REMARK  5 active torsions:
REMARK  status: ('A' for Active; 'I' for Inactive)
REMARK    1  A    between atoms: C_1  and  C_2
REMARK    2  A    between atoms: N_4  and  C_5
REMARK    3  A    between atoms: C_13  and  C_14
REMARK    4  A    between atoms: C_15  and  C_16
REMARK    5  A    between atoms: C_18  and  N_19
REMARK                            x       y       z     vdW  Elec       q    Type
REMARK                         _______ _______ _______ _____ _____    ______ ____
ROOT
ATOM      1  C   UNL     1       0.020  12.455  20.871  0.00  0.00    +0.000 C 
ATOM      2  C   UNL     1       0.566  13.095  19.594  0.00  0.00    +0.000 C 
ATOM      3  C   UNL     1       1.314  12.386  18.722  0.00  0.00    +0.000 C 
ATOM      4  O   UNL     1       1.636  11.058  18.964  0.00  0.00    +0.000 OA
ATOM      5  C   UNL     1       1.003  10.353  19.972  0.00  0.00    +0.000 C 
ATOM      6  C   UNL     1       0.189  10.949  20.864  0.00  0.00    +0.000 C 
ATOM      7  C   UNL     1      -0.483  10.090  21.888  0.00  0.00    +0.000 C 
ATOM      8  O   UNL     1      -1.237  10.574  22.729  0.00  0.00    +0.000 OA
ATOM      9  C   UNL     1      -0.261   8.591  21.839  0.00  0.00    +0.000 C 
ATOM     10  C   UNL     1       1.151   8.285  21.373  0.00  0.00    +0.000 C 
ATOM     11  C   UNL     1       1.390   8.900  20.001  0.00  0.00    +0.000 C 
ENDROOT
BRANCH   1  18
ATOM     12  C   UNL     1      -0.880  14.404  23.288  0.00  0.00    +0.000 C 
ATOM     13  C   UNL     1      -1.750  13.837  22.221  0.00  0.00    +0.000 A 
ATOM     14  N   UNL     1      -3.037  14.203  22.125  0.00  0.00    +0.000 NA
ATOM     15  N   UNL     1      -3.546  13.446  21.108  0.00  0.00    +0.000 N 
ATOM     16  C   UNL     1      -2.545  12.700  20.514  0.00  0.00    +0.000 A 
ATOM     17 CL   UNL     1      -2.739  11.821  19.059  0.00  0.00    +0.000 Cl
ATOM     18  C   UNL     1      -1.369  12.939  21.184  0.00  0.00    +0.000 A 
BRANCH  15  19
ATOM     19  C   UNL     1      -4.922  13.564  20.754  0.00  0.00    +0.000 A 
ATOM     20  C   UNL     1      -5.773  12.460  20.908  0.00  0.00    +0.000 A 
ATOM     21  C   UNL     1      -7.151  12.615  20.720  0.00  0.00    +0.000 A 
ATOM     22  C   UNL     1      -7.673  13.853  20.345  0.00  0.00    +0.000 A 
ATOM     23  C   UNL     1      -6.816  14.927  20.113  0.00  0.00    +0.000 A 
ATOM     24  C   UNL     1      -5.445  14.778  20.298  0.00  0.00    +0.000 A 
ENDBRANCH  15  19
ENDBRANCH   1  18
BRANCH   3  25
ATOM     25  N   UNL     1       1.854  12.856  17.550  0.00  0.00    +0.000 N 
ATOM     26  H   UNL     1       1.391  12.573  16.689  0.00  0.00    +0.000 HD
ATOM     27  H   UNL     1       2.077  13.846  17.588  0.00  0.00    +0.000 HD
ENDBRANCH   3  25
BRANCH   2  28
ATOM     28  C   UNL     1       0.272  14.467  19.326  0.00  0.00    +0.000 C 
ATOM     29  N   UNL     1       0.024  15.575  19.085  0.00  0.00    +0.000 NA
ENDBRANCH   2  28
TORSDOF 4
ENDMDL
MODEL 8
REMARK VINA RESULT:      -6.5      6.391      9.097
REMARK  Name = 
REMARK  5 active torsions:
REMARK  status: ('A' for Active; 'I' for Inactive)
REMARK    1  A    between atoms: C_1  and  C_2
REMARK    2  A    between atoms: N_4  and  C_5
REMARK    3  A    between atoms: C_13  and  C_14
REMARK    4  A    between atoms: C_15  and  C_16
REMARK    5  A    between atoms: C_18  and  N_19
REMARK                            x       y       z     vdW  Elec       q    Type
REMARK                         _______ _______ _______ _____ _____    ______ ____
ROOT
ATOM      1  C   UNL     1      -1.936  12.609  19.605  0.00  0.00    +0.000 C 
ATOM      2  C   UNL     1      -2.103  12.795  21.114  0.00  0.00    +0.000 C 
ATOM      3  C   UNL     1      -3.322  12.738  21.693  0.00  0.00    +0.000 C 
ATOM      4  O   UNL     1      -4.468  12.532  20.939  0.00  0.00    +0.000 OA
ATOM      5  C   UNL     1      -4.379  12.136  19.616  0.00  0.00    +0.000 C 
ATOM      6  C   UNL     1      -3.206  12.101  18.954  0.00  0.00    +0.000 C 
ATOM      7  C   UNL     1      -3.211  11.615  17.539  0.00  0.00    +0.000 C 
ATOM      8  O   UNL     1      -2.174  11.560  16.883  0.00  0.00    +0.000 OA
ATOM      9  C   UNL     1      -4.518  11.137  16.939  0.00  0.00    +0.000 C 
ATOM     10  C   UNL     1      -5.675  11.953  17.484  0.00  0.00    +0.000 C 
ATOM     11  C   UNL     1      -5.720  11.843  19.002  0.00  0.00    +0.000 C 
ENDROOT
BRANCH   1  18
ATOM     12  C   UNL     1       0.873  13.754  18.485  0.00  0.00    +0.000 C 
ATOM     13  C   UNL     1       0.554  12.341  18.833  0.00  0.00    +0.000 A 
ATOM     14  N   UNL     1       1.508  11.399  18.798  0.00  0.00    +0.000 NA
ATOM     15  N   UNL     1       0.863  10.230  19.088  0.00  0.00    +0.000 N 
ATOM     16  C   UNL     1      -0.459  10.476  19.408  0.00  0.00    +0.000 A 
ATOM     17 CL   UNL     1      -1.520   9.304  20.063  0.00  0.00    +0.000 Cl
ATOM     18  C   UNL     1      -0.695  11.823  19.279  0.00  0.00    +0.000 A 
BRANCH  15  19
ATOM     19  C   UNL     1       1.589   9.003  19.107  0.00  0.00    +0.000 A 
ATOM     20  C   UNL     1       1.621   8.236  20.280  0.00  0.00    +0.000 A 
ATOM     21  C   UNL     1       2.189   6.958  20.259  0.00  0.00    +0.000 A 
ATOM     22  C   UNL     1       2.754   6.462  19.084  0.00  0.00    +0.000 A 
ATOM     23  C   UNL     1       2.794   7.258  17.941  0.00  0.00    +0.000 A 
ATOM     24  C   UNL     1       2.231   8.530  17.958  0.00  0.00    +0.000 A 
ENDBRANCH  15  19
ENDBRANCH   1  18
BRANCH   3  25
ATOM     25  N   UNL     1      -3.590  12.891  23.031  0.00  0.00    +0.000 N 
ATOM     26  H   UNL     1      -3.295  13.767  23.457  0.00  0.00    +0.000 HD
ATOM     27  H   UNL     1      -4.536  12.614  23.278  0.00  0.00    +0.000 HD
ENDBRANCH   3  25
BRANCH   2  28
ATOM     28  C   UNL     1      -0.946  13.032  21.916  0.00  0.00    +0.000 C 
ATOM     29  N   UNL     1       0.002  13.241  22.551  0.00  0.00    +0.000 NA
ENDBRANCH   2  28
TORSDOF 4
ENDMDL
MODEL 9
REMARK VINA RESULT:      -6.5      9.427     11.973
REMARK  Name = 
REMARK  5 active torsions:
REMARK  status: ('A' for Active; 'I' for Inactive)
REMARK    1  A    between atoms: C_1  and  C_2
REMARK    2  A    between atoms: N_4  and  C_5
REMARK    3  A    between atoms: C_13  and  C_14
REMARK    4  A    between atoms: C_15  and  C_16
REMARK    5  A    between atoms: C_18  and  N_19
REMARK                            x       y       z     vdW  Elec       q    Type
REMARK                         _______ _______ _______ _____ _____    ______ ____
ROOT
ATOM      1  C   UNL     1      -3.599  14.078  22.139  0.00  0.00    +0.000 C 
ATOM      2  C   UNL     1      -3.715  13.006  23.223  0.00  0.00    +0.000 C 
ATOM      3  C   UNL     1      -4.753  12.997  24.087  0.00  0.00    +0.000 C 
ATOM      4  O   UNL     1      -5.739  13.973  24.039  0.00  0.00    +0.000 OA
ATOM      5  C   UNL     1      -5.823  14.834  22.959  0.00  0.00    +0.000 C 
ATOM      6  C   UNL     1      -4.872  14.888  22.006  0.00  0.00    +0.000 C 
ATOM      7  C   UNL     1      -5.081  15.822  20.856  0.00  0.00    +0.000 C 
ATOM      8  O   UNL     1      -4.250  15.917  19.956  0.00  0.00    +0.000 OA
ATOM      9  C   UNL     1      -6.368  16.619  20.791  0.00  0.00    +0.000 C 
ATOM     10  C   UNL     1      -6.826  16.993  22.188  0.00  0.00    +0.000 C 
ATOM     11  C   UNL     1      -7.025  15.736  23.024  0.00  0.00    +0.000 C 
ENDROOT
BRANCH   1  18
ATOM     12  C   UNL     1      -0.684  14.564  20.827  0.00  0.00    +0.000 C 
ATOM     13  C   UNL     1      -1.768  13.687  20.305  0.00  0.00    +0.000 A 
ATOM     14  N   UNL     1      -1.557  12.906  19.235  0.00  0.00    +0.000 NA
ATOM     15  N   UNL     1      -2.761  12.311  18.987  0.00  0.00    +0.000 N 
ATOM     16  C   UNL     1      -3.674  12.642  19.970  0.00  0.00    +0.000 A 
ATOM     17 CL   UNL     1      -5.207  11.902  20.143  0.00  0.00    +0.000 Cl
ATOM     18  C   UNL     1      -3.070  13.507  20.851  0.00  0.00    +0.000 A 
BRANCH  15  19
ATOM     19  C   UNL     1      -2.901  11.424  17.880  0.00  0.00    +0.000 A 
ATOM     20  C   UNL     1      -3.975  11.587  16.993  0.00  0.00    +0.000 A 
ATOM     21  C   UNL     1      -4.027  10.830  15.819  0.00  0.00    +0.000 A 
ATOM     22  C   UNL     1      -3.034   9.889  15.546  0.00  0.00    +0.000 A 
ATOM     23  C   UNL     1      -2.011   9.671  16.467  0.00  0.00    +0.000 A 
ATOM     24  C   UNL     1      -1.956  10.421  17.638  0.00  0.00    +0.000 A 
ENDBRANCH  15  19
ENDBRANCH   1  18
BRANCH   3  25
ATOM     25  N   UNL     1      -4.958  12.089  25.097  0.00  0.00    +0.000 N 
ATOM     26  H   UNL     1      -4.177  11.476  25.323  0.00  0.00    +0.000 HD
ATOM     27  H   UNL     1      -5.405  12.499  25.911  0.00  0.00    +0.000 HD
ENDBRANCH   3  25
BRANCH   2  28
ATOM     28  C   UNL     1      -2.706  12.001  23.316  0.00  0.00    +0.000 C 
ATOM     29  N   UNL     1      -1.887  11.185  23.417  0.00  0.00    +0.000 NA
ENDBRANCH   2  28
TORSDOF 4
ENDMDL
