MODEL 1
REMARK VINA RESULT:      -7.4      0.000      0.000
REMARK  Name = 
REMARK  4 active torsions:
REMARK  status: ('A' for Active; 'I' for Inactive)
REMARK    1  A    between atoms: C_2  and  C_3
REMARK    2  A    between atoms: C_6  and  C_7
REMARK    3  A    between atoms: C_7  and  S_8
REMARK    4  A    between atoms: S_8  and  C_11
REMARK                            x       y       z     vdW  Elec       q    Type
REMARK                         _______ _______ _______ _____ _____    ______ ____
ROOT
ATOM      1  S   UNL     1       3.686   2.906  18.610  0.00  0.00    +0.000 S 
ATOM      2  O   UNL     1       4.058   3.185  19.985  0.00  0.00    +0.000 OA
ATOM      3  O   UNL     1       3.639   1.548  18.101  0.00  0.00    +0.000 OA
ENDROOT
BRANCH   1   4
ATOM      4  C   UNL     1       4.877   3.765  17.578  0.00  0.00    +0.000 A 
ATOM      5  C   UNL     1       5.796   4.647  18.152  0.00  0.00    +0.000 A 
ATOM      6  C   UNL     1       6.756   5.281  17.349  0.00  0.00    +0.000 A 
ATOM      7  C   UNL     1       6.789   5.033  15.960  0.00  0.00    +0.000 A 
ATOM      8  N   UNL     1       7.668   5.597  15.048  0.00  0.00    +0.000 NA
ATOM      9  C   UNL     1       7.405   5.166  13.841  0.00  0.00    +0.000 A 
ATOM     10  N   UNL     1       8.063   5.581  12.749  0.00  0.00    +0.000 N 
ATOM     11  S   UNL     1       6.138   4.018  13.724  0.00  0.00    +0.000 S 
ATOM     12  C   UNL     1       5.864   4.139  15.419  0.00  0.00    +0.000 A 
ATOM     13  C   UNL     1       4.901   3.483  16.206  0.00  0.00    +0.000 A 
ATOM     14  H   UNL     1       8.934   6.080  12.887  0.00  0.00    +0.000 HD
ATOM     15  H   UNL     1       7.994   5.051  11.889  0.00  0.00    +0.000 HD
ENDBRANCH   1   4
BRANCH   1  16
ATOM     16  C   UNL     1       2.130   3.719  18.255  0.00  0.00    +0.000 C 
BRANCH  16  20
ATOM     17  C   UNL     1       1.688   7.386  20.527  0.00  0.00    +0.000 A 
ATOM     18  C   UNL     1       2.277   7.401  19.262  0.00  0.00    +0.000 A 
ATOM     19  C   UNL     1       2.431   6.214  18.540  0.00  0.00    +0.000 A 
ATOM     20  C   UNL     1       1.996   4.988  19.070  0.00  0.00    +0.000 A 
ATOM     21  C   UNL     1       1.419   4.978  20.349  0.00  0.00    +0.000 A 
ATOM     22  C   UNL     1       1.265   6.170  21.070  0.00  0.00    +0.000 A 
BRANCH  17  24
ATOM     23  N   UNL     1       1.384   9.605  21.838  0.00  0.00    +0.000 NA
ATOM     24  C   UNL     1       1.516   8.610  21.260  0.00  0.00    +0.000 C 
ENDBRANCH  17  24
ENDBRANCH  16  20
ENDBRANCH   1  16
TORSDOF 4
ENDMDL
MODEL 2
REMARK VINA RESULT:      -7.3      0.068      1.030
REMARK  Name = 
REMARK  4 active torsions:
REMARK  status: ('A' for Active; 'I' for Inactive)
REMARK    1  A    between atoms: C_2  and  C_3
REMARK    2  A    between atoms: C_6  and  C_7
REMARK    3  A    between atoms: C_7  and  S_8
REMARK    4  A    between atoms: S_8  and  C_11
REMARK                            x       y       z     vdW  Elec       q    Type
REMARK                         _______ _______ _______ _____ _____    ______ ____
ROOT
ATOM      1  S   UNL     1       3.714   2.917  18.620  0.00  0.00    +0.000 S 
ATOM      2  O   UNL     1       4.061   3.236  19.993  0.00  0.00    +0.000 OA
ATOM      3  O   UNL     1       3.713   1.548  18.140  0.00  0.00    +0.000 OA
ENDROOT
BRANCH   1   4
ATOM      4  C   UNL     1       4.890   3.789  17.583  0.00  0.00    +0.000 A 
ATOM      5  C   UNL     1       5.778   4.709  18.148  0.00  0.00    +0.000 A 
ATOM      6  C   UNL     1       6.726   5.355  17.342  0.00  0.00    +0.000 A 
ATOM      7  C   UNL     1       6.781   5.080  15.958  0.00  0.00    +0.000 A 
ATOM      8  N   UNL     1       7.653   5.652  15.044  0.00  0.00    +0.000 NA
ATOM      9  C   UNL     1       7.414   5.190  13.843  0.00  0.00    +0.000 A 
ATOM     10  N   UNL     1       8.071   5.601  12.749  0.00  0.00    +0.000 N 
ATOM     11  S   UNL     1       6.182   4.003  13.737  0.00  0.00    +0.000 S 
ATOM     12  C   UNL     1       5.888   4.150  15.426  0.00  0.00    +0.000 A 
ATOM     13  C   UNL     1       4.935   3.482  16.217  0.00  0.00    +0.000 A 
ATOM     14  H   UNL     1       8.926   6.128  12.885  0.00  0.00    +0.000 HD
ATOM     15  H   UNL     1       8.026   5.053  11.899  0.00  0.00    +0.000 HD
ENDBRANCH   1   4
BRANCH   1  16
ATOM     16  C   UNL     1       2.138   3.675  18.232  0.00  0.00    +0.000 C 
BRANCH  16  20
ATOM     17  C   UNL     1       1.710   7.351  20.492  0.00  0.00    +0.000 A 
ATOM     18  C   UNL     1       1.292   6.133  21.031  0.00  0.00    +0.000 A 
ATOM     19  C   UNL     1       1.419   4.954  20.292  0.00  0.00    +0.000 A 
ATOM     20  C   UNL     1       1.968   4.969  19.000  0.00  0.00    +0.000 A 
ATOM     21  C   UNL     1       2.371   6.199  18.458  0.00  0.00    +0.000 A 
ATOM     22  C   UNL     1       2.245   7.380  19.201  0.00  0.00    +0.000 A 
BRANCH  17  24
ATOM     23  N   UNL     1       1.510   9.529  21.889  0.00  0.00    +0.000 NA
ATOM     24  C   UNL     1       1.593   8.560  21.259  0.00  0.00    +0.000 C 
ENDBRANCH  17  24
ENDBRANCH  16  20
ENDBRANCH   1  16
TORSDOF 4
ENDMDL
MODEL 3
REMARK VINA RESULT:      -7.2      3.233      7.195
REMARK  Name = 
REMARK  4 active torsions:
REMARK  status: ('A' for Active; 'I' for Inactive)
REMARK    1  A    between atoms: C_2  and  C_3
REMARK    2  A    between atoms: C_6  and  C_7
REMARK    3  A    between atoms: C_7  and  S_8
REMARK    4  A    between atoms: S_8  and  C_11
REMARK                            x       y       z     vdW  Elec       q    Type
REMARK                         _______ _______ _______ _____ _____    ______ ____
ROOT
ATOM      1  S   UNL     1       7.025   6.225  17.724  0.00  0.00    +0.000 S 
ATOM      2  O   UNL     1       7.785   6.480  18.935  0.00  0.00    +0.000 OA
ATOM      3  O   UNL     1       6.860   7.247  16.708  0.00  0.00    +0.000 OA
ENDROOT
BRANCH   1   4
ATOM      4  C   UNL     1       5.363   5.795  18.248  0.00  0.00    +0.000 A 
ATOM      5  C   UNL     1       4.271   6.544  17.803  0.00  0.00    +0.000 A 
ATOM      6  C   UNL     1       2.970   6.178  18.178  0.00  0.00    +0.000 A 
ATOM      7  C   UNL     1       2.764   5.055  19.009  0.00  0.00    +0.000 A 
ATOM      8  N   UNL     1       1.541   4.589  19.466  0.00  0.00    +0.000 NA
ATOM      9  C   UNL     1       1.716   3.543  20.235  0.00  0.00    +0.000 A 
ATOM     10  N   UNL     1       0.712   2.910  20.859  0.00  0.00    +0.000 N 
ATOM     11  S   UNL     1       3.337   3.015  20.409  0.00  0.00    +0.000 S 
ATOM     12  C   UNL     1       3.874   4.322  19.428  0.00  0.00    +0.000 A 
ATOM     13  C   UNL     1       5.187   4.664  19.056  0.00  0.00    +0.000 A 
ATOM     14  H   UNL     1      -0.233   3.114  20.556  0.00  0.00    +0.000 HD
ATOM     15  H   UNL     1       0.860   1.982  21.235  0.00  0.00    +0.000 HD
ENDBRANCH   1   4
BRANCH   1  16
ATOM     16  C   UNL     1       7.645   4.730  16.958  0.00  0.00    +0.000 C 
BRANCH  16  20
ATOM     17  C   UNL     1       5.526   3.813  13.287  0.00  0.00    +0.000 A 
ATOM     18  C   UNL     1       6.768   4.448  13.250  0.00  0.00    +0.000 A 
ATOM     19  C   UNL     1       7.440   4.755  14.437  0.00  0.00    +0.000 A 
ATOM     20  C   UNL     1       6.882   4.430  15.684  0.00  0.00    +0.000 A 
ATOM     21  C   UNL     1       5.625   3.806  15.714  0.00  0.00    +0.000 A 
ATOM     22  C   UNL     1       4.955   3.498  14.523  0.00  0.00    +0.000 A 
BRANCH  17  24
ATOM     23  N   UNL     1       4.302   3.205  11.081  0.00  0.00    +0.000 NA
ATOM     24  C   UNL     1       4.844   3.484  12.065  0.00  0.00    +0.000 C 
ENDBRANCH  17  24
ENDBRANCH  16  20
ENDBRANCH   1  16
TORSDOF 4
ENDMDL
MODEL 4
REMARK VINA RESULT:      -7.2      2.816      7.706
REMARK  Name = 
REMARK  4 active torsions:
REMARK  status: ('A' for Active; 'I' for Inactive)
REMARK    1  A    between atoms: C_2  and  C_3
REMARK    2  A    between atoms: C_6  and  C_7
REMARK    3  A    between atoms: C_7  and  S_8
REMARK    4  A    between atoms: S_8  and  C_11
REMARK                            x       y       z     vdW  Elec       q    Type
REMARK                         _______ _______ _______ _____ _____    ______ ____
ROOT
ATOM      1  S   UNL     1       2.767   5.718  19.193  0.00  0.00    +0.000 S 
ATOM      2  O   UNL     1       2.170   5.063  18.044  0.00  0.00    +0.000 OA
ATOM      3  O   UNL     1       2.521   5.246  20.543  0.00  0.00    +0.000 OA
ENDROOT
BRANCH   1   4
ATOM      4  C   UNL     1       2.189   7.417  19.166  0.00  0.00    +0.000 A 
ATOM      5  C   UNL     1       2.265   8.165  17.988  0.00  0.00    +0.000 A 
ATOM      6  C   UNL     1       1.770   9.477  17.957  0.00  0.00    +0.000 A 
ATOM      7  C   UNL     1       1.200  10.045  19.118  0.00  0.00    +0.000 A 
ATOM      8  N   UNL     1       0.687  11.327  19.236  0.00  0.00    +0.000 NA
ATOM      9  C   UNL     1       0.261  11.533  20.456  0.00  0.00    +0.000 A 
ATOM     10  N   UNL     1      -0.242  12.703  20.875  0.00  0.00    +0.000 N 
ATOM     11  S   UNL     1       0.387  10.195  21.520  0.00  0.00    +0.000 S 
ATOM     12  C   UNL     1       1.130   9.268  20.275  0.00  0.00    +0.000 A 
ATOM     13  C   UNL     1       1.610   7.946  20.326  0.00  0.00    +0.000 A 
ATOM     14  H   UNL     1      -0.500  13.383  20.170  0.00  0.00    +0.000 HD
ATOM     15  H   UNL     1      -0.774  12.742  21.735  0.00  0.00    +0.000 HD
ENDBRANCH   1   4
BRANCH   1  16
ATOM     16  C   UNL     1       4.533   5.851  18.931  0.00  0.00    +0.000 C 
BRANCH  16  20
ATOM     17  C   UNL     1       5.673   4.460  14.984  0.00  0.00    +0.000 A 
ATOM     18  C   UNL     1       5.384   5.807  15.206  0.00  0.00    +0.000 A 
ATOM     19  C   UNL     1       5.002   6.247  16.477  0.00  0.00    +0.000 A 
ATOM     20  C   UNL     1       4.904   5.348  17.551  0.00  0.00    +0.000 A 
ATOM     21  C   UNL     1       5.181   3.992  17.317  0.00  0.00    +0.000 A 
ATOM     22  C   UNL     1       5.565   3.554  16.043  0.00  0.00    +0.000 A 
BRANCH  17  24
ATOM     23  N   UNL     1       6.396   3.641  12.630  0.00  0.00    +0.000 NA
ATOM     24  C   UNL     1       6.080   4.013  13.681  0.00  0.00    +0.000 C 
ENDBRANCH  17  24
ENDBRANCH  16  20
ENDBRANCH   1  16
TORSDOF 4
ENDMDL
MODEL 5
REMARK VINA RESULT:      -7.2      2.672      7.772
REMARK  Name = 
REMARK  4 active torsions:
REMARK  status: ('A' for Active; 'I' for Inactive)
REMARK    1  A    between atoms: C_2  and  C_3
REMARK    2  A    between atoms: C_6  and  C_7
REMARK    3  A    between atoms: C_7  and  S_8
REMARK    4  A    between atoms: S_8  and  C_11
REMARK                            x       y       z     vdW  Elec       q    Type
REMARK                         _______ _______ _______ _____ _____    ______ ____
ROOT
ATOM      1  S   UNL     1       2.928   5.581  19.150  0.00  0.00    +0.000 S 
ATOM      2  O   UNL     1       2.370   4.955  17.965  0.00  0.00    +0.000 OA
ATOM      3  O   UNL     1       2.709   5.024  20.471  0.00  0.00    +0.000 OA
ENDROOT
BRANCH   1   4
ATOM      4  C   UNL     1       2.254   7.243  19.211  0.00  0.00    +0.000 A 
ATOM      5  C   UNL     1       2.205   8.024  18.053  0.00  0.00    +0.000 A 
ATOM      6  C   UNL     1       1.635   9.305  18.095  0.00  0.00    +0.000 A 
ATOM      7  C   UNL     1       1.116   9.808  19.308  0.00  0.00    +0.000 A 
ATOM      8  N   UNL     1       0.540  11.055  19.498  0.00  0.00    +0.000 NA
ATOM      9  C   UNL     1       0.189  11.204  20.750  0.00  0.00    +0.000 A 
ATOM     10  N   UNL     1      -0.349  12.332  21.236  0.00  0.00    +0.000 N 
ATOM     11  S   UNL     1       0.465   9.850  21.763  0.00  0.00    +0.000 S 
ATOM     12  C   UNL     1       1.171   9.000  20.444  0.00  0.00    +0.000 A 
ATOM     13  C   UNL     1       1.728   7.708  20.423  0.00  0.00    +0.000 A 
ATOM     14  H   UNL     1      -0.695  13.013  20.570  0.00  0.00    +0.000 HD
ATOM     15  H   UNL     1      -0.821  12.317  22.131  0.00  0.00    +0.000 HD
ENDBRANCH   1   4
BRANCH   1  16
ATOM     16  C   UNL     1       4.684   5.828  18.901  0.00  0.00    +0.000 C 
BRANCH  16  20
ATOM     17  C   UNL     1       5.789   4.440  14.944  0.00  0.00    +0.000 A 
ATOM     18  C   UNL     1       5.787   3.562  16.029  0.00  0.00    +0.000 A 
ATOM     19  C   UNL     1       5.445   4.019  17.305  0.00  0.00    +0.000 A 
ATOM     20  C   UNL     1       5.096   5.362  17.520  0.00  0.00    +0.000 A 
ATOM     21  C   UNL     1       5.115   6.242  16.427  0.00  0.00    +0.000 A 
ATOM     22  C   UNL     1       5.457   5.782  15.149  0.00  0.00    +0.000 A 
BRANCH  17  24
ATOM     23  N   UNL     1       6.382   3.583  12.567  0.00  0.00    +0.000 NA
ATOM     24  C   UNL     1       6.126   3.965  13.630  0.00  0.00    +0.000 C 
ENDBRANCH  17  24
ENDBRANCH  16  20
ENDBRANCH   1  16
TORSDOF 4
ENDMDL
MODEL 6
REMARK VINA RESULT:      -7.1      3.252      7.260
REMARK  Name = 
REMARK  4 active torsions:
REMARK  status: ('A' for Active; 'I' for Inactive)
REMARK    1  A    between atoms: C_2  and  C_3
REMARK    2  A    between atoms: C_6  and  C_7
REMARK    3  A    between atoms: C_7  and  S_8
REMARK    4  A    between atoms: S_8  and  C_11
REMARK                            x       y       z     vdW  Elec       q    Type
REMARK                         _______ _______ _______ _____ _____    ______ ____
ROOT
ATOM      1  S   UNL     1       7.000   6.236  17.664  0.00  0.00    +0.000 S 
ATOM      2  O   UNL     1       7.743   6.546  18.873  0.00  0.00    +0.000 OA
ATOM      3  O   UNL     1       6.822   7.222  16.614  0.00  0.00    +0.000 OA
ENDROOT
BRANCH   1   4
ATOM      4  C   UNL     1       5.343   5.787  18.188  0.00  0.00    +0.000 A 
ATOM      5  C   UNL     1       4.239   6.491  17.701  0.00  0.00    +0.000 A 
ATOM      6  C   UNL     1       2.942   6.109  18.076  0.00  0.00    +0.000 A 
ATOM      7  C   UNL     1       2.753   5.016  18.950  0.00  0.00    +0.000 A 
ATOM      8  N   UNL     1       1.537   4.539  19.413  0.00  0.00    +0.000 NA
ATOM      9  C   UNL     1       1.727   3.530  20.226  0.00  0.00    +0.000 A 
ATOM     10  N   UNL     1       0.732   2.899  20.865  0.00  0.00    +0.000 N 
ATOM     11  S   UNL     1       3.358   3.049  20.439  0.00  0.00    +0.000 S 
ATOM     12  C   UNL     1       3.876   4.328  19.411  0.00  0.00    +0.000 A 
ATOM     13  C   UNL     1       5.185   4.687  19.039  0.00  0.00    +0.000 A 
ATOM     14  H   UNL     1      -0.214   3.067  20.543  0.00  0.00    +0.000 HD
ATOM     15  H   UNL     1       0.898   1.991  21.280  0.00  0.00    +0.000 HD
ENDBRANCH   1   4
BRANCH   1  16
ATOM     16  C   UNL     1       7.658   4.731  16.951  0.00  0.00    +0.000 C 
BRANCH  16  20
ATOM     17  C   UNL     1       5.536   3.830  13.278  0.00  0.00    +0.000 A 
ATOM     18  C   UNL     1       5.025   3.423  14.512  0.00  0.00    +0.000 A 
ATOM     19  C   UNL     1       5.721   3.703  15.691  0.00  0.00    +0.000 A 
ATOM     20  C   UNL     1       6.941   4.397  15.659  0.00  0.00    +0.000 A 
ATOM     21  C   UNL     1       7.456   4.789  14.414  0.00  0.00    +0.000 A 
ATOM     22  C   UNL     1       6.756   4.509  13.234  0.00  0.00    +0.000 A 
BRANCH  17  24
ATOM     23  N   UNL     1       4.230   3.317  11.095  0.00  0.00    +0.000 NA
ATOM     24  C   UNL     1       4.811   3.555  12.068  0.00  0.00    +0.000 C 
ENDBRANCH  17  24
ENDBRANCH  16  20
ENDBRANCH   1  16
TORSDOF 4
ENDMDL
MODEL 7
REMARK VINA RESULT:      -7.0      1.530      1.956
REMARK  Name = 
REMARK  4 active torsions:
REMARK  status: ('A' for Active; 'I' for Inactive)
REMARK    1  A    between atoms: C_2  and  C_3
REMARK    2  A    between atoms: C_6  and  C_7
REMARK    3  A    between atoms: C_7  and  S_8
REMARK    4  A    between atoms: S_8  and  C_11
REMARK                            x       y       z     vdW  Elec       q    Type
REMARK                         _______ _______ _______ _____ _____    ______ ____
ROOT
ATOM      1  S   UNL     1       2.698   3.635  19.071  0.00  0.00    +0.000 S 
ATOM      2  O   UNL     1       2.910   2.280  19.546  0.00  0.00    +0.000 OA
ATOM      3  O   UNL     1       1.588   3.964  18.196  0.00  0.00    +0.000 OA
ENDROOT
BRANCH   1   4
ATOM      4  C   UNL     1       4.178   4.092  18.163  0.00  0.00    +0.000 A 
ATOM      5  C   UNL     1       5.357   4.393  18.849  0.00  0.00    +0.000 A 
ATOM      6  C   UNL     1       6.524   4.704  18.135  0.00  0.00    +0.000 A 
ATOM      7  C   UNL     1       6.505   4.719  16.723  0.00  0.00    +0.000 A 
ATOM      8  N   UNL     1       7.574   5.021  15.893  0.00  0.00    +0.000 NA
ATOM      9  C   UNL     1       7.202   4.963  14.640  0.00  0.00    +0.000 A 
ATOM     10  N   UNL     1       8.015   5.255  13.614  0.00  0.00    +0.000 N 
ATOM     11  S   UNL     1       5.578   4.486  14.370  0.00  0.00    +0.000 S 
ATOM     12  C   UNL     1       5.314   4.404  16.068  0.00  0.00    +0.000 A 
ATOM     13  C   UNL     1       4.135   4.077  16.764  0.00  0.00    +0.000 A 
ATOM     14  H   UNL     1       9.008   5.314  13.805  0.00  0.00    +0.000 HD
ATOM     15  H   UNL     1       7.765   4.966  12.677  0.00  0.00    +0.000 HD
ENDBRANCH   1   4
BRANCH   1  16
ATOM     16  C   UNL     1       2.685   4.744  20.477  0.00  0.00    +0.000 C 
BRANCH  16  20
ATOM     17  C   UNL     1       1.536   8.764  19.324  0.00  0.00    +0.000 A 
ATOM     18  C   UNL     1       1.164   8.248  20.566  0.00  0.00    +0.000 A 
ATOM     19  C   UNL     1       1.525   6.946  20.927  0.00  0.00    +0.000 A 
ATOM     20  C   UNL     1       2.266   6.136  20.052  0.00  0.00    +0.000 A 
ATOM     21  C   UNL     1       2.622   6.656  18.798  0.00  0.00    +0.000 A 
ATOM     22  C   UNL     1       2.262   7.961  18.440  0.00  0.00    +0.000 A 
BRANCH  17  24
ATOM     23  N   UNL     1       0.874  11.186  18.670  0.00  0.00    +0.000 NA
ATOM     24  C   UNL     1       1.178  10.108  18.963  0.00  0.00    +0.000 C 
ENDBRANCH  17  24
ENDBRANCH  16  20
ENDBRANCH   1  16
TORSDOF 4
ENDMDL
MODEL 8
REMARK VINA RESULT:      -6.9      1.298      1.521
REMARK  Name = 
REMARK  4 active torsions:
REMARK  status: ('A' for Active; 'I' for Inactive)
REMARK    1  A    between atoms: C_2  and  C_3
REMARK    2  A    between atoms: C_6  and  C_7
REMARK    3  A    between atoms: C_7  and  S_8
REMARK    4  A    between atoms: S_8  and  C_11
REMARK                            x       y       z     vdW  Elec       q    Type
REMARK                         _______ _______ _______ _____ _____    ______ ____
ROOT
ATOM      1  S   UNL     1       3.485   2.553  19.482  0.00  0.00    +0.000 S 
ATOM      2  O   UNL     1       3.871   2.782  20.863  0.00  0.00    +0.000 OA
ATOM      3  O   UNL     1       3.496   1.221  18.907  0.00  0.00    +0.000 OA
ENDROOT
BRANCH   1   4
ATOM      4  C   UNL     1       4.609   3.522  18.473  0.00  0.00    +0.000 A 
ATOM      5  C   UNL     1       5.389   4.524  19.057  0.00  0.00    +0.000 A 
ATOM      6  C   UNL     1       6.300   5.248  18.273  0.00  0.00    +0.000 A 
ATOM      7  C   UNL     1       6.426   4.968  16.895  0.00  0.00    +0.000 A 
ATOM      8  N   UNL     1       7.270   5.610  16.003  0.00  0.00    +0.000 NA
ATOM      9  C   UNL     1       7.115   5.118  14.800  0.00  0.00    +0.000 A 
ATOM     10  N   UNL     1       7.767   5.580  13.723  0.00  0.00    +0.000 N 
ATOM     11  S   UNL     1       6.002   3.821  14.669  0.00  0.00    +0.000 S 
ATOM     12  C   UNL     1       5.640   3.955  16.346  0.00  0.00    +0.000 A 
ATOM     13  C   UNL     1       4.728   3.208  17.114  0.00  0.00    +0.000 A 
ATOM     14  H   UNL     1       8.565   6.184  13.881  0.00  0.00    +0.000 HD
ATOM     15  H   UNL     1       7.801   5.022  12.879  0.00  0.00    +0.000 HD
ENDBRANCH   1   4
BRANCH   1  16
ATOM     16  C   UNL     1       1.883   3.302  19.198  0.00  0.00    +0.000 C 
BRANCH  16  20
ATOM     17  C   UNL     1       2.203   7.581  18.573  0.00  0.00    +0.000 A 
ATOM     18  C   UNL     1       2.158   6.706  17.486  0.00  0.00    +0.000 A 
ATOM     19  C   UNL     1       2.070   5.326  17.694  0.00  0.00    +0.000 A 
ATOM     20  C   UNL     1       2.024   4.796  18.993  0.00  0.00    +0.000 A 
ATOM     21  C   UNL     1       2.085   5.680  20.081  0.00  0.00    +0.000 A 
ATOM     22  C   UNL     1       2.171   7.062  19.870  0.00  0.00    +0.000 A 
BRANCH  17  24
ATOM     23  N   UNL     1       2.344  10.145  18.197  0.00  0.00    +0.000 NA
ATOM     24  C   UNL     1       2.278   8.999  18.356  0.00  0.00    +0.000 C 
ENDBRANCH  17  24
ENDBRANCH  16  20
ENDBRANCH   1  16
TORSDOF 4
ENDMDL
MODEL 9
REMARK VINA RESULT:      -6.9      3.105      7.483
REMARK  Name = 
REMARK  4 active torsions:
REMARK  status: ('A' for Active; 'I' for Inactive)
REMARK    1  A    between atoms: C_2  and  C_3
REMARK    2  A    between atoms: C_6  and  C_7
REMARK    3  A    between atoms: C_7  and  S_8
REMARK    4  A    between atoms: S_8  and  C_11
REMARK                            x       y       z     vdW  Elec       q    Type
REMARK                         _______ _______ _______ _____ _____    ______ ____
ROOT
ATOM      1  S   UNL     1       7.259   5.703  17.658  0.00  0.00    +0.000 S 
ATOM      2  O   UNL     1       7.829   4.386  17.438  0.00  0.00    +0.000 OA
ATOM      3  O   UNL     1       7.878   6.651  18.564  0.00  0.00    +0.000 OA
ENDROOT
BRANCH   1   4
ATOM      4  C   UNL     1       5.603   5.439  18.296  0.00  0.00    +0.000 A 
ATOM      5  C   UNL     1       4.601   6.385  18.062  0.00  0.00    +0.000 A 
ATOM      6  C   UNL     1       3.297   6.154  18.523  0.00  0.00    +0.000 A 
ATOM      7  C   UNL     1       2.996   4.968  19.228  0.00  0.00    +0.000 A 
ATOM      8  N   UNL     1       1.762   4.616  19.751  0.00  0.00    +0.000 NA
ATOM      9  C   UNL     1       1.842   3.463  20.364  0.00  0.00    +0.000 A 
ATOM     10  N   UNL     1       0.813   2.895  21.009  0.00  0.00    +0.000 N 
ATOM     11  S   UNL     1       3.375   2.698  20.303  0.00  0.00    +0.000 S 
ATOM     12  C   UNL     1       4.016   4.039  19.437  0.00  0.00    +0.000 A 
ATOM     13  C   UNL     1       5.329   4.245  18.974  0.00  0.00    +0.000 A 
ATOM     14  H   UNL     1      -0.113   3.266  20.833  0.00  0.00    +0.000 HD
ATOM     15  H   UNL     1       0.852   1.913  21.251  0.00  0.00    +0.000 HD
ENDBRANCH   1   4
BRANCH   1  16
ATOM     16  C   UNL     1       6.998   6.492  16.072  0.00  0.00    +0.000 C 
BRANCH  16  20
ATOM     17  C   UNL     1       6.068   3.581  12.994  0.00  0.00    +0.000 A 
ATOM     18  C   UNL     1       5.190   3.796  14.058  0.00  0.00    +0.000 A 
ATOM     19  C   UNL     1       5.502   4.724  15.055  0.00  0.00    +0.000 A 
ATOM     20  C   UNL     1       6.698   5.458  15.007  0.00  0.00    +0.000 A 
ATOM     21  C   UNL     1       7.583   5.226  13.943  0.00  0.00    +0.000 A 
ATOM     22  C   UNL     1       7.267   4.296  12.944  0.00  0.00    +0.000 A 
BRANCH  17  24
ATOM     23  N   UNL     1       5.472   1.889  11.119  0.00  0.00    +0.000 NA
ATOM     24  C   UNL     1       5.737   2.638  11.962  0.00  0.00    +0.000 C 
ENDBRANCH  17  24
ENDBRANCH  16  20
ENDBRANCH   1  16
TORSDOF 4
ENDMDL
