MODEL 1
REMARK VINA RESULT:      -7.2      0.000      0.000
REMARK  Name = 
REMARK  3 active torsions:
REMARK  status: ('A' for Active; 'I' for Inactive)
REMARK    1  A    between atoms: C_1  and  C_2
REMARK    2  A    between atoms: C_2  and  C_3
REMARK    3  A    between atoms: C_3  and  C_4
REMARK                            x       y       z     vdW  Elec       q    Type
REMARK                         _______ _______ _______ _____ _____    ______ ____
ROOT
ATOM      1  C   UNL     1       6.146   5.756  17.005  0.00  0.00    +0.000 C 
ATOM      2  C   UNL     1       7.196   4.641  17.127  0.00  0.00    +0.000 C 
ATOM      3  O   UNL     1       7.824   4.603  15.854  0.00  0.00    +0.000 OA
ATOM      4  C   UNL     1       6.919   5.184  15.037  0.00  0.00    +0.000 C 
ATOM      5  N   UNL     1       7.220   5.040  13.733  0.00  0.00    +0.000 N 
ATOM      6  N   UNL     1       5.914   5.817  15.538  0.00  0.00    +0.000 NA
ATOM      7  H   UNL     1       8.195   4.840  13.554  0.00  0.00    +0.000 HD
ATOM      8  H   UNL     1       6.817   5.754  13.141  0.00  0.00    +0.000 HD
ENDROOT
BRANCH   1   9
ATOM      9  C   UNL     1       4.904   5.389  17.817  0.00  0.00    +0.000 A 
ATOM     10  C   UNL     1       3.722   6.139  17.727  0.00  0.00    +0.000 A 
ATOM     11  C   UNL     1       2.572   5.753  18.422  0.00  0.00    +0.000 A 
ATOM     12  C   UNL     1       2.583   4.613  19.226  0.00  0.00    +0.000 A 
ATOM     13 CL   UNL     1       1.113   4.165  20.015  0.00  0.00    +0.000 Cl
ATOM     14  C   UNL     1       3.760   3.873  19.357  0.00  0.00    +0.000 A 
ATOM     15 CL   UNL     1       3.863   2.454  20.340  0.00  0.00    +0.000 Cl
ATOM     16  C   UNL     1       4.912   4.264  18.660  0.00  0.00    +0.000 A 
ENDBRANCH   1   9
BRANCH   1  18
ATOM     17  C   UNL     1       7.955   7.027  18.346  0.00  0.00    +0.000 C 
ATOM     18  C   UNL     1       6.738   7.128  17.429  0.00  0.00    +0.000 C 
ENDBRANCH   1  18
TORSDOF 2
ENDMDL
MODEL 2
REMARK VINA RESULT:      -7.2      1.117      1.604
REMARK  Name = 
REMARK  3 active torsions:
REMARK  status: ('A' for Active; 'I' for Inactive)
REMARK    1  A    between atoms: C_1  and  C_2
REMARK    2  A    between atoms: C_2  and  C_3
REMARK    3  A    between atoms: C_3  and  C_4
REMARK                            x       y       z     vdW  Elec       q    Type
REMARK                         _______ _______ _______ _____ _____    ______ ____
ROOT
ATOM      1  C   UNL     1       5.907   5.589  16.676  0.00  0.00    +0.000 C 
ATOM      2  C   UNL     1       7.035   4.568  16.889  0.00  0.00    +0.000 C 
ATOM      3  O   UNL     1       7.816   4.648  15.706  0.00  0.00    +0.000 OA
ATOM      4  C   UNL     1       6.968   5.185  14.802  0.00  0.00    +0.000 C 
ATOM      5  N   UNL     1       7.439   5.132  13.543  0.00  0.00    +0.000 N 
ATOM      6  N   UNL     1       5.853   5.701  15.194  0.00  0.00    +0.000 NA
ATOM      7  H   UNL     1       8.443   5.029  13.482  0.00  0.00    +0.000 HD
ATOM      8  H   UNL     1       7.046   5.835  12.931  0.00  0.00    +0.000 HD
ENDROOT
BRANCH   1   9
ATOM      9  C   UNL     1       4.615   5.075  17.310  0.00  0.00    +0.000 A 
ATOM     10  C   UNL     1       4.074   3.829  16.960  0.00  0.00    +0.000 A 
ATOM     11  C   UNL     1       2.930   3.338  17.597  0.00  0.00    +0.000 A 
ATOM     12  C   UNL     1       2.300   4.088  18.591  0.00  0.00    +0.000 A 
ATOM     13 CL   UNL     1       0.922   3.400  19.372  0.00  0.00    +0.000 Cl
ATOM     14  C   UNL     1       2.802   5.347  18.928  0.00  0.00    +0.000 A 
ATOM     15 CL   UNL     1       2.078   6.344  20.141  0.00  0.00    +0.000 Cl
ATOM     16  C   UNL     1       3.949   5.835  18.287  0.00  0.00    +0.000 A 
ENDBRANCH   1   9
BRANCH   1  18
ATOM     17  C   UNL     1       7.638   7.003  17.977  0.00  0.00    +0.000 C 
ATOM     18  C   UNL     1       6.310   6.986  17.222  0.00  0.00    +0.000 C 
ENDBRANCH   1  18
TORSDOF 2
ENDMDL
MODEL 3
REMARK VINA RESULT:      -7.0      1.451      2.232
REMARK  Name = 
REMARK  3 active torsions:
REMARK  status: ('A' for Active; 'I' for Inactive)
REMARK    1  A    between atoms: C_1  and  C_2
REMARK    2  A    between atoms: C_2  and  C_3
REMARK    3  A    between atoms: C_3  and  C_4
REMARK                            x       y       z     vdW  Elec       q    Type
REMARK                         _______ _______ _______ _____ _____    ______ ____
ROOT
ATOM      1  C   UNL     1       6.414   6.042  16.993  0.00  0.00    +0.000 C 
ATOM      2  C   UNL     1       7.143   4.699  17.153  0.00  0.00    +0.000 C 
ATOM      3  O   UNL     1       7.710   4.447  15.876  0.00  0.00    +0.000 OA
ATOM      4  C   UNL     1       6.968   5.210  15.044  0.00  0.00    +0.000 C 
ATOM      5  N   UNL     1       7.191   4.939  13.745  0.00  0.00    +0.000 N 
ATOM      6  N   UNL     1       6.173   6.101  15.527  0.00  0.00    +0.000 NA
ATOM      7  H   UNL     1       8.077   4.486  13.564  0.00  0.00    +0.000 HD
ATOM      8  H   UNL     1       6.972   5.709  13.126  0.00  0.00    +0.000 HD
ENDROOT
BRANCH   1   9
ATOM      9  C   UNL     1       5.139   6.044  17.836  0.00  0.00    +0.000 A 
ATOM     10  C   UNL     1       4.965   5.151  18.902  0.00  0.00    +0.000 A 
ATOM     11  C   UNL     1       3.824   5.209  19.708  0.00  0.00    +0.000 A 
ATOM     12  C   UNL     1       2.831   6.157  19.459  0.00  0.00    +0.000 A 
ATOM     13 CL   UNL     1       1.473   6.206  20.525  0.00  0.00    +0.000 Cl
ATOM     14  C   UNL     1       2.969   7.032  18.379  0.00  0.00    +0.000 A 
ATOM     15 CL   UNL     1       1.783   8.229  17.994  0.00  0.00    +0.000 Cl
ATOM     16  C   UNL     1       4.114   6.971  17.573  0.00  0.00    +0.000 A 
ENDBRANCH   1   9
BRANCH   1  18
ATOM     17  C   UNL     1       8.157   7.030  18.629  0.00  0.00    +0.000 C 
ATOM     18  C   UNL     1       7.351   7.229  17.347  0.00  0.00    +0.000 C 
ENDBRANCH   1  18
TORSDOF 2
ENDMDL
MODEL 4
REMARK VINA RESULT:      -7.0      1.062      1.108
REMARK  Name = 
REMARK  3 active torsions:
REMARK  status: ('A' for Active; 'I' for Inactive)
REMARK    1  A    between atoms: C_1  and  C_2
REMARK    2  A    between atoms: C_2  and  C_3
REMARK    3  A    between atoms: C_3  and  C_4
REMARK                            x       y       z     vdW  Elec       q    Type
REMARK                         _______ _______ _______ _____ _____    ______ ____
ROOT
ATOM      1  C   UNL     1       5.978   5.549  16.974  0.00  0.00    +0.000 C 
ATOM      2  C   UNL     1       7.199   4.634  17.158  0.00  0.00    +0.000 C 
ATOM      3  O   UNL     1       7.796   4.573  15.871  0.00  0.00    +0.000 OA
ATOM      4  C   UNL     1       6.790   4.919  15.039  0.00  0.00    +0.000 C 
ATOM      5  N   UNL     1       7.080   4.699  13.743  0.00  0.00    +0.000 N 
ATOM      6  N   UNL     1       5.707   5.428  15.517  0.00  0.00    +0.000 NA
ATOM      7  H   UNL     1       8.070   4.642  13.546  0.00  0.00    +0.000 HD
ATOM      8  H   UNL     1       6.552   5.278  13.104  0.00  0.00    +0.000 HD
ENDROOT
BRANCH   1   9
ATOM      9  C   UNL     1       4.833   5.068  17.864  0.00  0.00    +0.000 A 
ATOM     10  C   UNL     1       4.442   5.783  19.005  0.00  0.00    +0.000 A 
ATOM     11  C   UNL     1       3.348   5.371  19.772  0.00  0.00    +0.000 A 
ATOM     12  C   UNL     1       2.627   4.231  19.416  0.00  0.00    +0.000 A 
ATOM     13 CL   UNL     1       1.255   3.808  20.376  0.00  0.00    +0.000 Cl
ATOM     14  C   UNL     1       3.021   3.485  18.303  0.00  0.00    +0.000 A 
ATOM     15 CL   UNL     1       2.190   2.056  17.798  0.00  0.00    +0.000 Cl
ATOM     16  C   UNL     1       4.119   3.901  17.537  0.00  0.00    +0.000 A 
ENDBRANCH   1   9
BRANCH   1  18
ATOM     17  C   UNL     1       7.706   7.225  17.917  0.00  0.00    +0.000 C 
ATOM     18  C   UNL     1       6.348   7.032  17.246  0.00  0.00    +0.000 C 
ENDBRANCH   1  18
TORSDOF 2
ENDMDL
MODEL 5
REMARK VINA RESULT:      -6.9      2.140      3.057
REMARK  Name = 
REMARK  3 active torsions:
REMARK  status: ('A' for Active; 'I' for Inactive)
REMARK    1  A    between atoms: C_1  and  C_2
REMARK    2  A    between atoms: C_2  and  C_3
REMARK    3  A    between atoms: C_3  and  C_4
REMARK                            x       y       z     vdW  Elec       q    Type
REMARK                         _______ _______ _______ _____ _____    ______ ____
ROOT
ATOM      1  C   UNL     1       5.716   4.896  17.462  0.00  0.00    +0.000 C 
ATOM      2  C   UNL     1       5.621   6.420  17.289  0.00  0.00    +0.000 C 
ATOM      3  O   UNL     1       6.857   6.913  17.785  0.00  0.00    +0.000 OA
ATOM      4  C   UNL     1       7.297   5.917  18.584  0.00  0.00    +0.000 C 
ATOM      5  N   UNL     1       8.350   6.277  19.341  0.00  0.00    +0.000 N 
ATOM      6  N   UNL     1       6.728   4.761  18.543  0.00  0.00    +0.000 NA
ATOM      7  H   UNL     1       8.862   7.073  18.984  0.00  0.00    +0.000 HD
ATOM      8  H   UNL     1       8.925   5.499  19.636  0.00  0.00    +0.000 HD
ENDROOT
BRANCH   1   9
ATOM      9  C   UNL     1       4.343   4.329  17.820  0.00  0.00    +0.000 A 
ATOM     10  C   UNL     1       3.809   3.223  17.143  0.00  0.00    +0.000 A 
ATOM     11  C   UNL     1       2.583   2.670  17.525  0.00  0.00    +0.000 A 
ATOM     12  C   UNL     1       1.863   3.217  18.588  0.00  0.00    +0.000 A 
ATOM     13 CL   UNL     1       0.382   2.453  19.041  0.00  0.00    +0.000 Cl
ATOM     14  C   UNL     1       2.361   4.340  19.253  0.00  0.00    +0.000 A 
ATOM     15 CL   UNL     1       1.530   5.085  20.573  0.00  0.00    +0.000 Cl
ATOM     16  C   UNL     1       3.591   4.892  18.866  0.00  0.00    +0.000 A 
ENDBRANCH   1   9
BRANCH   1  18
ATOM     17  C   UNL     1       6.059   5.001  14.901  0.00  0.00    +0.000 C 
ATOM     18  C   UNL     1       6.314   4.228  16.194  0.00  0.00    +0.000 C 
ENDBRANCH   1  18
TORSDOF 2
ENDMDL
MODEL 6
REMARK VINA RESULT:      -6.8      3.857      5.303
REMARK  Name = 
REMARK  3 active torsions:
REMARK  status: ('A' for Active; 'I' for Inactive)
REMARK    1  A    between atoms: C_1  and  C_2
REMARK    2  A    between atoms: C_2  and  C_3
REMARK    3  A    between atoms: C_3  and  C_4
REMARK                            x       y       z     vdW  Elec       q    Type
REMARK                         _______ _______ _______ _____ _____    ______ ____
ROOT
ATOM      1  C   UNL     1       2.861   5.521  19.476  0.00  0.00    +0.000 C 
ATOM      2  C   UNL     1       2.591   4.715  18.195  0.00  0.00    +0.000 C 
ATOM      3  O   UNL     1       3.707   3.845  18.081  0.00  0.00    +0.000 OA
ATOM      4  C   UNL     1       4.658   4.448  18.827  0.00  0.00    +0.000 C 
ATOM      5  N   UNL     1       5.878   3.904  18.665  0.00  0.00    +0.000 N 
ATOM      6  N   UNL     1       4.338   5.421  19.610  0.00  0.00    +0.000 NA
ATOM      7  H   UNL     1       5.863   2.958  18.306  0.00  0.00    +0.000 HD
ATOM      8  H   UNL     1       6.497   4.051  19.451  0.00  0.00    +0.000 HD
ENDROOT
BRANCH   1   9
ATOM      9  C   UNL     1       2.346   6.950  19.307  0.00  0.00    +0.000 A 
ATOM     10  C   UNL     1       2.422   7.615  18.075  0.00  0.00    +0.000 A 
ATOM     11  C   UNL     1       1.885   8.896  17.916  0.00  0.00    +0.000 A 
ATOM     12  C   UNL     1       1.267   9.540  18.988  0.00  0.00    +0.000 A 
ATOM     13 CL   UNL     1       0.578  11.099  18.709  0.00  0.00    +0.000 Cl
ATOM     14  C   UNL     1       1.212   8.909  20.233  0.00  0.00    +0.000 A 
ATOM     15 CL   UNL     1       0.474   9.639  21.615  0.00  0.00    +0.000 Cl
ATOM     16  C   UNL     1       1.752   7.625  20.389  0.00  0.00    +0.000 A 
ENDBRANCH   1   9
BRANCH   1  18
ATOM     17  C   UNL     1       1.042   3.932  20.399  0.00  0.00    +0.000 C 
ATOM     18  C   UNL     1       2.244   4.819  20.716  0.00  0.00    +0.000 C 
ENDBRANCH   1  18
TORSDOF 2
ENDMDL
MODEL 7
REMARK VINA RESULT:      -6.8      1.003      1.812
REMARK  Name = 
REMARK  3 active torsions:
REMARK  status: ('A' for Active; 'I' for Inactive)
REMARK    1  A    between atoms: C_1  and  C_2
REMARK    2  A    between atoms: C_2  and  C_3
REMARK    3  A    between atoms: C_3  and  C_4
REMARK                            x       y       z     vdW  Elec       q    Type
REMARK                         _______ _______ _______ _____ _____    ______ ____
ROOT
ATOM      1  C   UNL     1       6.074   5.596  17.096  0.00  0.00    +0.000 C 
ATOM      2  C   UNL     1       7.282   4.652  17.217  0.00  0.00    +0.000 C 
ATOM      3  O   UNL     1       7.768   4.524  15.890  0.00  0.00    +0.000 OA
ATOM      4  C   UNL     1       6.706   4.867  15.128  0.00  0.00    +0.000 C 
ATOM      5  N   UNL     1       6.882   4.588  13.824  0.00  0.00    +0.000 N 
ATOM      6  N   UNL     1       5.680   5.427  15.672  0.00  0.00    +0.000 NA
ATOM      7  H   UNL     1       7.851   4.493  13.550  0.00  0.00    +0.000 HD
ATOM      8  H   UNL     1       6.319   5.157  13.206  0.00  0.00    +0.000 HD
ENDROOT
BRANCH   1   9
ATOM      9  C   UNL     1       4.994   5.185  18.095  0.00  0.00    +0.000 A 
ATOM     10  C   UNL     1       4.916   3.877  18.593  0.00  0.00    +0.000 A 
ATOM     11  C   UNL     1       3.966   3.531  19.559  0.00  0.00    +0.000 A 
ATOM     12  C   UNL     1       3.069   4.486  20.040  0.00  0.00    +0.000 A 
ATOM     13 CL   UNL     1       1.956   4.004  21.270  0.00  0.00    +0.000 Cl
ATOM     14  C   UNL     1       3.107   5.786  19.531  0.00  0.00    +0.000 A 
ATOM     15 CL   UNL     1       2.028   7.027  20.064  0.00  0.00    +0.000 Cl
ATOM     16  C   UNL     1       4.061   6.128  18.562  0.00  0.00    +0.000 A 
ENDBRANCH   1   9
BRANCH   1  18
ATOM     17  C   UNL     1       7.812   7.260  18.043  0.00  0.00    +0.000 C 
ATOM     18  C   UNL     1       6.505   7.077  17.275  0.00  0.00    +0.000 C 
ENDBRANCH   1  18
TORSDOF 2
ENDMDL
MODEL 8
REMARK VINA RESULT:      -6.7      1.955      2.738
REMARK  Name = 
REMARK  3 active torsions:
REMARK  status: ('A' for Active; 'I' for Inactive)
REMARK    1  A    between atoms: C_1  and  C_2
REMARK    2  A    between atoms: C_2  and  C_3
REMARK    3  A    between atoms: C_3  and  C_4
REMARK                            x       y       z     vdW  Elec       q    Type
REMARK                         _______ _______ _______ _____ _____    ______ ____
ROOT
ATOM      1  C   UNL     1       6.037   5.407  17.102  0.00  0.00    +0.000 C 
ATOM      2  C   UNL     1       5.768   6.853  16.657  0.00  0.00    +0.000 C 
ATOM      3  O   UNL     1       6.922   7.572  17.067  0.00  0.00    +0.000 OA
ATOM      4  C   UNL     1       7.452   6.795  18.037  0.00  0.00    +0.000 C 
ATOM      5  N   UNL     1       8.431   7.409  18.726  0.00  0.00    +0.000 N 
ATOM      6  N   UNL     1       7.024   5.590  18.199  0.00  0.00    +0.000 NA
ATOM      7  H   UNL     1       8.856   8.185  18.235  0.00  0.00    +0.000 HD
ATOM      8  H   UNL     1       9.084   6.771  19.161  0.00  0.00    +0.000 HD
ENDROOT
BRANCH   1   9
ATOM      9  C   UNL     1       4.730   4.750  17.544  0.00  0.00    +0.000 A 
ATOM     10  C   UNL     1       3.528   5.470  17.592  0.00  0.00    +0.000 A 
ATOM     11  C   UNL     1       2.326   4.840  17.931  0.00  0.00    +0.000 A 
ATOM     12  C   UNL     1       2.305   3.478  18.236  0.00  0.00    +0.000 A 
ATOM     13 CL   UNL     1       0.779   2.753  18.595  0.00  0.00    +0.000 Cl
ATOM     14  C   UNL     1       3.498   2.751  18.229  0.00  0.00    +0.000 A 
ATOM     15 CL   UNL     1       3.562   1.065  18.603  0.00  0.00    +0.000 Cl
ATOM     16  C   UNL     1       4.700   3.387  17.889  0.00  0.00    +0.000 A 
ENDBRANCH   1   9
BRANCH   1  18
ATOM     17  C   UNL     1       6.036   4.648  14.631  0.00  0.00    +0.000 C 
ATOM     18  C   UNL     1       6.748   4.602  15.981  0.00  0.00    +0.000 C 
ENDBRANCH   1  18
TORSDOF 2
ENDMDL
MODEL 9
REMARK VINA RESULT:      -6.7      4.206      5.754
REMARK  Name = 
REMARK  3 active torsions:
REMARK  status: ('A' for Active; 'I' for Inactive)
REMARK    1  A    between atoms: C_1  and  C_2
REMARK    2  A    between atoms: C_2  and  C_3
REMARK    3  A    between atoms: C_3  and  C_4
REMARK                            x       y       z     vdW  Elec       q    Type
REMARK                         _______ _______ _______ _____ _____    ______ ____
ROOT
ATOM      1  C   UNL     1       2.686   4.723  19.553  0.00  0.00    +0.000 C 
ATOM      2  C   UNL     1       1.452   4.028  18.956  0.00  0.00    +0.000 C 
ATOM      3  O   UNL     1       0.800   3.439  20.072  0.00  0.00    +0.000 OA
ATOM      4  C   UNL     1       1.779   3.349  20.999  0.00  0.00    +0.000 C 
ATOM      5  N   UNL     1       1.428   2.600  22.061  0.00  0.00    +0.000 N 
ATOM      6  N   UNL     1       2.893   3.971  20.820  0.00  0.00    +0.000 NA
ATOM      7  H   UNL     1       0.429   2.503  22.186  0.00  0.00    +0.000 HD
ATOM      8  H   UNL     1       1.943   2.822  22.903  0.00  0.00    +0.000 HD
ENDROOT
BRANCH   1   9
ATOM      9  C   UNL     1       3.857   4.630  18.575  0.00  0.00    +0.000 A 
ATOM     10  C   UNL     1       3.686   4.135  17.274  0.00  0.00    +0.000 A 
ATOM     11  C   UNL     1       4.749   4.120  16.367  0.00  0.00    +0.000 A 
ATOM     12  C   UNL     1       6.007   4.593  16.745  0.00  0.00    +0.000 A 
ATOM     13 CL   UNL     1       7.262   4.594  15.558  0.00  0.00    +0.000 Cl
ATOM     14  C   UNL     1       6.206   5.057  18.047  0.00  0.00    +0.000 A 
ATOM     15 CL   UNL     1       7.732   5.651  18.601  0.00  0.00    +0.000 Cl
ATOM     16  C   UNL     1       5.137   5.070  18.955  0.00  0.00    +0.000 A 
ENDBRANCH   1   9
BRANCH   1  18
ATOM     17  C   UNL     1       2.302   7.154  18.761  0.00  0.00    +0.000 C 
ATOM     18  C   UNL     1       2.365   6.191  19.945  0.00  0.00    +0.000 C 
ENDBRANCH   1  18
TORSDOF 2
ENDMDL
