MODEL 1
REMARK VINA RESULT:      -8.9      0.000      0.000
REMARK  Name = 
REMARK  5 active torsions:
REMARK  status: ('A' for Active; 'I' for Inactive)
REMARK    1  A    between atoms: C_1  and  C_2
REMARK    2  A    between atoms: C_5  and  N_6
REMARK    3  A    between atoms: C_7  and  C_9
REMARK    4  A    between atoms: C_9  and  N_10
REMARK    5  A    between atoms: N_13  and  C_14
REMARK                            x       y       z     vdW  Elec       q    Type
REMARK                         _______ _______ _______ _____ _____    ______ ____
ROOT
ATOM      1  N   UNL     1       6.281   6.318  17.477  0.00  0.00    +0.000 N 
ATOM      2  C   UNL     1       5.028   6.863  17.317  0.00  0.00    +0.000 A 
ATOM      3  C   UNL     1       3.938   6.260  17.802  0.00  0.00    +0.000 A 
ATOM      4  N   UNL     1       3.991   5.032  18.435  0.00  0.00    +0.000 N 
ATOM      5  C   UNL     1       5.217   4.358  18.607  0.00  0.00    +0.000 A 
ATOM      6  O   UNL     1       5.372   3.258  19.128  0.00  0.00    +0.000 OA
ATOM      7  C   UNL     1       6.473   5.101  18.121  0.00  0.00    +0.000 A 
ATOM      8  O   UNL     1       7.582   4.592  18.256  0.00  0.00    +0.000 OA
ENDROOT
BRANCH   4   9
ATOM      9  C   UNL     1       2.810   4.415  18.950  0.00  0.00    +0.000 A 
ATOM     10  C   UNL     1       2.379   4.699  20.253  0.00  0.00    +0.000 A 
ATOM     11  C   UNL     1       1.286   4.015  20.794  0.00  0.00    +0.000 A 
ATOM     12  C   UNL     1       0.590   3.085  20.023  0.00  0.00    +0.000 A 
ATOM     13  C   UNL     1       0.984   2.834  18.711  0.00  0.00    +0.000 A 
ATOM     14  C   UNL     1       2.096   3.488  18.181  0.00  0.00    +0.000 A 
ENDBRANCH   4   9
BRANCH   1  15
ATOM     15  C   UNL     1       7.456   7.015  16.957  0.00  0.00    +0.000 C 
BRANCH  15  17
ATOM     16  N   UNL     1       8.110   9.289  17.637  0.00  0.00    +0.000 N 
ATOM     17  C   UNL     1       8.093   7.945  17.990  0.00  0.00    +0.000 C 
ATOM     18  O   UNL     1       8.563   7.466  19.021  0.00  0.00    +0.000 OA
ATOM     19  H   UNL     1       7.615   9.553  16.790  0.00  0.00    +0.000 HD
BRANCH  16  24
ATOM     20  C   UNL     1      10.488  13.644  20.521  0.00  0.00    +0.000 C 
ATOM     21  C   UNL     1       9.880  12.498  19.768  0.00  0.00    +0.000 A 
ATOM     22  C   UNL     1       9.872  11.212  20.315  0.00  0.00    +0.000 A 
ATOM     23  C   UNL     1       9.292  10.146  19.626  0.00  0.00    +0.000 A 
ATOM     24  C   UNL     1       8.713  10.336  18.369  0.00  0.00    +0.000 A 
ATOM     25  C   UNL     1       8.745  11.615  17.804  0.00  0.00    +0.000 A 
ATOM     26  C   UNL     1       9.310  12.691  18.505  0.00  0.00    +0.000 A 
ENDBRANCH  16  24
ENDBRANCH  15  17
ENDBRANCH   1  15
TORSDOF 4
ENDMDL
MODEL 2
REMARK VINA RESULT:      -8.7      0.112      1.367
REMARK  Name = 
REMARK  5 active torsions:
REMARK  status: ('A' for Active; 'I' for Inactive)
REMARK    1  A    between atoms: C_1  and  C_2
REMARK    2  A    between atoms: C_5  and  N_6
REMARK    3  A    between atoms: C_7  and  C_9
REMARK    4  A    between atoms: C_9  and  N_10
REMARK    5  A    between atoms: N_13  and  C_14
REMARK                            x       y       z     vdW  Elec       q    Type
REMARK                         _______ _______ _______ _____ _____    ______ ____
ROOT
ATOM      1  N   UNL     1       6.334   6.312  17.507  0.00  0.00    +0.000 N 
ATOM      2  C   UNL     1       5.062   6.810  17.345  0.00  0.00    +0.000 A 
ATOM      3  C   UNL     1       3.997   6.182  17.852  0.00  0.00    +0.000 A 
ATOM      4  N   UNL     1       4.097   4.970  18.511  0.00  0.00    +0.000 N 
ATOM      5  C   UNL     1       5.346   4.341  18.686  0.00  0.00    +0.000 A 
ATOM      6  O   UNL     1       5.541   3.258  19.229  0.00  0.00    +0.000 OA
ATOM      7  C   UNL     1       6.572   5.116  18.175  0.00  0.00    +0.000 A 
ATOM      8  O   UNL     1       7.698   4.648  18.311  0.00  0.00    +0.000 OA
ENDROOT
BRANCH   4   9
ATOM      9  C   UNL     1       2.941   4.325  19.048  0.00  0.00    +0.000 A 
ATOM     10  C   UNL     1       2.214   3.417  18.267  0.00  0.00    +0.000 A 
ATOM     11  C   UNL     1       1.024   2.868  18.754  0.00  0.00    +0.000 A 
ATOM     12  C   UNL     1       0.581   3.184  20.038  0.00  0.00    +0.000 A 
ATOM     13  C   UNL     1       1.325   4.048  20.838  0.00  0.00    +0.000 A 
ATOM     14  C   UNL     1       2.493   4.626  20.341  0.00  0.00    +0.000 A 
ENDBRANCH   4   9
BRANCH   1  15
ATOM     15  C   UNL     1       7.481   7.037  16.962  0.00  0.00    +0.000 C 
BRANCH  15  17
ATOM     16  N   UNL     1       8.105   9.333  17.591  0.00  0.00    +0.000 N 
ATOM     17  C   UNL     1       8.103   7.999  17.976  0.00  0.00    +0.000 C 
ATOM     18  O   UNL     1       8.575   7.550  19.019  0.00  0.00    +0.000 OA
ATOM     19  H   UNL     1       7.609   9.572  16.736  0.00  0.00    +0.000 HD
BRANCH  16  24
ATOM     20  C   UNL     1      10.564  13.588  20.557  0.00  0.00    +0.000 C 
ATOM     21  C   UNL     1       9.908  12.484  19.782  0.00  0.00    +0.000 A 
ATOM     22  C   UNL     1       9.288  12.745  18.557  0.00  0.00    +0.000 A 
ATOM     23  C   UNL     1       8.692  11.718  17.824  0.00  0.00    +0.000 A 
ATOM     24  C   UNL     1       8.692  10.405  18.300  0.00  0.00    +0.000 A 
ATOM     25  C   UNL     1       9.284  10.143  19.539  0.00  0.00    +0.000 A 
ATOM     26  C   UNL     1       9.902  11.172  20.267  0.00  0.00    +0.000 A 
ENDBRANCH  16  24
ENDBRANCH  15  17
ENDBRANCH   1  15
TORSDOF 4
ENDMDL
MODEL 3
REMARK VINA RESULT:      -8.6      4.855      7.047
REMARK  Name = 
REMARK  5 active torsions:
REMARK  status: ('A' for Active; 'I' for Inactive)
REMARK    1  A    between atoms: C_1  and  C_2
REMARK    2  A    between atoms: C_5  and  N_6
REMARK    3  A    between atoms: C_7  and  C_9
REMARK    4  A    between atoms: C_9  and  N_10
REMARK    5  A    between atoms: N_13  and  C_14
REMARK                            x       y       z     vdW  Elec       q    Type
REMARK                         _______ _______ _______ _____ _____    ______ ____
ROOT
ATOM      1  N   UNL     1       4.514   4.268  18.388  0.00  0.00    +0.000 N 
ATOM      2  C   UNL     1       3.770   4.134  17.238  0.00  0.00    +0.000 A 
ATOM      3  C   UNL     1       4.345   4.131  16.031  0.00  0.00    +0.000 A 
ATOM      4  N   UNL     1       5.704   4.322  15.858  0.00  0.00    +0.000 N 
ATOM      5  C   UNL     1       6.554   4.522  16.964  0.00  0.00    +0.000 A 
ATOM      6  O   UNL     1       7.763   4.727  16.921  0.00  0.00    +0.000 OA
ATOM      7  C   UNL     1       5.893   4.438  18.351  0.00  0.00    +0.000 A 
ATOM      8  O   UNL     1       6.569   4.578  19.366  0.00  0.00    +0.000 OA
ENDROOT
BRANCH   4   9
ATOM      9  C   UNL     1       6.291   4.306  14.556  0.00  0.00    +0.000 A 
ATOM     10  C   UNL     1       7.343   5.178  14.248  0.00  0.00    +0.000 A 
ATOM     11  C   UNL     1       7.846   5.238  12.944  0.00  0.00    +0.000 A 
ATOM     12  C   UNL     1       7.335   4.395  11.958  0.00  0.00    +0.000 A 
ATOM     13  C   UNL     1       6.323   3.491  12.270  0.00  0.00    +0.000 A 
ATOM     14  C   UNL     1       5.794   3.455  13.560  0.00  0.00    +0.000 A 
ENDBRANCH   4   9
BRANCH   1  15
ATOM     15  C   UNL     1       3.857   4.242  19.693  0.00  0.00    +0.000 C 
BRANCH  15  17
ATOM     16  N   UNL     1       2.984   6.543  19.664  0.00  0.00    +0.000 N 
ATOM     17  C   UNL     1       2.664   5.195  19.770  0.00  0.00    +0.000 C 
ATOM     18  O   UNL     1       1.537   4.735  19.946  0.00  0.00    +0.000 OA
ATOM     19  H   UNL     1       3.948   6.776  19.442  0.00  0.00    +0.000 HD
BRANCH  16  24
ATOM     20  C   UNL     1      -0.664  10.925  20.322  0.00  0.00    +0.000 C 
ATOM     21  C   UNL     1       0.281   9.775  20.137  0.00  0.00    +0.000 A 
ATOM     22  C   UNL     1       0.955   9.595  18.927  0.00  0.00    +0.000 A 
ATOM     23  C   UNL     1       1.849   8.537  18.757  0.00  0.00    +0.000 A 
ATOM     24  C   UNL     1       2.086   7.626  19.789  0.00  0.00    +0.000 A 
ATOM     25  C   UNL     1       1.391   7.784  20.993  0.00  0.00    +0.000 A 
ATOM     26  C   UNL     1       0.508   8.860  21.171  0.00  0.00    +0.000 A 
ENDBRANCH  16  24
ENDBRANCH  15  17
ENDBRANCH   1  15
TORSDOF 4
ENDMDL
MODEL 4
REMARK VINA RESULT:      -8.4      4.840      6.939
REMARK  Name = 
REMARK  5 active torsions:
REMARK  status: ('A' for Active; 'I' for Inactive)
REMARK    1  A    between atoms: C_1  and  C_2
REMARK    2  A    between atoms: C_5  and  N_6
REMARK    3  A    between atoms: C_7  and  C_9
REMARK    4  A    between atoms: C_9  and  N_10
REMARK    5  A    between atoms: N_13  and  C_14
REMARK                            x       y       z     vdW  Elec       q    Type
REMARK                         _______ _______ _______ _____ _____    ______ ____
ROOT
ATOM      1  N   UNL     1       4.574   4.206  18.420  0.00  0.00    +0.000 N 
ATOM      2  C   UNL     1       3.788   4.051  17.301  0.00  0.00    +0.000 A 
ATOM      3  C   UNL     1       4.311   4.088  16.071  0.00  0.00    +0.000 A 
ATOM      4  N   UNL     1       5.651   4.344  15.844  0.00  0.00    +0.000 N 
ATOM      5  C   UNL     1       6.537   4.572  16.916  0.00  0.00    +0.000 A 
ATOM      6  O   UNL     1       7.733   4.833  16.824  0.00  0.00    +0.000 OA
ATOM      7  C   UNL     1       5.941   4.442  18.328  0.00  0.00    +0.000 A 
ATOM      8  O   UNL     1       6.652   4.601  19.315  0.00  0.00    +0.000 OA
ENDROOT
BRANCH   4   9
ATOM      9  C   UNL     1       6.182   4.370  14.519  0.00  0.00    +0.000 A 
ATOM     10  C   UNL     1       5.663   3.518  13.535  0.00  0.00    +0.000 A 
ATOM     11  C   UNL     1       6.254   3.466  12.269  0.00  0.00    +0.000 A 
ATOM     12  C   UNL     1       7.330   4.298  11.964  0.00  0.00    +0.000 A 
ATOM     13  C   UNL     1       7.819   5.183  12.921  0.00  0.00    +0.000 A 
ATOM     14  C   UNL     1       7.256   5.211  14.197  0.00  0.00    +0.000 A 
ENDBRANCH   4   9
BRANCH   1  15
ATOM     15  C   UNL     1       3.975   4.135  19.752  0.00  0.00    +0.000 C 
BRANCH  15  17
ATOM     16  N   UNL     1       3.085   6.411  19.461  0.00  0.00    +0.000 N 
ATOM     17  C   UNL     1       2.829   5.131  19.935  0.00  0.00    +0.000 C 
ATOM     18  O   UNL     1       1.799   4.764  20.498  0.00  0.00    +0.000 OA
ATOM     19  H   UNL     1       3.950   6.553  18.946  0.00  0.00    +0.000 HD
BRANCH  16  24
ATOM     20  C   UNL     1      -0.382  10.973  19.808  0.00  0.00    +0.000 C 
ATOM     21  C   UNL     1       0.532   9.786  19.729  0.00  0.00    +0.000 A 
ATOM     22  C   UNL     1       0.739   8.972  20.845  0.00  0.00    +0.000 A 
ATOM     23  C   UNL     1       1.575   7.857  20.772  0.00  0.00    +0.000 A 
ATOM     24  C   UNL     1       2.233   7.532  19.584  0.00  0.00    +0.000 A 
ATOM     25  C   UNL     1       2.054   8.361  18.472  0.00  0.00    +0.000 A 
ATOM     26  C   UNL     1       1.197   9.471  18.539  0.00  0.00    +0.000 A 
ENDBRANCH  16  24
ENDBRANCH  15  17
ENDBRANCH   1  15
TORSDOF 4
ENDMDL
MODEL 5
REMARK VINA RESULT:      -8.0      0.860      1.298
REMARK  Name = 
REMARK  5 active torsions:
REMARK  status: ('A' for Active; 'I' for Inactive)
REMARK    1  A    between atoms: C_1  and  C_2
REMARK    2  A    between atoms: C_5  and  N_6
REMARK    3  A    between atoms: C_7  and  C_9
REMARK    4  A    between atoms: C_9  and  N_10
REMARK    5  A    between atoms: N_13  and  C_14
REMARK                            x       y       z     vdW  Elec       q    Type
REMARK                         _______ _______ _______ _____ _____    ______ ____
ROOT
ATOM      1  N   UNL     1       6.577   6.479  17.724  0.00  0.00    +0.000 N 
ATOM      2  C   UNL     1       5.337   6.898  17.299  0.00  0.00    +0.000 A 
ATOM      3  C   UNL     1       4.218   6.294  17.709  0.00  0.00    +0.000 A 
ATOM      4  N   UNL     1       4.236   5.180  18.530  0.00  0.00    +0.000 N 
ATOM      5  C   UNL     1       5.454   4.633  18.982  0.00  0.00    +0.000 A 
ATOM      6  O   UNL     1       5.582   3.637  19.687  0.00  0.00    +0.000 OA
ATOM      7  C   UNL     1       6.730   5.389  18.572  0.00  0.00    +0.000 A 
ATOM      8  O   UNL     1       7.829   4.990  18.946  0.00  0.00    +0.000 OA
ENDROOT
BRANCH   4   9
ATOM      9  C   UNL     1       3.023   4.560  18.958  0.00  0.00    +0.000 A 
ATOM     10  C   UNL     1       2.394   3.608  18.145  0.00  0.00    +0.000 A 
ATOM     11  C   UNL     1       1.153   3.080  18.514  0.00  0.00    +0.000 A 
ATOM     12  C   UNL     1       0.559   3.462  19.717  0.00  0.00    +0.000 A 
ATOM     13  C   UNL     1       1.203   4.371  20.553  0.00  0.00    +0.000 A 
ATOM     14  C   UNL     1       2.423   4.927  20.170  0.00  0.00    +0.000 A 
ENDBRANCH   4   9
BRANCH   1  15
ATOM     15  C   UNL     1       7.780   7.178  17.276  0.00  0.00    +0.000 C 
BRANCH  15  17
ATOM     16  N   UNL     1       8.940   8.988  18.476  0.00  0.00    +0.000 N 
ATOM     17  C   UNL     1       7.818   8.636  17.736  0.00  0.00    +0.000 C 
ATOM     18  O   UNL     1       6.875   9.377  17.461  0.00  0.00    +0.000 OA
ATOM     19  H   UNL     1       9.678   8.294  18.559  0.00  0.00    +0.000 HD
BRANCH  16  24
ATOM     20  C   UNL     1       9.879  14.139  20.829  0.00  0.00    +0.000 C 
ATOM     21  C   UNL     1       9.646  12.786  20.222  0.00  0.00    +0.000 A 
ATOM     22  C   UNL     1       9.401  11.676  21.033  0.00  0.00    +0.000 A 
ATOM     23  C   UNL     1       9.165  10.419  20.473  0.00  0.00    +0.000 A 
ATOM     24  C   UNL     1       9.177  10.239  19.088  0.00  0.00    +0.000 A 
ATOM     25  C   UNL     1       9.451  11.342  18.272  0.00  0.00    +0.000 A 
ATOM     26  C   UNL     1       9.668  12.609  18.834  0.00  0.00    +0.000 A 
ENDBRANCH  16  24
ENDBRANCH  15  17
ENDBRANCH   1  15
TORSDOF 4
ENDMDL
MODEL 6
REMARK VINA RESULT:      -8.0      4.607      6.966
REMARK  Name = 
REMARK  5 active torsions:
REMARK  status: ('A' for Active; 'I' for Inactive)
REMARK    1  A    between atoms: C_1  and  C_2
REMARK    2  A    between atoms: C_5  and  N_6
REMARK    3  A    between atoms: C_7  and  C_9
REMARK    4  A    between atoms: C_9  and  N_10
REMARK    5  A    between atoms: N_13  and  C_14
REMARK                            x       y       z     vdW  Elec       q    Type
REMARK                         _______ _______ _______ _____ _____    ______ ____
ROOT
ATOM      1  N   UNL     1       4.759   4.516  18.285  0.00  0.00    +0.000 N 
ATOM      2  C   UNL     1       4.155   3.805  17.273  0.00  0.00    +0.000 A 
ATOM      3  C   UNL     1       4.678   3.760  16.044  0.00  0.00    +0.000 A 
ATOM      4  N   UNL     1       5.814   4.468  15.697  0.00  0.00    +0.000 N 
ATOM      5  C   UNL     1       6.484   5.273  16.640  0.00  0.00    +0.000 A 
ATOM      6  O   UNL     1       7.479   5.959  16.431  0.00  0.00    +0.000 OA
ATOM      7  C   UNL     1       5.921   5.248  18.072  0.00  0.00    +0.000 A 
ATOM      8  O   UNL     1       6.462   5.903  18.958  0.00  0.00    +0.000 OA
ENDROOT
BRANCH   4   9
ATOM      9  C   UNL     1       6.354   4.395  14.376  0.00  0.00    +0.000 A 
ATOM     10  C   UNL     1       7.436   5.207  14.012  0.00  0.00    +0.000 A 
ATOM     11  C   UNL     1       7.895   5.213  12.691  0.00  0.00    +0.000 A 
ATOM     12  C   UNL     1       7.311   4.374  11.743  0.00  0.00    +0.000 A 
ATOM     13  C   UNL     1       6.267   3.528  12.110  0.00  0.00    +0.000 A 
ATOM     14  C   UNL     1       5.783   3.547  13.418  0.00  0.00    +0.000 A 
ENDBRANCH   4   9
BRANCH   1  15
ATOM     15  C   UNL     1       4.175   4.525  19.625  0.00  0.00    +0.000 C 
BRANCH  15  17
ATOM     16  N   UNL     1       3.140   6.718  19.205  0.00  0.00    +0.000 N 
ATOM     17  C   UNL     1       2.958   5.445  19.730  0.00  0.00    +0.000 C 
ATOM     18  O   UNL     1       1.938   5.033  20.281  0.00  0.00    +0.000 OA
ATOM     19  H   UNL     1       4.009   6.896  18.708  0.00  0.00    +0.000 HD
BRANCH  16  24
ATOM     20  C   UNL     1      -0.653  11.026  19.246  0.00  0.00    +0.000 C 
ATOM     21  C   UNL     1       0.347   9.908  19.246  0.00  0.00    +0.000 A 
ATOM     22  C   UNL     1       0.675   9.247  20.432  0.00  0.00    +0.000 A 
ATOM     23  C   UNL     1       1.591   8.194  20.434  0.00  0.00    +0.000 A 
ATOM     24  C   UNL     1       2.210   7.781  19.252  0.00  0.00    +0.000 A 
ATOM     25  C   UNL     1       1.908   8.459  18.067  0.00  0.00    +0.000 A 
ATOM     26  C   UNL     1       0.972   9.504  18.060  0.00  0.00    +0.000 A 
ENDBRANCH  16  24
ENDBRANCH  15  17
ENDBRANCH   1  15
TORSDOF 4
ENDMDL
MODEL 7
REMARK VINA RESULT:      -8.0      1.333      2.136
REMARK  Name = 
REMARK  5 active torsions:
REMARK  status: ('A' for Active; 'I' for Inactive)
REMARK    1  A    between atoms: C_1  and  C_2
REMARK    2  A    between atoms: C_5  and  N_6
REMARK    3  A    between atoms: C_7  and  C_9
REMARK    4  A    between atoms: C_9  and  N_10
REMARK    5  A    between atoms: N_13  and  C_14
REMARK                            x       y       z     vdW  Elec       q    Type
REMARK                         _______ _______ _______ _____ _____    ______ ____
ROOT
ATOM      1  N   UNL     1       6.064   5.937  17.458  0.00  0.00    +0.000 N 
ATOM      2  C   UNL     1       6.189   4.699  18.045  0.00  0.00    +0.000 A 
ATOM      3  C   UNL     1       5.134   4.062  18.561  0.00  0.00    +0.000 A 
ATOM      4  N   UNL     1       3.871   4.625  18.592  0.00  0.00    +0.000 N 
ATOM      5  C   UNL     1       3.639   5.912  18.066  0.00  0.00    +0.000 A 
ATOM      6  O   UNL     1       2.568   6.512  18.068  0.00  0.00    +0.000 OA
ATOM      7  C   UNL     1       4.843   6.600  17.400  0.00  0.00    +0.000 A 
ATOM      8  O   UNL     1       4.717   7.712  16.896  0.00  0.00    +0.000 OA
ENDROOT
BRANCH   4   9
ATOM      9  C   UNL     1       2.760   3.916  19.143  0.00  0.00    +0.000 A 
ATOM     10  C   UNL     1       1.917   3.171  18.308  0.00  0.00    +0.000 A 
ATOM     11  C   UNL     1       0.770   2.566  18.830  0.00  0.00    +0.000 A 
ATOM     12  C   UNL     1       0.487   2.659  20.192  0.00  0.00    +0.000 A 
ATOM     13  C   UNL     1       1.347   3.357  21.036  0.00  0.00    +0.000 A 
ATOM     14  C   UNL     1       2.473   3.993  20.512  0.00  0.00    +0.000 A 
ENDBRANCH   4   9
BRANCH   1  15
ATOM     15  C   UNL     1       7.233   6.597  16.881  0.00  0.00    +0.000 C 
BRANCH  15  17
ATOM     16  N   UNL     1       7.844   8.908  17.467  0.00  0.00    +0.000 N 
ATOM     17  C   UNL     1       7.896   7.575  17.852  0.00  0.00    +0.000 C 
ATOM     18  O   UNL     1       8.442   7.139  18.865  0.00  0.00    +0.000 OA
ATOM     19  H   UNL     1       7.291   9.134  16.644  0.00  0.00    +0.000 HD
BRANCH  16  24
ATOM     20  C   UNL     1      10.381  13.223  20.277  0.00  0.00    +0.000 C 
ATOM     21  C   UNL     1       9.704  12.104  19.542  0.00  0.00    +0.000 A 
ATOM     22  C   UNL     1       9.071  12.336  18.319  0.00  0.00    +0.000 A 
ATOM     23  C   UNL     1       8.456  11.294  17.623  0.00  0.00    +0.000 A 
ATOM     24  C   UNL     1       8.450   9.995  18.137  0.00  0.00    +0.000 A 
ATOM     25  C   UNL     1       9.057   9.763  19.375  0.00  0.00    +0.000 A 
ATOM     26  C   UNL     1       9.694  10.806  20.065  0.00  0.00    +0.000 A 
ENDBRANCH  16  24
ENDBRANCH  15  17
ENDBRANCH   1  15
TORSDOF 4
ENDMDL
MODEL 8
REMARK VINA RESULT:      -7.9      1.356      1.660
REMARK  Name = 
REMARK  5 active torsions:
REMARK  status: ('A' for Active; 'I' for Inactive)
REMARK    1  A    between atoms: C_1  and  C_2
REMARK    2  A    between atoms: C_5  and  N_6
REMARK    3  A    between atoms: C_7  and  C_9
REMARK    4  A    between atoms: C_9  and  N_10
REMARK    5  A    between atoms: N_13  and  C_14
REMARK                            x       y       z     vdW  Elec       q    Type
REMARK                         _______ _______ _______ _____ _____    ______ ____
ROOT
ATOM      1  N   UNL     1       6.103   6.134  17.684  0.00  0.00    +0.000 N 
ATOM      2  C   UNL     1       6.308   5.081  18.547  0.00  0.00    +0.000 A 
ATOM      3  C   UNL     1       5.285   4.440  19.120  0.00  0.00    +0.000 A 
ATOM      4  N   UNL     1       3.971   4.828  18.935  0.00  0.00    +0.000 N 
ATOM      5  C   UNL     1       3.648   5.927  18.114  0.00  0.00    +0.000 A 
ATOM      6  O   UNL     1       2.523   6.369  17.905  0.00  0.00    +0.000 OA
ATOM      7  C   UNL     1       4.827   6.603  17.392  0.00  0.00    +0.000 A 
ATOM      8  O   UNL     1       4.627   7.552  16.640  0.00  0.00    +0.000 OA
ENDROOT
BRANCH   4   9
ATOM      9  C   UNL     1       2.898   4.118  19.556  0.00  0.00    +0.000 A 
ATOM     10  C   UNL     1       2.741   4.154  20.947  0.00  0.00    +0.000 A 
ATOM     11  C   UNL     1       1.758   3.374  21.563  0.00  0.00    +0.000 A 
ATOM     12  C   UNL     1       0.897   2.595  20.792  0.00  0.00    +0.000 A 
ATOM     13  C   UNL     1       1.015   2.593  19.404  0.00  0.00    +0.000 A 
ATOM     14  C   UNL     1       2.019   3.341  18.789  0.00  0.00    +0.000 A 
ENDBRANCH   4   9
BRANCH   1  15
ATOM     15  C   UNL     1       7.242   6.798  17.053  0.00  0.00    +0.000 C 
BRANCH  15  17
ATOM     16  N   UNL     1       7.928   9.091  17.626  0.00  0.00    +0.000 N 
ATOM     17  C   UNL     1       7.964   7.755  18.002  0.00  0.00    +0.000 C 
ATOM     18  O   UNL     1       8.540   7.300  18.990  0.00  0.00    +0.000 OA
ATOM     19  H   UNL     1       7.348   9.333  16.827  0.00  0.00    +0.000 HD
BRANCH  16  24
ATOM     20  C   UNL     1      10.518  13.529  20.184  0.00  0.00    +0.000 C 
ATOM     21  C   UNL     1       9.855  12.361  19.516  0.00  0.00    +0.000 A 
ATOM     22  C   UNL     1       9.902  11.090  20.093  0.00  0.00    +0.000 A 
ATOM     23  C   UNL     1       9.271  10.004  19.483  0.00  0.00    +0.000 A 
ATOM     24  C   UNL     1       8.585  10.159  18.277  0.00  0.00    +0.000 A 
ATOM     25  C   UNL     1       8.560  11.424  17.679  0.00  0.00    +0.000 A 
ATOM     26  C   UNL     1       9.177  12.520  18.302  0.00  0.00    +0.000 A 
ENDBRANCH  16  24
ENDBRANCH  15  17
ENDBRANCH   1  15
TORSDOF 4
ENDMDL
MODEL 9
REMARK VINA RESULT:      -7.8      1.639      1.787
REMARK  Name = 
REMARK  5 active torsions:
REMARK  status: ('A' for Active; 'I' for Inactive)
REMARK    1  A    between atoms: C_1  and  C_2
REMARK    2  A    between atoms: C_5  and  N_6
REMARK    3  A    between atoms: C_7  and  C_9
REMARK    4  A    between atoms: C_9  and  N_10
REMARK    5  A    between atoms: N_13  and  C_14
REMARK                            x       y       z     vdW  Elec       q    Type
REMARK                         _______ _______ _______ _____ _____    ______ ____
ROOT
ATOM      1  N   UNL     1       7.113   6.014  18.192  0.00  0.00    +0.000 N 
ATOM      2  C   UNL     1       6.402   5.818  19.354  0.00  0.00    +0.000 A 
ATOM      3  C   UNL     1       5.256   5.130  19.363  0.00  0.00    +0.000 A 
ATOM      4  N   UNL     1       4.685   4.628  18.208  0.00  0.00    +0.000 N 
ATOM      5  C   UNL     1       5.301   4.816  16.954  0.00  0.00    +0.000 A 
ATOM      6  O   UNL     1       4.867   4.437  15.871  0.00  0.00    +0.000 OA
ATOM      7  C   UNL     1       6.661   5.535  16.968  0.00  0.00    +0.000 A 
ATOM      8  O   UNL     1       7.273   5.716  15.920  0.00  0.00    +0.000 OA
ENDROOT
BRANCH   4   9
ATOM      9  C   UNL     1       3.463   3.890  18.250  0.00  0.00    +0.000 A 
ATOM     10  C   UNL     1       2.238   4.546  18.077  0.00  0.00    +0.000 A 
ATOM     11  C   UNL     1       1.038   3.843  18.225  0.00  0.00    +0.000 A 
ATOM     12  C   UNL     1       1.057   2.475  18.496  0.00  0.00    +0.000 A 
ATOM     13  C   UNL     1       2.273   1.807  18.620  0.00  0.00    +0.000 A 
ATOM     14  C   UNL     1       3.471   2.513  18.510  0.00  0.00    +0.000 A 
ENDBRANCH   4   9
BRANCH   1  15
ATOM     15  C   UNL     1       8.376   6.749  18.221  0.00  0.00    +0.000 C 
BRANCH  15  17
ATOM     16  N   UNL     1       9.108   8.988  18.934  0.00  0.00    +0.000 N 
ATOM     17  C   UNL     1       8.174   8.265  18.204  0.00  0.00    +0.000 C 
ATOM     18  O   UNL     1       7.215   8.737  17.595  0.00  0.00    +0.000 OA
ATOM     19  H   UNL     1       9.894   8.474  19.322  0.00  0.00    +0.000 HD
BRANCH  16  24
ATOM     20  C   UNL     1       9.013  14.679  19.675  0.00  0.00    +0.000 C 
ATOM     21  C   UNL     1       9.051  13.191  19.489  0.00  0.00    +0.000 A 
ATOM     22  C   UNL     1       9.196  12.340  20.587  0.00  0.00    +0.000 A 
ATOM     23  C   UNL     1       9.215  10.955  20.420  0.00  0.00    +0.000 A 
ATOM     24  C   UNL     1       9.099  10.384  19.150  0.00  0.00    +0.000 A 
ATOM     25  C   UNL     1       8.984  11.232  18.044  0.00  0.00    +0.000 A 
ATOM     26  C   UNL     1       8.944  12.625  18.213  0.00  0.00    +0.000 A 
ENDBRANCH  16  24
ENDBRANCH  15  17
ENDBRANCH   1  15
TORSDOF 4
ENDMDL
