MODEL 1
REMARK VINA RESULT:      -7.4      0.000      0.000
REMARK  Name = 
REMARK  12 active torsions:
REMARK  status: ('A' for Active; 'I' for Inactive)
REMARK    1  A    between atoms: C_1  and  C_2
REMARK    2  A    between atoms: C_2  and  C_3
REMARK    3  A    between atoms: C_4  and  C_5
REMARK    4  A    between atoms: C_5  and  C_6
REMARK    5  A    between atoms: C_6  and  C_7
REMARK    6  A    between atoms: C_7  and  C_8
REMARK    7  A    between atoms: C_9  and  C_10
REMARK    8  A    between atoms: C_10  and  N_11
REMARK    9  A    between atoms: C_13  and  C_14
REMARK   10  A    between atoms: C_14  and  O_15
REMARK   11  A    between atoms: O_15  and  C_16
REMARK   12  A    between atoms: C_21  and  O_22
REMARK                            x       y       z     vdW  Elec       q    Type
REMARK                         _______ _______ _______ _____ _____    ______ ____
ROOT
ATOM      1  N   UNL     1       6.413   6.139  17.798  0.00  0.00    +0.000 N 
ATOM      2  C   UNL     1       6.564   7.369  17.231  0.00  0.00    +0.000 A 
ATOM      3  C   UNL     1       7.693   7.875  17.837  0.00  0.00    +0.000 A 
ATOM      4  N   UNL     1       8.178   6.946  18.725  0.00  0.00    +0.000 NA
ATOM      5  N   UNL     1       7.384   5.886  18.691  0.00  0.00    +0.000 NA
ENDROOT
BRANCH   1   6
ATOM      6  C   UNL     1       5.359   5.171  17.559  0.00  0.00    +0.000 C 
BRANCH   6   9
ATOM      7  C   UNL     1       4.386   3.138  18.766  0.00  0.00    +0.000 C 
ATOM      8  C   UNL     1       4.462   2.242  19.975  0.00  0.00    +0.000 C 
ATOM      9  C   UNL     1       5.259   4.165  18.675  0.00  0.00    +0.000 C 
BRANCH   7  10
ATOM     10  C   UNL     1       3.366   2.884  17.670  0.00  0.00    +0.000 C 
BRANCH  10  11
ATOM     11  C   UNL     1       1.918   3.291  17.948  0.00  0.00    +0.000 C 
BRANCH  11  15
ATOM     12  C   UNL     1       1.516   5.955  20.769  0.00  0.00    +0.000 C 
ATOM     13  C   UNL     1       1.518   4.631  20.057  0.00  0.00    +0.000 C 
ATOM     14  C   UNL     1       1.137   3.416  20.862  0.00  0.00    +0.000 C 
ATOM     15  C   UNL     1       1.839   4.560  18.751  0.00  0.00    +0.000 C 
ENDBRANCH  11  15
ENDBRANCH  10  11
ENDBRANCH   7  10
ENDBRANCH   6   9
ENDBRANCH   1   6
BRANCH   3  16
ATOM     16  C   UNL     1       8.388   9.173  17.624  0.00  0.00    +0.000 C 
BRANCH  16  17
ATOM     17  O   UNL     1       8.379   9.962  18.814  0.00  0.00    +0.000 OA
BRANCH  17  18
ATOM     18  C   UNL     1       9.482  10.730  19.078  0.00  0.00    +0.000 A 
ATOM     19  C   UNL     1      10.199  11.077  17.924  0.00  0.00    +0.000 A 
ATOM     20  C   UNL     1      11.363  11.844  18.003  0.00  0.00    +0.000 A 
ATOM     21  C   UNL     1      11.823  12.277  19.243  0.00  0.00    +0.000 A 
ATOM     22  C   UNL     1      11.118  11.947  20.399  0.00  0.00    +0.000 A 
ATOM     23  C   UNL     1       9.954  11.175  20.318  0.00  0.00    +0.000 A 
BRANCH  23  24
ATOM     24  O   UNL     1       9.305  10.867  21.482  0.00  0.00    +0.000 OA
ATOM     25  H   UNL     1       8.398  11.212  21.443  0.00  0.00    +0.000 HD
ENDBRANCH  23  24
ENDBRANCH  17  18
ENDBRANCH  16  17
ENDBRANCH   3  16
TORSDOF 9
ENDMDL
MODEL 2
REMARK VINA RESULT:      -7.4      4.713      6.398
REMARK  Name = 
REMARK  12 active torsions:
REMARK  status: ('A' for Active; 'I' for Inactive)
REMARK    1  A    between atoms: C_1  and  C_2
REMARK    2  A    between atoms: C_2  and  C_3
REMARK    3  A    between atoms: C_4  and  C_5
REMARK    4  A    between atoms: C_5  and  C_6
REMARK    5  A    between atoms: C_6  and  C_7
REMARK    6  A    between atoms: C_7  and  C_8
REMARK    7  A    between atoms: C_9  and  C_10
REMARK    8  A    between atoms: C_10  and  N_11
REMARK    9  A    between atoms: C_13  and  C_14
REMARK   10  A    between atoms: C_14  and  O_15
REMARK   11  A    between atoms: O_15  and  C_16
REMARK   12  A    between atoms: C_21  and  O_22
REMARK                            x       y       z     vdW  Elec       q    Type
REMARK                         _______ _______ _______ _____ _____    ______ ____
ROOT
ATOM      1  N   UNL     1       3.701   5.908  19.008  0.00  0.00    +0.000 N 
ATOM      2  C   UNL     1       3.798   6.382  17.734  0.00  0.00    +0.000 A 
ATOM      3  C   UNL     1       5.108   6.130  17.388  0.00  0.00    +0.000 A 
ATOM      4  N   UNL     1       5.739   5.517  18.443  0.00  0.00    +0.000 NA
ATOM      5  N   UNL     1       4.865   5.386  19.429  0.00  0.00    +0.000 NA
ENDROOT
BRANCH   1   6
ATOM      6  C   UNL     1       2.546   5.943  19.886  0.00  0.00    +0.000 C 
BRANCH   6   9
ATOM      7  C   UNL     1       1.648   3.806  20.963  0.00  0.00    +0.000 C 
ATOM      8  C   UNL     1       1.850   2.755  22.023  0.00  0.00    +0.000 C 
ATOM      9  C   UNL     1       2.555   4.802  20.869  0.00  0.00    +0.000 C 
BRANCH   7  10
ATOM     10  C   UNL     1       0.465   3.738  20.014  0.00  0.00    +0.000 C 
BRANCH  10  11
ATOM     11  C   UNL     1       0.627   2.901  18.745  0.00  0.00    +0.000 C 
BRANCH  11  15
ATOM     12  C   UNL     1       4.069   1.128  18.266  0.00  0.00    +0.000 C 
ATOM     13  C   UNL     1       2.919   2.075  18.060  0.00  0.00    +0.000 C 
ATOM     14  C   UNL     1       3.058   3.099  16.964  0.00  0.00    +0.000 C 
ATOM     15  C   UNL     1       1.816   1.985  18.828  0.00  0.00    +0.000 C 
ENDBRANCH  11  15
ENDBRANCH  10  11
ENDBRANCH   7  10
ENDBRANCH   6   9
ENDBRANCH   1   6
BRANCH   3  16
ATOM     16  C   UNL     1       5.824   6.394  16.110  0.00  0.00    +0.000 C 
BRANCH  16  17
ATOM     17  O   UNL     1       6.712   5.323  15.789  0.00  0.00    +0.000 OA
BRANCH  17  18
ATOM     18  C   UNL     1       6.695   4.845  14.506  0.00  0.00    +0.000 A 
ATOM     19  C   UNL     1       5.614   3.990  14.251  0.00  0.00    +0.000 A 
ATOM     20  C   UNL     1       5.446   3.395  13.000  0.00  0.00    +0.000 A 
ATOM     21  C   UNL     1       6.361   3.652  11.983  0.00  0.00    +0.000 A 
ATOM     22  C   UNL     1       7.438   4.505  12.217  0.00  0.00    +0.000 A 
ATOM     23  C   UNL     1       7.607   5.098  13.473  0.00  0.00    +0.000 A 
BRANCH  23  24
ATOM     24  O   UNL     1       8.686   5.918  13.657  0.00  0.00    +0.000 OA
ATOM     25  H   UNL     1       8.904   5.953  14.602  0.00  0.00    +0.000 HD
ENDBRANCH  23  24
ENDBRANCH  17  18
ENDBRANCH  16  17
ENDBRANCH   3  16
TORSDOF 9
ENDMDL
MODEL 3
REMARK VINA RESULT:      -7.3      2.878      9.473
REMARK  Name = 
REMARK  12 active torsions:
REMARK  status: ('A' for Active; 'I' for Inactive)
REMARK    1  A    between atoms: C_1  and  C_2
REMARK    2  A    between atoms: C_2  and  C_3
REMARK    3  A    between atoms: C_4  and  C_5
REMARK    4  A    between atoms: C_5  and  C_6
REMARK    5  A    between atoms: C_6  and  C_7
REMARK    6  A    between atoms: C_7  and  C_8
REMARK    7  A    between atoms: C_9  and  C_10
REMARK    8  A    between atoms: C_10  and  N_11
REMARK    9  A    between atoms: C_13  and  C_14
REMARK   10  A    between atoms: C_14  and  O_15
REMARK   11  A    between atoms: O_15  and  C_16
REMARK   12  A    between atoms: C_21  and  O_22
REMARK                            x       y       z     vdW  Elec       q    Type
REMARK                         _______ _______ _______ _____ _____    ______ ____
ROOT
ATOM      1  N   UNL     1       7.082   6.182  17.602  0.00  0.00    +0.000 N 
ATOM      2  C   UNL     1       5.779   5.924  17.910  0.00  0.00    +0.000 A 
ATOM      3  C   UNL     1       5.410   4.958  17.001  0.00  0.00    +0.000 A 
ATOM      4  N   UNL     1       6.486   4.665  16.198  0.00  0.00    +0.000 NA
ATOM      5  N   UNL     1       7.504   5.423  16.577  0.00  0.00    +0.000 NA
ENDROOT
BRANCH   1   6
ATOM      6  C   UNL     1       7.969   7.150  18.220  0.00  0.00    +0.000 C 
BRANCH   6   9
ATOM      7  C   UNL     1       8.312   9.681  18.122  0.00  0.00    +0.000 C 
ATOM      8  C   UNL     1       7.958  10.968  17.422  0.00  0.00    +0.000 C 
ATOM      9  C   UNL     1       7.752   8.536  17.674  0.00  0.00    +0.000 C 
BRANCH   7  10
ATOM     10  C   UNL     1       9.284   9.668  19.287  0.00  0.00    +0.000 C 
BRANCH  10  11
ATOM     11  C   UNL     1       9.808  11.018  19.781  0.00  0.00    +0.000 C 
BRANCH  11  15
ATOM     12  C   UNL     1      12.271  13.157  17.643  0.00  0.00    +0.000 C 
ATOM     13  C   UNL     1      11.056  12.758  18.434  0.00  0.00    +0.000 C 
ATOM     14  C   UNL     1       9.980  13.797  18.613  0.00  0.00    +0.000 C 
ATOM     15  C   UNL     1      10.951  11.515  18.940  0.00  0.00    +0.000 C 
ENDBRANCH  11  15
ENDBRANCH  10  11
ENDBRANCH   7  10
ENDBRANCH   6   9
ENDBRANCH   1   6
BRANCH   3  16
ATOM     16  C   UNL     1       4.113   4.246  16.839  0.00  0.00    +0.000 C 
BRANCH  16  17
ATOM     17  O   UNL     1       4.093   3.037  17.598  0.00  0.00    +0.000 OA
BRANCH  17  18
ATOM     18  C   UNL     1       3.375   3.029  18.764  0.00  0.00    +0.000 A 
ATOM     19  C   UNL     1       2.094   3.582  18.625  0.00  0.00    +0.000 A 
ATOM     20  C   UNL     1       1.226   3.673  19.715  0.00  0.00    +0.000 A 
ATOM     21  C   UNL     1       1.631   3.207  20.962  0.00  0.00    +0.000 A 
ATOM     22  C   UNL     1       2.898   2.647  21.116  0.00  0.00    +0.000 A 
ATOM     23  C   UNL     1       3.768   2.561  20.024  0.00  0.00    +0.000 A 
BRANCH  23  24
ATOM     24  O   UNL     1       5.005   2.015  20.229  0.00  0.00    +0.000 OA
ATOM     25  H   UNL     1       5.684   2.633  19.913  0.00  0.00    +0.000 HD
ENDBRANCH  23  24
ENDBRANCH  17  18
ENDBRANCH  16  17
ENDBRANCH   3  16
TORSDOF 9
ENDMDL
MODEL 4
REMARK VINA RESULT:      -7.2      2.475      9.300
REMARK  Name = 
REMARK  12 active torsions:
REMARK  status: ('A' for Active; 'I' for Inactive)
REMARK    1  A    between atoms: C_1  and  C_2
REMARK    2  A    between atoms: C_2  and  C_3
REMARK    3  A    between atoms: C_4  and  C_5
REMARK    4  A    between atoms: C_5  and  C_6
REMARK    5  A    between atoms: C_6  and  C_7
REMARK    6  A    between atoms: C_7  and  C_8
REMARK    7  A    between atoms: C_9  and  C_10
REMARK    8  A    between atoms: C_10  and  N_11
REMARK    9  A    between atoms: C_13  and  C_14
REMARK   10  A    between atoms: C_14  and  O_15
REMARK   11  A    between atoms: O_15  and  C_16
REMARK   12  A    between atoms: C_21  and  O_22
REMARK                            x       y       z     vdW  Elec       q    Type
REMARK                         _______ _______ _______ _____ _____    ______ ____
ROOT
ATOM      1  N   UNL     1       8.055   7.393  18.127  0.00  0.00    +0.000 N 
ATOM      2  C   UNL     1       7.530   6.236  18.621  0.00  0.00    +0.000 A 
ATOM      3  C   UNL     1       6.992   5.618  17.514  0.00  0.00    +0.000 A 
ATOM      4  N   UNL     1       7.214   6.405  16.410  0.00  0.00    +0.000 NA
ATOM      5  N   UNL     1       7.867   7.490  16.800  0.00  0.00    +0.000 NA
ENDROOT
BRANCH   1   6
ATOM      6  C   UNL     1       8.718   8.455  18.859  0.00  0.00    +0.000 C 
BRANCH   6   9
ATOM      7  C   UNL     1       9.181  10.932  18.428  0.00  0.00    +0.000 C 
ATOM      8  C   UNL     1       8.746  12.183  17.708  0.00  0.00    +0.000 C 
ATOM      9  C   UNL     1       8.459   9.805  18.244  0.00  0.00    +0.000 C 
BRANCH   7  10
ATOM     10  C   UNL     1      10.408  10.933  19.321  0.00  0.00    +0.000 C 
BRANCH  10  11
ATOM     11  C   UNL     1      10.734  12.228  20.067  0.00  0.00    +0.000 C 
BRANCH  11  15
ATOM     12  C   UNL     1       8.650  13.589  23.071  0.00  0.00    +0.000 C 
ATOM     13  C   UNL     1       9.526  13.558  21.849  0.00  0.00    +0.000 C 
ATOM     14  C   UNL     1       9.965  14.883  21.283  0.00  0.00    +0.000 C 
ATOM     15  C   UNL     1       9.900  12.383  21.309  0.00  0.00    +0.000 C 
ENDBRANCH  11  15
ENDBRANCH  10  11
ENDBRANCH   7  10
ENDBRANCH   6   9
ENDBRANCH   1   6
BRANCH   3  16
ATOM     16  C   UNL     1       6.299   4.306  17.397  0.00  0.00    +0.000 C 
BRANCH  16  17
ATOM     17  O   UNL     1       5.630   3.968  18.612  0.00  0.00    +0.000 OA
BRANCH  17  18
ATOM     18  C   UNL     1       4.263   3.889  18.585  0.00  0.00    +0.000 A 
ATOM     19  C   UNL     1       3.789   2.811  17.825  0.00  0.00    +0.000 A 
ATOM     20  C   UNL     1       2.420   2.584  17.671  0.00  0.00    +0.000 A 
ATOM     21  C   UNL     1       1.505   3.436  18.283  0.00  0.00    +0.000 A 
ATOM     22  C   UNL     1       1.960   4.508  19.049  0.00  0.00    +0.000 A 
ATOM     23  C   UNL     1       3.332   4.736  19.198  0.00  0.00    +0.000 A 
BRANCH  23  24
ATOM     24  O   UNL     1       3.727   5.808  19.949  0.00  0.00    +0.000 OA
ATOM     25  H   UNL     1       3.458   5.668  20.872  0.00  0.00    +0.000 HD
ENDBRANCH  23  24
ENDBRANCH  17  18
ENDBRANCH  16  17
ENDBRANCH   3  16
TORSDOF 9
ENDMDL
MODEL 5
REMARK VINA RESULT:      -7.2      2.930      9.796
REMARK  Name = 
REMARK  12 active torsions:
REMARK  status: ('A' for Active; 'I' for Inactive)
REMARK    1  A    between atoms: C_1  and  C_2
REMARK    2  A    between atoms: C_2  and  C_3
REMARK    3  A    between atoms: C_4  and  C_5
REMARK    4  A    between atoms: C_5  and  C_6
REMARK    5  A    between atoms: C_6  and  C_7
REMARK    6  A    between atoms: C_7  and  C_8
REMARK    7  A    between atoms: C_9  and  C_10
REMARK    8  A    between atoms: C_10  and  N_11
REMARK    9  A    between atoms: C_13  and  C_14
REMARK   10  A    between atoms: C_14  and  O_15
REMARK   11  A    between atoms: O_15  and  C_16
REMARK   12  A    between atoms: C_21  and  O_22
REMARK                            x       y       z     vdW  Elec       q    Type
REMARK                         _______ _______ _______ _____ _____    ______ ____
ROOT
ATOM      1  N   UNL     1       7.954   8.111  18.021  0.00  0.00    +0.000 N 
ATOM      2  C   UNL     1       7.137   7.348  17.241  0.00  0.00    +0.000 A 
ATOM      3  C   UNL     1       7.191   6.102  17.826  0.00  0.00    +0.000 A 
ATOM      4  N   UNL     1       8.015   6.159  18.924  0.00  0.00    +0.000 NA
ATOM      5  N   UNL     1       8.476   7.396  19.032  0.00  0.00    +0.000 NA
ENDROOT
BRANCH   1   6
ATOM      6  C   UNL     1       8.301   9.509  17.848  0.00  0.00    +0.000 C 
BRANCH   6   9
ATOM      7  C   UNL     1       9.973  11.031  19.040  0.00  0.00    +0.000 C 
ATOM      8  C   UNL     1      10.589  11.430  20.357  0.00  0.00    +0.000 C 
ATOM      9  C   UNL     1       9.040  10.054  19.041  0.00  0.00    +0.000 C 
BRANCH   7  10
ATOM     10  C   UNL     1      10.378  11.720  17.750  0.00  0.00    +0.000 C 
BRANCH  10  11
ATOM     11  C   UNL     1      10.941  13.138  17.856  0.00  0.00    +0.000 C 
BRANCH  11  15
ATOM     12  C   UNL     1       8.687  16.318  18.017  0.00  0.00    +0.000 C 
ATOM     13  C   UNL     1       9.843  15.413  17.694  0.00  0.00    +0.000 C 
ATOM     14  C   UNL     1      10.960  15.991  16.865  0.00  0.00    +0.000 C 
ATOM     15  C   UNL     1       9.864  14.145  18.150  0.00  0.00    +0.000 C 
ENDBRANCH  11  15
ENDBRANCH  10  11
ENDBRANCH   7  10
ENDBRANCH   6   9
ENDBRANCH   1   6
BRANCH   3  16
ATOM     16  C   UNL     1       6.492   4.843  17.453  0.00  0.00    +0.000 C 
BRANCH  16  17
ATOM     17  O   UNL     1       6.039   4.144  18.613  0.00  0.00    +0.000 OA
BRANCH  17  18
ATOM     18  C   UNL     1       4.742   3.706  18.626  0.00  0.00    +0.000 A 
ATOM     19  C   UNL     1       3.898   4.457  17.796  0.00  0.00    +0.000 A 
ATOM     20  C   UNL     1       2.537   4.165  17.697  0.00  0.00    +0.000 A 
ATOM     21  C   UNL     1       2.002   3.109  18.431  0.00  0.00    +0.000 A 
ATOM     22  C   UNL     1       2.828   2.347  19.255  0.00  0.00    +0.000 A 
ATOM     23  C   UNL     1       4.191   2.645  19.355  0.00  0.00    +0.000 A 
BRANCH  23  24
ATOM     24  O   UNL     1       4.957   1.875  20.187  0.00  0.00    +0.000 OA
ATOM     25  H   UNL     1       5.806   1.686  19.756  0.00  0.00    +0.000 HD
ENDBRANCH  23  24
ENDBRANCH  17  18
ENDBRANCH  16  17
ENDBRANCH   3  16
TORSDOF 9
ENDMDL
MODEL 6
REMARK VINA RESULT:      -7.2      2.915      9.937
REMARK  Name = 
REMARK  12 active torsions:
REMARK  status: ('A' for Active; 'I' for Inactive)
REMARK    1  A    between atoms: C_1  and  C_2
REMARK    2  A    between atoms: C_2  and  C_3
REMARK    3  A    between atoms: C_4  and  C_5
REMARK    4  A    between atoms: C_5  and  C_6
REMARK    5  A    between atoms: C_6  and  C_7
REMARK    6  A    between atoms: C_7  and  C_8
REMARK    7  A    between atoms: C_9  and  C_10
REMARK    8  A    between atoms: C_10  and  N_11
REMARK    9  A    between atoms: C_13  and  C_14
REMARK   10  A    between atoms: C_14  and  O_15
REMARK   11  A    between atoms: O_15  and  C_16
REMARK   12  A    between atoms: C_21  and  O_22
REMARK                            x       y       z     vdW  Elec       q    Type
REMARK                         _______ _______ _______ _____ _____    ______ ____
ROOT
ATOM      1  N   UNL     1       7.518   7.402  17.368  0.00  0.00    +0.000 N 
ATOM      2  C   UNL     1       6.784   6.777  18.332  0.00  0.00    +0.000 A 
ATOM      3  C   UNL     1       6.596   5.508  17.832  0.00  0.00    +0.000 A 
ATOM      4  N   UNL     1       7.218   5.412  16.611  0.00  0.00    +0.000 NA
ATOM      5  N   UNL     1       7.781   6.580  16.339  0.00  0.00    +0.000 NA
ENDROOT
BRANCH   1   6
ATOM      6  C   UNL     1       7.978   8.779  17.351  0.00  0.00    +0.000 C 
BRANCH   6   9
ATOM      7  C   UNL     1       9.169  10.352  18.975  0.00  0.00    +0.000 C 
ATOM      8  C   UNL     1       9.608  10.589  20.397  0.00  0.00    +0.000 C 
ATOM      9  C   UNL     1       8.506   9.209  18.693  0.00  0.00    +0.000 C 
BRANCH   7  10
ATOM     10  C   UNL     1       9.449  11.377  17.892  0.00  0.00    +0.000 C 
BRANCH  10  11
ATOM     11  C   UNL     1      10.887  11.881  17.754  0.00  0.00    +0.000 C 
BRANCH  11  15
ATOM     12  C   UNL     1      11.233  15.686  16.970  0.00  0.00    +0.000 C 
ATOM     13  C   UNL     1      11.148  14.398  17.740  0.00  0.00    +0.000 C 
ATOM     14  C   UNL     1      11.286  14.481  19.237  0.00  0.00    +0.000 C 
ATOM     15  C   UNL     1      10.945  13.232  17.097  0.00  0.00    +0.000 C 
ENDBRANCH  11  15
ENDBRANCH  10  11
ENDBRANCH   7  10
ENDBRANCH   6   9
ENDBRANCH   1   6
BRANCH   3  16
ATOM     16  C   UNL     1       5.892   4.342  18.430  0.00  0.00    +0.000 C 
BRANCH  16  17
ATOM     17  O   UNL     1       5.079   3.679  17.461  0.00  0.00    +0.000 OA
BRANCH  17  18
ATOM     18  C   UNL     1       3.791   3.373  17.812  0.00  0.00    +0.000 A 
ATOM     19  C   UNL     1       2.907   4.450  17.653  0.00  0.00    +0.000 A 
ATOM     20  C   UNL     1       1.555   4.326  17.978  0.00  0.00    +0.000 A 
ATOM     21  C   UNL     1       1.070   3.116  18.467  0.00  0.00    +0.000 A 
ATOM     22  C   UNL     1       1.934   2.034  18.624  0.00  0.00    +0.000 A 
ATOM     23  C   UNL     1       3.289   2.162  18.301  0.00  0.00    +0.000 A 
BRANCH  23  24
ATOM     24  O   UNL     1       4.098   1.074  18.485  0.00  0.00    +0.000 OA
ATOM     25  H   UNL     1       3.887   0.659  19.337  0.00  0.00    +0.000 HD
ENDBRANCH  23  24
ENDBRANCH  17  18
ENDBRANCH  16  17
ENDBRANCH   3  16
TORSDOF 9
ENDMDL
MODEL 7
REMARK VINA RESULT:      -7.2      5.200      8.701
REMARK  Name = 
REMARK  12 active torsions:
REMARK  status: ('A' for Active; 'I' for Inactive)
REMARK    1  A    between atoms: C_1  and  C_2
REMARK    2  A    between atoms: C_2  and  C_3
REMARK    3  A    between atoms: C_4  and  C_5
REMARK    4  A    between atoms: C_5  and  C_6
REMARK    5  A    between atoms: C_6  and  C_7
REMARK    6  A    between atoms: C_7  and  C_8
REMARK    7  A    between atoms: C_9  and  C_10
REMARK    8  A    between atoms: C_10  and  N_11
REMARK    9  A    between atoms: C_13  and  C_14
REMARK   10  A    between atoms: C_14  and  O_15
REMARK   11  A    between atoms: O_15  and  C_16
REMARK   12  A    between atoms: C_21  and  O_22
REMARK                            x       y       z     vdW  Elec       q    Type
REMARK                         _______ _______ _______ _____ _____    ______ ____
ROOT
ATOM      1  N   UNL     1       5.674   5.034  16.078  0.00  0.00    +0.000 N 
ATOM      2  C   UNL     1       5.205   4.805  17.338  0.00  0.00    +0.000 A 
ATOM      3  C   UNL     1       4.643   6.008  17.705  0.00  0.00    +0.000 A 
ATOM      4  N   UNL     1       4.783   6.900  16.669  0.00  0.00    +0.000 NA
ATOM      5  N   UNL     1       5.416   6.290  15.678  0.00  0.00    +0.000 NA
ENDROOT
BRANCH   1   6
ATOM      6  C   UNL     1       6.395   4.117  15.215  0.00  0.00    +0.000 C 
BRANCH   6   9
ATOM      7  C   UNL     1       6.962   4.461  12.747  0.00  0.00    +0.000 C 
ATOM      8  C   UNL     1       7.663   5.323  11.728  0.00  0.00    +0.000 C 
ATOM      9  C   UNL     1       7.023   4.827  14.045  0.00  0.00    +0.000 C 
BRANCH   7  10
ATOM     10  C   UNL     1       6.193   3.223  12.322  0.00  0.00    +0.000 C 
BRANCH  10  11
ATOM     11  C   UNL     1       4.669   3.327  12.261  0.00  0.00    +0.000 C 
BRANCH  11  15
ATOM     12  C   UNL     1       2.866   4.528   9.017  0.00  0.00    +0.000 C 
ATOM     13  C   UNL     1       3.280   3.659  10.172  0.00  0.00    +0.000 C 
ATOM     14  C   UNL     1       2.625   2.307  10.285  0.00  0.00    +0.000 C 
ATOM     15  C   UNL     1       4.209   4.087  11.048  0.00  0.00    +0.000 C 
ENDBRANCH  11  15
ENDBRANCH  10  11
ENDBRANCH   7  10
ENDBRANCH   6   9
ENDBRANCH   1   6
BRANCH   3  16
ATOM     16  C   UNL     1       3.943   6.389  18.960  0.00  0.00    +0.000 C 
BRANCH  16  17
ATOM     17  O   UNL     1       2.541   6.134  18.864  0.00  0.00    +0.000 OA
BRANCH  17  18
ATOM     18  C   UNL     1       2.072   4.953  19.374  0.00  0.00    +0.000 A 
ATOM     19  C   UNL     1       2.335   4.802  20.743  0.00  0.00    +0.000 A 
ATOM     20  C   UNL     1       1.944   3.650  21.429  0.00  0.00    +0.000 A 
ATOM     21  C   UNL     1       1.280   2.632  20.749  0.00  0.00    +0.000 A 
ATOM     22  C   UNL     1       1.005   2.770  19.390  0.00  0.00    +0.000 A 
ATOM     23  C   UNL     1       1.401   3.923  18.704  0.00  0.00    +0.000 A 
BRANCH  23  24
ATOM     24  O   UNL     1       1.119   4.005  17.368  0.00  0.00    +0.000 OA
ATOM     25  H   UNL     1       0.216   3.683  17.212  0.00  0.00    +0.000 HD
ENDBRANCH  23  24
ENDBRANCH  17  18
ENDBRANCH  16  17
ENDBRANCH   3  16
TORSDOF 9
ENDMDL
MODEL 8
REMARK VINA RESULT:      -7.0      5.023      8.622
REMARK  Name = 
REMARK  12 active torsions:
REMARK  status: ('A' for Active; 'I' for Inactive)
REMARK    1  A    between atoms: C_1  and  C_2
REMARK    2  A    between atoms: C_2  and  C_3
REMARK    3  A    between atoms: C_4  and  C_5
REMARK    4  A    between atoms: C_5  and  C_6
REMARK    5  A    between atoms: C_6  and  C_7
REMARK    6  A    between atoms: C_7  and  C_8
REMARK    7  A    between atoms: C_9  and  C_10
REMARK    8  A    between atoms: C_10  and  N_11
REMARK    9  A    between atoms: C_13  and  C_14
REMARK   10  A    between atoms: C_14  and  O_15
REMARK   11  A    between atoms: O_15  and  C_16
REMARK   12  A    between atoms: C_21  and  O_22
REMARK                            x       y       z     vdW  Elec       q    Type
REMARK                         _______ _______ _______ _____ _____    ______ ____
ROOT
ATOM      1  N   UNL     1       6.254   4.265  16.258  0.00  0.00    +0.000 N 
ATOM      2  C   UNL     1       5.237   4.233  17.165  0.00  0.00    +0.000 A 
ATOM      3  C   UNL     1       5.749   4.895  18.259  0.00  0.00    +0.000 A 
ATOM      4  N   UNL     1       7.030   5.303  17.975  0.00  0.00    +0.000 NA
ATOM      5  N   UNL     1       7.327   4.911  16.745  0.00  0.00    +0.000 NA
ENDROOT
BRANCH   1   6
ATOM      6  C   UNL     1       6.283   3.682  14.930  0.00  0.00    +0.000 C 
BRANCH   6   9
ATOM      7  C   UNL     1       6.968   4.434  12.585  0.00  0.00    +0.000 C 
ATOM      8  C   UNL     1       7.628   5.504  11.753  0.00  0.00    +0.000 C 
ATOM      9  C   UNL     1       6.899   4.616  13.922  0.00  0.00    +0.000 C 
BRANCH   7  10
ATOM     10  C   UNL     1       6.382   3.194  11.936  0.00  0.00    +0.000 C 
BRANCH  10  11
ATOM     11  C   UNL     1       4.858   3.070  11.903  0.00  0.00    +0.000 C 
BRANCH  11  15
ATOM     12  C   UNL     1       2.629   4.747   9.176  0.00  0.00    +0.000 C 
ATOM     13  C   UNL     1       3.189   3.713  10.113  0.00  0.00    +0.000 C 
ATOM     14  C   UNL     1       2.533   2.357  10.114  0.00  0.00    +0.000 C 
ATOM     15  C   UNL     1       4.242   4.005  10.900  0.00  0.00    +0.000 C 
ENDBRANCH  11  15
ENDBRANCH  10  11
ENDBRANCH   7  10
ENDBRANCH   6   9
ENDBRANCH   1   6
BRANCH   3  16
ATOM     16  C   UNL     1       5.112   5.212  19.565  0.00  0.00    +0.000 C 
BRANCH  16  17
ATOM     17  O   UNL     1       3.749   5.599  19.392  0.00  0.00    +0.000 OA
BRANCH  17  18
ATOM     18  C   UNL     1       2.782   4.689  19.728  0.00  0.00    +0.000 A 
ATOM     19  C   UNL     1       2.835   4.300  21.074  0.00  0.00    +0.000 A 
ATOM     20  C   UNL     1       1.936   3.366  21.590  0.00  0.00    +0.000 A 
ATOM     21  C   UNL     1       0.966   2.808  20.761  0.00  0.00    +0.000 A 
ATOM     22  C   UNL     1       0.895   3.189  19.423  0.00  0.00    +0.000 A 
ATOM     23  C   UNL     1       1.799   4.122  18.906  0.00  0.00    +0.000 A 
BRANCH  23  24
ATOM     24  O   UNL     1       1.695   4.453  17.583  0.00  0.00    +0.000 OA
ATOM     25  H   UNL     1       2.494   4.157  17.116  0.00  0.00    +0.000 HD
ENDBRANCH  23  24
ENDBRANCH  17  18
ENDBRANCH  16  17
ENDBRANCH   3  16
TORSDOF 9
ENDMDL
MODEL 9
REMARK VINA RESULT:      -7.0      4.548      6.438
REMARK  Name = 
REMARK  12 active torsions:
REMARK  status: ('A' for Active; 'I' for Inactive)
REMARK    1  A    between atoms: C_1  and  C_2
REMARK    2  A    between atoms: C_2  and  C_3
REMARK    3  A    between atoms: C_4  and  C_5
REMARK    4  A    between atoms: C_5  and  C_6
REMARK    5  A    between atoms: C_6  and  C_7
REMARK    6  A    between atoms: C_7  and  C_8
REMARK    7  A    between atoms: C_9  and  C_10
REMARK    8  A    between atoms: C_10  and  N_11
REMARK    9  A    between atoms: C_13  and  C_14
REMARK   10  A    between atoms: C_14  and  O_15
REMARK   11  A    between atoms: O_15  and  C_16
REMARK   12  A    between atoms: C_21  and  O_22
REMARK                            x       y       z     vdW  Elec       q    Type
REMARK                         _______ _______ _______ _____ _____    ______ ____
ROOT
ATOM      1  N   UNL     1       5.497   4.683  19.216  0.00  0.00    +0.000 N 
ATOM      2  C   UNL     1       5.564   4.780  17.858  0.00  0.00    +0.000 A 
ATOM      3  C   UNL     1       6.871   5.143  17.617  0.00  0.00    +0.000 A 
ATOM      4  N   UNL     1       7.536   5.240  18.815  0.00  0.00    +0.000 NA
ATOM      5  N   UNL     1       6.682   4.955  19.787  0.00  0.00    +0.000 NA
ENDROOT
BRANCH   1   6
ATOM      6  C   UNL     1       4.340   4.364  20.030  0.00  0.00    +0.000 C 
BRANCH   6   9
ATOM      7  C   UNL     1       2.129   5.503  20.620  0.00  0.00    +0.000 C 
ATOM      8  C   UNL     1       1.342   6.788  20.625  0.00  0.00    +0.000 C 
ATOM      9  C   UNL     1       3.385   5.525  20.125  0.00  0.00    +0.000 C 
BRANCH   7  10
ATOM     10  C   UNL     1       1.532   4.222  21.173  0.00  0.00    +0.000 C 
BRANCH  10  11
ATOM     11  C   UNL     1       0.672   3.380  20.228  0.00  0.00    +0.000 C 
BRANCH  11  15
ATOM     12  C   UNL     1       2.776   2.008  17.244  0.00  0.00    +0.000 C 
ATOM     13  C   UNL     1       1.894   2.909  18.063  0.00  0.00    +0.000 C 
ATOM     14  C   UNL     1       1.456   4.204  17.431  0.00  0.00    +0.000 C 
ATOM     15  C   UNL     1       1.513   2.546  19.303  0.00  0.00    +0.000 C 
ENDBRANCH  11  15
ENDBRANCH  10  11
ENDBRANCH   7  10
ENDBRANCH   6   9
ENDBRANCH   1   6
BRANCH   3  16
ATOM     16  C   UNL     1       7.572   5.379  16.326  0.00  0.00    +0.000 C 
BRANCH  16  17
ATOM     17  O   UNL     1       6.653   5.769  15.306  0.00  0.00    +0.000 OA
BRANCH  17  18
ATOM     18  C   UNL     1       6.646   5.043  14.145  0.00  0.00    +0.000 A 
ATOM     19  C   UNL     1       5.558   4.163  14.052  0.00  0.00    +0.000 A 
ATOM     20  C   UNL     1       5.397   3.330  12.943  0.00  0.00    +0.000 A 
ATOM     21  C   UNL     1       6.327   3.370  11.908  0.00  0.00    +0.000 A 
ATOM     22  C   UNL     1       7.410   4.244  11.981  0.00  0.00    +0.000 A 
ATOM     23  C   UNL     1       7.571   5.075  13.095  0.00  0.00    +0.000 A 
BRANCH  23  24
ATOM     24  O   UNL     1       8.657   5.906  13.124  0.00  0.00    +0.000 OA
ATOM     25  H   UNL     1       8.871   6.121  14.047  0.00  0.00    +0.000 HD
ENDBRANCH  23  24
ENDBRANCH  17  18
ENDBRANCH  16  17
ENDBRANCH   3  16
TORSDOF 9
ENDMDL
