MODEL 1
REMARK VINA RESULT:      -7.7      0.000      0.000
REMARK  Name = 
REMARK  6 active torsions:
REMARK  status: ('A' for Active; 'I' for Inactive)
REMARK    1  A    between atoms: N_2  and  C_4
REMARK    2  A    between atoms: C_7  and  N_8
REMARK    3  A    between atoms: N_8  and  C_9
REMARK    4  A    between atoms: C_9  and  N_11
REMARK    5  A    between atoms: N_11  and  C_12
REMARK    6  A    between atoms: C_16  and  C_17
REMARK                            x       y       z     vdW  Elec       q    Type
REMARK                         _______ _______ _______ _____ _____    ______ ____
ROOT
ATOM      1  C   UNL     1       2.676   4.551  20.095  0.00  0.00    +0.000 C 
ATOM      2  S   UNL     1       1.103   3.991  20.069  0.00  0.00    +0.000 S 
ENDROOT
BRANCH   1   3
ATOM      3  N   UNL     1       3.803   3.874  19.671  0.00  0.00    +0.000 N 
ATOM      4  H   UNL     1       4.164   3.220  20.361  0.00  0.00    +0.000 HD
BRANCH   3   8
ATOM      5  C   UNL     1       6.040   4.461  16.173  0.00  0.00    +0.000 A 
ATOM      6  C   UNL     1       4.731   3.972  16.100  0.00  0.00    +0.000 A 
ATOM      7  C   UNL     1       3.999   3.792  17.278  0.00  0.00    +0.000 A 
ATOM      8  C   UNL     1       4.583   4.060  18.522  0.00  0.00    +0.000 A 
ATOM      9  C   UNL     1       5.873   4.593  18.579  0.00  0.00    +0.000 A 
ATOM     10  C   UNL     1       6.606   4.796  17.408  0.00  0.00    +0.000 A 
BRANCH   5  12
ATOM     11  O   UNL     1       6.512   3.934  13.965  0.00  0.00    +0.000 OA
ATOM     12  N   UNL     1       6.829   4.621  14.946  0.00  0.00    +0.000 N 
ATOM     13  O   UNL     1       7.767   5.430  14.965  0.00  0.00    +0.000 OA
ENDBRANCH   5  12
ENDBRANCH   3   8
ENDBRANCH   1   3
BRANCH   1  14
ATOM     14  N   UNL     1       2.910   5.868  20.428  0.00  0.00    +0.000 N 
ATOM     15  H   UNL     1       3.552   6.024  21.200  0.00  0.00    +0.000 HD
BRANCH  14  16
ATOM     16  C   UNL     1       2.461   6.990  19.706  0.00  0.00    +0.000 A 
ATOM     17  C   UNL     1       2.812   7.182  18.366  0.00  0.00    +0.000 A 
ATOM     18  C   UNL     1       2.323   8.272  17.652  0.00  0.00    +0.000 A 
ATOM     19  C   UNL     1       1.468   9.175  18.275  0.00  0.00    +0.000 A 
ATOM     20  C   UNL     1       1.124   9.012  19.627  0.00  0.00    +0.000 A 
ATOM     21  C   UNL     1       1.660   7.930  20.351  0.00  0.00    +0.000 A 
BRANCH  20  22
ATOM     22  C   UNL     1       0.157   9.957  20.294  0.00  0.00    +0.000 C 
ATOM     23  F   UNL     1      -0.883  10.323  19.495  0.00  0.00    +0.000 F 
ATOM     24  F   UNL     1      -0.404   9.415  21.410  0.00  0.00    +0.000 F 
ATOM     25  F   UNL     1       0.749  11.114  20.696  0.00  0.00    +0.000 F 
ENDBRANCH  20  22
ENDBRANCH  14  16
ENDBRANCH   1  14
TORSDOF 6
ENDMDL
MODEL 2
REMARK VINA RESULT:      -7.6      0.564      1.393
REMARK  Name = 
REMARK  6 active torsions:
REMARK  status: ('A' for Active; 'I' for Inactive)
REMARK    1  A    between atoms: N_2  and  C_4
REMARK    2  A    between atoms: C_7  and  N_8
REMARK    3  A    between atoms: N_8  and  C_9
REMARK    4  A    between atoms: C_9  and  N_11
REMARK    5  A    between atoms: N_11  and  C_12
REMARK    6  A    between atoms: C_16  and  C_17
REMARK                            x       y       z     vdW  Elec       q    Type
REMARK                         _______ _______ _______ _____ _____    ______ ____
ROOT
ATOM      1  C   UNL     1       3.139   4.443  19.649  0.00  0.00    +0.000 C 
ATOM      2  S   UNL     1       1.757   3.569  19.310  0.00  0.00    +0.000 S 
ENDROOT
BRANCH   1   3
ATOM      3  N   UNL     1       4.429   4.131  19.271  0.00  0.00    +0.000 N 
ATOM      4  H   UNL     1       5.017   3.837  20.047  0.00  0.00    +0.000 HD
BRANCH   3   8
ATOM      5  C   UNL     1       6.443   4.594  15.622  0.00  0.00    +0.000 A 
ATOM      6  C   UNL     1       7.114   4.811  16.831  0.00  0.00    +0.000 A 
ATOM      7  C   UNL     1       6.426   4.642  18.037  0.00  0.00    +0.000 A 
ATOM      8  C   UNL     1       5.069   4.298  18.035  0.00  0.00    +0.000 A 
ATOM      9  C   UNL     1       4.423   4.038  16.824  0.00  0.00    +0.000 A 
ATOM     10  C   UNL     1       5.106   4.184  15.614  0.00  0.00    +0.000 A 
BRANCH   5  12
ATOM     11  O   UNL     1       6.787   4.123  13.378  0.00  0.00    +0.000 OA
ATOM     12  N   UNL     1       7.146   4.801  14.350  0.00  0.00    +0.000 N 
ATOM     13  O   UNL     1       8.057   5.641  14.325  0.00  0.00    +0.000 OA
ENDBRANCH   5  12
ENDBRANCH   3   8
ENDBRANCH   1   3
BRANCH   1  14
ATOM     14  N   UNL     1       3.015   5.684  20.237  0.00  0.00    +0.000 N 
ATOM     15  H   UNL     1       3.409   5.777  21.168  0.00  0.00    +0.000 HD
BRANCH  14  16
ATOM     16  C   UNL     1       2.533   6.847  19.607  0.00  0.00    +0.000 A 
ATOM     17  C   UNL     1       2.797   7.108  18.258  0.00  0.00    +0.000 A 
ATOM     18  C   UNL     1       2.276   8.239  17.638  0.00  0.00    +0.000 A 
ATOM     19  C   UNL     1       1.474   9.114  18.363  0.00  0.00    +0.000 A 
ATOM     20  C   UNL     1       1.217   8.881  19.724  0.00  0.00    +0.000 A 
ATOM     21  C   UNL     1       1.787   7.758  20.352  0.00  0.00    +0.000 A 
BRANCH  20  22
ATOM     22  C   UNL     1       0.308   9.797  20.503  0.00  0.00    +0.000 C 
ATOM     23  F   UNL     1       0.903  10.963  20.877  0.00  0.00    +0.000 F 
ATOM     24  F   UNL     1      -0.794  10.156  19.788  0.00  0.00    +0.000 F 
ATOM     25  F   UNL     1      -0.156   9.227  21.648  0.00  0.00    +0.000 F 
ENDBRANCH  20  22
ENDBRANCH  14  16
ENDBRANCH   1  14
TORSDOF 6
ENDMDL
MODEL 3
REMARK VINA RESULT:      -7.4      1.012      1.297
REMARK  Name = 
REMARK  6 active torsions:
REMARK  status: ('A' for Active; 'I' for Inactive)
REMARK    1  A    between atoms: N_2  and  C_4
REMARK    2  A    between atoms: C_7  and  N_8
REMARK    3  A    between atoms: N_8  and  C_9
REMARK    4  A    between atoms: C_9  and  N_11
REMARK    5  A    between atoms: N_11  and  C_12
REMARK    6  A    between atoms: C_16  and  C_17
REMARK                            x       y       z     vdW  Elec       q    Type
REMARK                         _______ _______ _______ _____ _____    ______ ____
ROOT
ATOM      1  C   UNL     1       3.273   5.129  19.624  0.00  0.00    +0.000 C 
ATOM      2  S   UNL     1       2.253   3.917  19.095  0.00  0.00    +0.000 S 
ENDROOT
BRANCH   1   3
ATOM      3  N   UNL     1       4.609   5.282  19.308  0.00  0.00    +0.000 N 
ATOM      4  H   UNL     1       5.168   5.636  20.079  0.00  0.00    +0.000 HD
BRANCH   3   8
ATOM      5  C   UNL     1       6.502   5.041  15.573  0.00  0.00    +0.000 A 
ATOM      6  C   UNL     1       5.243   5.642  15.689  0.00  0.00    +0.000 A 
ATOM      7  C   UNL     1       4.633   5.720  16.946  0.00  0.00    +0.000 A 
ATOM      8  C   UNL     1       5.257   5.167  18.071  0.00  0.00    +0.000 A 
ATOM      9  C   UNL     1       6.534   4.613  17.951  0.00  0.00    +0.000 A 
ATOM     10  C   UNL     1       7.162   4.548  16.704  0.00  0.00    +0.000 A 
BRANCH   5  12
ATOM     11  O   UNL     1       6.652   4.110  13.455  0.00  0.00    +0.000 OA
ATOM     12  N   UNL     1       7.136   4.923  14.255  0.00  0.00    +0.000 N 
ATOM     13  O   UNL     1       8.118   5.641  14.021  0.00  0.00    +0.000 OA
ENDBRANCH   5  12
ENDBRANCH   3   8
ENDBRANCH   1   3
BRANCH   1  14
ATOM     14  N   UNL     1       2.743   6.187  20.330  0.00  0.00    +0.000 N 
ATOM     15  H   UNL     1       2.847   6.145  21.339  0.00  0.00    +0.000 HD
BRANCH  14  16
ATOM     16  C   UNL     1       2.214   7.366  19.770  0.00  0.00    +0.000 A 
ATOM     17  C   UNL     1       2.424   7.691  18.426  0.00  0.00    +0.000 A 
ATOM     18  C   UNL     1       1.858   8.837  17.876  0.00  0.00    +0.000 A 
ATOM     19  C   UNL     1       1.066   9.662  18.668  0.00  0.00    +0.000 A 
ATOM     20  C   UNL     1       0.864   9.364  20.026  0.00  0.00    +0.000 A 
ATOM     21  C   UNL     1       1.479   8.227  20.582  0.00  0.00    +0.000 A 
BRANCH  20  22
ATOM     22  C   UNL     1      -0.035  10.225  20.876  0.00  0.00    +0.000 C 
ATOM     23  F   UNL     1       0.583  11.336  21.365  0.00  0.00    +0.000 F 
ATOM     24  F   UNL     1      -1.118  10.676  20.186  0.00  0.00    +0.000 F 
ATOM     25  F   UNL     1      -0.527   9.562  21.957  0.00  0.00    +0.000 F 
ENDBRANCH  20  22
ENDBRANCH  14  16
ENDBRANCH   1  14
TORSDOF 6
ENDMDL
MODEL 4
REMARK VINA RESULT:      -7.3      3.988      5.237
REMARK  Name = 
REMARK  6 active torsions:
REMARK  status: ('A' for Active; 'I' for Inactive)
REMARK    1  A    between atoms: N_2  and  C_4
REMARK    2  A    between atoms: C_7  and  N_8
REMARK    3  A    between atoms: N_8  and  C_9
REMARK    4  A    between atoms: C_9  and  N_11
REMARK    5  A    between atoms: N_11  and  C_12
REMARK    6  A    between atoms: C_16  and  C_17
REMARK                            x       y       z     vdW  Elec       q    Type
REMARK                         _______ _______ _______ _____ _____    ______ ____
ROOT
ATOM      1  C   UNL     1       6.998   6.304  16.834  0.00  0.00    +0.000 C 
ATOM      2  S   UNL     1       7.501   6.096  18.413  0.00  0.00    +0.000 S 
ENDROOT
BRANCH   1   3
ATOM      3  N   UNL     1       7.562   5.742  15.705  0.00  0.00    +0.000 N 
ATOM      4  H   UNL     1       8.517   6.046  15.537  0.00  0.00    +0.000 HD
BRANCH   3   8
ATOM      5  C   UNL     1       5.913   3.372  12.664  0.00  0.00    +0.000 A 
ATOM      6  C   UNL     1       6.990   4.223  12.390  0.00  0.00    +0.000 A 
ATOM      7  C   UNL     1       7.531   4.998  13.421  0.00  0.00    +0.000 A 
ATOM      8  C   UNL     1       6.975   4.954  14.706  0.00  0.00    +0.000 A 
ATOM      9  C   UNL     1       5.932   4.066  14.977  0.00  0.00    +0.000 A 
ATOM     10  C   UNL     1       5.397   3.272  13.960  0.00  0.00    +0.000 A 
BRANCH   5  12
ATOM     11  O   UNL     1       5.943   1.591  11.178  0.00  0.00    +0.000 OA
ATOM     12  N   UNL     1       5.315   2.580  11.582  0.00  0.00    +0.000 N 
ATOM     13  O   UNL     1       4.220   2.949  11.134  0.00  0.00    +0.000 OA
ENDBRANCH   5  12
ENDBRANCH   3   8
ENDBRANCH   1   3
BRANCH   1  14
ATOM     14  N   UNL     1       5.820   6.976  16.592  0.00  0.00    +0.000 N 
ATOM     15  H   UNL     1       5.838   7.647  15.830  0.00  0.00    +0.000 HD
BRANCH  14  16
ATOM     16  C   UNL     1       4.580   6.706  17.203  0.00  0.00    +0.000 A 
ATOM     17  C   UNL     1       3.783   7.734  17.719  0.00  0.00    +0.000 A 
ATOM     18  C   UNL     1       2.540   7.456  18.279  0.00  0.00    +0.000 A 
ATOM     19  C   UNL     1       2.079   6.144  18.315  0.00  0.00    +0.000 A 
ATOM     20  C   UNL     1       2.875   5.097  17.823  0.00  0.00    +0.000 A 
ATOM     21  C   UNL     1       4.150   5.385  17.300  0.00  0.00    +0.000 A 
BRANCH  20  22
ATOM     22  C   UNL     1       2.361   3.679  17.812  0.00  0.00    +0.000 C 
ATOM     23  F   UNL     1       1.014   3.590  17.993  0.00  0.00    +0.000 F 
ATOM     24  F   UNL     1       2.621   3.048  16.634  0.00  0.00    +0.000 F 
ATOM     25  F   UNL     1       2.924   2.910  18.783  0.00  0.00    +0.000 F 
ENDBRANCH  20  22
ENDBRANCH  14  16
ENDBRANCH   1  14
TORSDOF 6
ENDMDL
MODEL 5
REMARK VINA RESULT:      -7.3      4.813      6.667
REMARK  Name = 
REMARK  6 active torsions:
REMARK  status: ('A' for Active; 'I' for Inactive)
REMARK    1  A    between atoms: N_2  and  C_4
REMARK    2  A    between atoms: C_7  and  N_8
REMARK    3  A    between atoms: N_8  and  C_9
REMARK    4  A    between atoms: C_9  and  N_11
REMARK    5  A    between atoms: N_11  and  C_12
REMARK    6  A    between atoms: C_16  and  C_17
REMARK                            x       y       z     vdW  Elec       q    Type
REMARK                         _______ _______ _______ _____ _____    ______ ____
ROOT
ATOM      1  C   UNL     1       3.618   3.209  19.306  0.00  0.00    +0.000 C 
ATOM      2  S   UNL     1       3.377   1.704  18.621  0.00  0.00    +0.000 S 
ENDROOT
BRANCH   1   3
ATOM      3  N   UNL     1       2.649   4.053  19.809  0.00  0.00    +0.000 N 
ATOM      4  H   UNL     1       1.941   3.573  20.358  0.00  0.00    +0.000 HD
BRANCH   3   8
ATOM      5  C   UNL     1       1.931   8.094  18.944  0.00  0.00    +0.000 A 
ATOM      6  C   UNL     1       2.294   7.207  17.924  0.00  0.00    +0.000 A 
ATOM      7  C   UNL     1       2.520   5.862  18.233  0.00  0.00    +0.000 A 
ATOM      8  C   UNL     1       2.423   5.413  19.556  0.00  0.00    +0.000 A 
ATOM      9  C   UNL     1       2.014   6.297  20.557  0.00  0.00    +0.000 A 
ATOM     10  C   UNL     1       1.766   7.639  20.257  0.00  0.00    +0.000 A 
BRANCH   5  12
ATOM     11  O   UNL     1       1.116  10.200  19.470  0.00  0.00    +0.000 OA
ATOM     12  N   UNL     1       1.726   9.514  18.638  0.00  0.00    +0.000 N 
ATOM     13  O   UNL     1       2.171   9.943  17.563  0.00  0.00    +0.000 OA
ENDBRANCH   5  12
ENDBRANCH   3   8
ENDBRANCH   1   3
BRANCH   1  14
ATOM     14  N   UNL     1       4.907   3.632  19.550  0.00  0.00    +0.000 N 
ATOM     15  H   UNL     1       5.363   3.226  20.361  0.00  0.00    +0.000 HD
BRANCH  14  16
ATOM     16  C   UNL     1       5.679   4.447  18.699  0.00  0.00    +0.000 A 
ATOM     17  C   UNL     1       6.528   5.434  19.209  0.00  0.00    +0.000 A 
ATOM     18  C   UNL     1       7.318   6.201  18.359  0.00  0.00    +0.000 A 
ATOM     19  C   UNL     1       7.272   5.976  16.987  0.00  0.00    +0.000 A 
ATOM     20  C   UNL     1       6.408   5.005  16.454  0.00  0.00    +0.000 A 
ATOM     21  C   UNL     1       5.580   4.266  17.321  0.00  0.00    +0.000 A 
BRANCH  20  22
ATOM     22  C   UNL     1       6.390   4.720  14.974  0.00  0.00    +0.000 C 
ATOM     23  F   UNL     1       6.426   3.392  14.676  0.00  0.00    +0.000 F 
ATOM     24  F   UNL     1       5.270   5.205  14.371  0.00  0.00    +0.000 F 
ATOM     25  F   UNL     1       7.442   5.282  14.319  0.00  0.00    +0.000 F 
ENDBRANCH  20  22
ENDBRANCH  14  16
ENDBRANCH   1  14
TORSDOF 6
ENDMDL
MODEL 6
REMARK VINA RESULT:      -7.3      1.104      1.650
REMARK  Name = 
REMARK  6 active torsions:
REMARK  status: ('A' for Active; 'I' for Inactive)
REMARK    1  A    between atoms: N_2  and  C_4
REMARK    2  A    between atoms: C_7  and  N_8
REMARK    3  A    between atoms: N_8  and  C_9
REMARK    4  A    between atoms: C_9  and  N_11
REMARK    5  A    between atoms: N_11  and  C_12
REMARK    6  A    between atoms: C_16  and  C_17
REMARK                            x       y       z     vdW  Elec       q    Type
REMARK                         _______ _______ _______ _____ _____    ______ ____
ROOT
ATOM      1  C   UNL     1       3.358   4.549  19.082  0.00  0.00    +0.000 C 
ATOM      2  S   UNL     1       1.806   4.026  18.752  0.00  0.00    +0.000 S 
ENDROOT
BRANCH   1   3
ATOM      3  N   UNL     1       4.534   3.978  18.640  0.00  0.00    +0.000 N 
ATOM      4  H   UNL     1       4.972   3.372  19.328  0.00  0.00    +0.000 HD
BRANCH   3   8
ATOM      5  C   UNL     1       6.631   4.755  15.092  0.00  0.00    +0.000 A 
ATOM      6  C   UNL     1       5.282   4.385  15.048  0.00  0.00    +0.000 A 
ATOM      7  C   UNL     1       4.599   4.140  16.244  0.00  0.00    +0.000 A 
ATOM      8  C   UNL     1       5.268   4.224  17.471  0.00  0.00    +0.000 A 
ATOM      9  C   UNL     1       6.601   4.640  17.505  0.00  0.00    +0.000 A 
ATOM     10  C   UNL     1       7.288   4.908  16.318  0.00  0.00    +0.000 A 
BRANCH   5  12
ATOM     11  O   UNL     1       8.368   5.710  13.888  0.00  0.00    +0.000 OA
ATOM     12  N   UNL     1       7.367   4.982  13.843  0.00  0.00    +0.000 N 
ATOM     13  O   UNL     1       6.941   4.434  12.815  0.00  0.00    +0.000 OA
ENDBRANCH   5  12
ENDBRANCH   3   8
ENDBRANCH   1   3
BRANCH   1  14
ATOM     14  N   UNL     1       3.532   5.750  19.736  0.00  0.00    +0.000 N 
ATOM     15  H   UNL     1       4.346   5.814  20.339  0.00  0.00    +0.000 HD
BRANCH  14  16
ATOM     16  C   UNL     1       2.775   6.918  19.523  0.00  0.00    +0.000 A 
ATOM     17  C   UNL     1       2.807   7.594  18.298  0.00  0.00    +0.000 A 
ATOM     18  C   UNL     1       2.019   8.721  18.087  0.00  0.00    +0.000 A 
ATOM     19  C   UNL     1       1.182   9.175  19.102  0.00  0.00    +0.000 A 
ATOM     20  C   UNL     1       1.155   8.525  20.346  0.00  0.00    +0.000 A 
ATOM     21  C   UNL     1       1.990   7.412  20.562  0.00  0.00    +0.000 A 
BRANCH  20  22
ATOM     22  C   UNL     1       0.214   8.981  21.432  0.00  0.00    +0.000 C 
ATOM     23  F   UNL     1       0.816   9.130  22.645  0.00  0.00    +0.000 F 
ATOM     24  F   UNL     1      -0.353  10.185  21.148  0.00  0.00    +0.000 F 
ATOM     25  F   UNL     1      -0.819   8.117  21.628  0.00  0.00    +0.000 F 
ENDBRANCH  20  22
ENDBRANCH  14  16
ENDBRANCH   1  14
TORSDOF 6
ENDMDL
MODEL 7
REMARK VINA RESULT:      -7.3      5.115      7.276
REMARK  Name = 
REMARK  6 active torsions:
REMARK  status: ('A' for Active; 'I' for Inactive)
REMARK    1  A    between atoms: N_2  and  C_4
REMARK    2  A    between atoms: C_7  and  N_8
REMARK    3  A    between atoms: N_8  and  C_9
REMARK    4  A    between atoms: C_9  and  N_11
REMARK    5  A    between atoms: N_11  and  C_12
REMARK    6  A    between atoms: C_16  and  C_17
REMARK                            x       y       z     vdW  Elec       q    Type
REMARK                         _______ _______ _______ _____ _____    ______ ____
ROOT
ATOM      1  C   UNL     1       2.860   4.870  19.641  0.00  0.00    +0.000 C 
ATOM      2  S   UNL     1       1.432   4.012  19.514  0.00  0.00    +0.000 S 
ENDROOT
BRANCH   1   3
ATOM      3  N   UNL     1       3.005   6.177  20.062  0.00  0.00    +0.000 N 
ATOM      4  H   UNL     1       3.651   6.281  20.840  0.00  0.00    +0.000 HD
BRANCH   3   8
ATOM      5  C   UNL     1       0.908   9.659  19.033  0.00  0.00    +0.000 A 
ATOM      6  C   UNL     1       0.825   9.143  20.331  0.00  0.00    +0.000 A 
ATOM      7  C   UNL     1       1.540   7.985  20.656  0.00  0.00    +0.000 A 
ATOM      8  C   UNL     1       2.299   7.326  19.681  0.00  0.00    +0.000 A 
ATOM      9  C   UNL     1       2.412   7.877  18.403  0.00  0.00    +0.000 A 
ATOM     10  C   UNL     1       1.719   9.044  18.073  0.00  0.00    +0.000 A 
BRANCH   5  12
ATOM     11  O   UNL     1       0.746  11.927  18.574  0.00  0.00    +0.000 OA
ATOM     12  N   UNL     1       0.135  10.853  18.672  0.00  0.00    +0.000 N 
ATOM     13  O   UNL     1      -1.084  10.719  18.489  0.00  0.00    +0.000 OA
ENDBRANCH   5  12
ENDBRANCH   3   8
ENDBRANCH   1   3
BRANCH   1  14
ATOM     14  N   UNL     1       4.054   4.206  19.460  0.00  0.00    +0.000 N 
ATOM     15  H   UNL     1       4.093   3.254  19.811  0.00  0.00    +0.000 HD
BRANCH  14  16
ATOM     16  C   UNL     1       5.150   4.677  18.711  0.00  0.00    +0.000 A 
ATOM     17  C   UNL     1       6.245   5.291  19.328  0.00  0.00    +0.000 A 
ATOM     18  C   UNL     1       7.340   5.710  18.579  0.00  0.00    +0.000 A 
ATOM     19  C   UNL     1       7.351   5.507  17.203  0.00  0.00    +0.000 A 
ATOM     20  C   UNL     1       6.250   4.915  16.562  0.00  0.00    +0.000 A 
ATOM     21  C   UNL     1       5.129   4.536  17.325  0.00  0.00    +0.000 A 
BRANCH  20  22
ATOM     22  C   UNL     1       6.276   4.646  15.079  0.00  0.00    +0.000 C 
ATOM     23  F   UNL     1       5.273   5.266  14.398  0.00  0.00    +0.000 F 
ATOM     24  F   UNL     1       7.434   5.069  14.501  0.00  0.00    +0.000 F 
ATOM     25  F   UNL     1       6.170   3.322  14.784  0.00  0.00    +0.000 F 
ENDBRANCH  20  22
ENDBRANCH  14  16
ENDBRANCH   1  14
TORSDOF 6
ENDMDL
MODEL 8
REMARK VINA RESULT:      -7.3      4.845      6.803
REMARK  Name = 
REMARK  6 active torsions:
REMARK  status: ('A' for Active; 'I' for Inactive)
REMARK    1  A    between atoms: N_2  and  C_4
REMARK    2  A    between atoms: C_7  and  N_8
REMARK    3  A    between atoms: N_8  and  C_9
REMARK    4  A    between atoms: C_9  and  N_11
REMARK    5  A    between atoms: N_11  and  C_12
REMARK    6  A    between atoms: C_16  and  C_17
REMARK                            x       y       z     vdW  Elec       q    Type
REMARK                         _______ _______ _______ _____ _____    ______ ____
ROOT
ATOM      1  C   UNL     1       2.988   3.687  19.453  0.00  0.00    +0.000 C 
ATOM      2  S   UNL     1       1.923   2.519  18.911  0.00  0.00    +0.000 S 
ENDROOT
BRANCH   1   3
ATOM      3  N   UNL     1       2.671   4.834  20.152  0.00  0.00    +0.000 N 
ATOM      4  H   UNL     1       2.543   4.677  21.149  0.00  0.00    +0.000 HD
BRANCH   3   8
ATOM      5  C   UNL     1       1.775   8.717  18.847  0.00  0.00    +0.000 A 
ATOM      6  C   UNL     1       1.515   8.340  20.169  0.00  0.00    +0.000 A 
ATOM      7  C   UNL     1       1.830   7.042  20.586  0.00  0.00    +0.000 A 
ATOM      8  C   UNL     1       2.363   6.117  19.680  0.00  0.00    +0.000 A 
ATOM      9  C   UNL     1       2.662   6.520  18.377  0.00  0.00    +0.000 A 
ATOM     10  C   UNL     1       2.371   7.820  17.954  0.00  0.00    +0.000 A 
BRANCH   5  12
ATOM     11  O   UNL     1       0.331  10.530  18.762  0.00  0.00    +0.000 OA
ATOM     12  N   UNL     1       1.417  10.065  18.389  0.00  0.00    +0.000 N 
ATOM     13  O   UNL     1       2.220  10.657  17.653  0.00  0.00    +0.000 OA
ENDBRANCH   5  12
ENDBRANCH   3   8
ENDBRANCH   1   3
BRANCH   1  14
ATOM     14  N   UNL     1       4.342   3.455  19.345  0.00  0.00    +0.000 N 
ATOM     15  H   UNL     1       4.678   2.584  19.744  0.00  0.00    +0.000 HD
BRANCH  14  16
ATOM     16  C   UNL     1       5.253   4.239  18.610  0.00  0.00    +0.000 A 
ATOM     17  C   UNL     1       6.130   5.125  19.246  0.00  0.00    +0.000 A 
ATOM     18  C   UNL     1       7.055   5.859  18.510  0.00  0.00    +0.000 A 
ATOM     19  C   UNL     1       7.117   5.702  17.129  0.00  0.00    +0.000 A 
ATOM     20  C   UNL     1       6.229   4.835  16.471  0.00  0.00    +0.000 A 
ATOM     21  C   UNL     1       5.267   4.131  17.222  0.00  0.00    +0.000 A 
BRANCH  20  22
ATOM     22  C   UNL     1       6.324   4.621  14.982  0.00  0.00    +0.000 C 
ATOM     23  F   UNL     1       7.462   5.130  14.433  0.00  0.00    +0.000 F 
ATOM     24  F   UNL     1       6.310   3.301  14.651  0.00  0.00    +0.000 F 
ATOM     25  F   UNL     1       5.291   5.189  14.304  0.00  0.00    +0.000 F 
ENDBRANCH  20  22
ENDBRANCH  14  16
ENDBRANCH   1  14
TORSDOF 6
ENDMDL
MODEL 9
REMARK VINA RESULT:      -7.2      1.325      1.689
REMARK  Name = 
REMARK  6 active torsions:
REMARK  status: ('A' for Active; 'I' for Inactive)
REMARK    1  A    between atoms: N_2  and  C_4
REMARK    2  A    between atoms: C_7  and  N_8
REMARK    3  A    between atoms: N_8  and  C_9
REMARK    4  A    between atoms: C_9  and  N_11
REMARK    5  A    between atoms: N_11  and  C_12
REMARK    6  A    between atoms: C_16  and  C_17
REMARK                            x       y       z     vdW  Elec       q    Type
REMARK                         _______ _______ _______ _____ _____    ______ ____
ROOT
ATOM      1  C   UNL     1       2.566   3.463  20.198  0.00  0.00    +0.000 C 
ATOM      2  S   UNL     1       2.011   2.954  21.689  0.00  0.00    +0.000 S 
ENDROOT
BRANCH   1   3
ATOM      3  N   UNL     1       3.703   3.029  19.546  0.00  0.00    +0.000 N 
ATOM      4  H   UNL     1       3.968   2.077  19.787  0.00  0.00    +0.000 HD
BRANCH   3   8
ATOM      5  C   UNL     1       6.314   5.151  17.043  0.00  0.00    +0.000 A 
ATOM      6  C   UNL     1       5.437   4.202  16.506  0.00  0.00    +0.000 A 
ATOM      7  C   UNL     1       4.568   3.512  17.358  0.00  0.00    +0.000 A 
ATOM      8  C   UNL     1       4.602   3.739  18.739  0.00  0.00    +0.000 A 
ATOM      9  C   UNL     1       5.448   4.722  19.257  0.00  0.00    +0.000 A 
ATOM     10  C   UNL     1       6.305   5.433  18.414  0.00  0.00    +0.000 A 
BRANCH   5  12
ATOM     11  O   UNL     1       7.683   6.955  16.543  0.00  0.00    +0.000 OA
ATOM     12  N   UNL     1       7.253   5.856  16.164  0.00  0.00    +0.000 N 
ATOM     13  O   UNL     1       7.560   5.313  15.092  0.00  0.00    +0.000 OA
ENDBRANCH   5  12
ENDBRANCH   3   8
ENDBRANCH   1   3
BRANCH   1  14
ATOM     14  N   UNL     1       1.769   4.291  19.437  0.00  0.00    +0.000 N 
ATOM     15  H   UNL     1       0.959   3.857  19.007  0.00  0.00    +0.000 HD
BRANCH  14  16
ATOM     16  C   UNL     1       1.900   5.690  19.334  0.00  0.00    +0.000 A 
ATOM     17  C   UNL     1       2.418   6.290  18.181  0.00  0.00    +0.000 A 
ATOM     18  C   UNL     1       2.499   7.675  18.076  0.00  0.00    +0.000 A 
ATOM     19  C   UNL     1       2.050   8.472  19.124  0.00  0.00    +0.000 A 
ATOM     20  C   UNL     1       1.550   7.887  20.299  0.00  0.00    +0.000 A 
ATOM     21  C   UNL     1       1.514   6.484  20.411  0.00  0.00    +0.000 A 
BRANCH  20  22
ATOM     22  C   UNL     1       1.015   8.745  21.418  0.00  0.00    +0.000 C 
ATOM     23  F   UNL     1       0.760  10.029  21.043  0.00  0.00    +0.000 F 
ATOM     24  F   UNL     1      -0.157   8.264  21.917  0.00  0.00    +0.000 F 
ATOM     25  F   UNL     1       1.869   8.822  22.474  0.00  0.00    +0.000 F 
ENDBRANCH  20  22
ENDBRANCH  14  16
ENDBRANCH   1  14
TORSDOF 6
ENDMDL
