MODEL 1
REMARK VINA RESULT:      -7.7      0.000      0.000
REMARK  Name = 
REMARK  8 active torsions:
REMARK  status: ('A' for Active; 'I' for Inactive)
REMARK    1  A    between atoms: C_1  and  O_2
REMARK    2  A    between atoms: O_2  and  C_3
REMARK    3  A    between atoms: C_6  and  N_7
REMARK    4  A    between atoms: C_8  and  C_10
REMARK    5  A    between atoms: C_10  and  S_11
REMARK    6  A    between atoms: S_11  and  C_12
REMARK    7  A    between atoms: C_14  and  O_15
REMARK    8  A    between atoms: N_19  and  C_20
REMARK                            x       y       z     vdW  Elec       q    Type
REMARK                         _______ _______ _______ _____ _____    ______ ____
ROOT
ATOM      1  N   UNL     1       2.895   6.268  19.679  0.00  0.00    +0.000 N 
ATOM      2  C   UNL     1       2.569   5.136  18.934  0.00  0.00    +0.000 C 
ATOM      3  O   UNL     1       1.681   5.073  18.089  0.00  0.00    +0.000 OA
ATOM      4  H   UNL     1       3.775   6.261  20.182  0.00  0.00    +0.000 HD
ENDROOT
BRANCH   1   8
ATOM      5  C   UNL     1       0.646   9.852  19.627  0.00  0.00    +0.000 A 
ATOM      6  C   UNL     1       0.700   9.077  20.781  0.00  0.00    +0.000 A 
ATOM      7  C   UNL     1       1.457   7.906  20.810  0.00  0.00    +0.000 A 
ATOM      8  C   UNL     1       2.153   7.467  19.681  0.00  0.00    +0.000 A 
ATOM      9  C   UNL     1       2.119   8.260  18.529  0.00  0.00    +0.000 A 
ATOM     10  C   UNL     1       1.354   9.439  18.498  0.00  0.00    +0.000 A 
BRANCH   5  12
ATOM     11  C   UNL     1      -0.779  11.364  18.504  0.00  0.00    +0.000 C 
ATOM     12  O   UNL     1      -0.151  10.960  19.713  0.00  0.00    +0.000 OA
ENDBRANCH   5  12
ENDBRANCH   1   8
BRANCH   2  13
ATOM     13  C   UNL     1       3.492   3.950  19.132  0.00  0.00    +0.000 C 
BRANCH  13  14
ATOM     14  S   UNL     1       4.647   3.747  17.755  0.00  0.00    +0.000 S 
BRANCH  14  15
ATOM     15  C   UNL     1       5.939   4.872  18.178  0.00  0.00    +0.000 A 
ATOM     16  N   UNL     1       6.585   4.703  19.284  0.00  0.00    +0.000 NA
ATOM     17  C   UNL     1       7.587   5.572  19.564  0.00  0.00    +0.000 A 
ATOM     18  C   UNL     1       7.964   6.577  18.777  0.00  0.00    +0.000 A 
ATOM     19  C   UNL     1       7.230   6.777  17.524  0.00  0.00    +0.000 A 
ATOM     20  O   UNL     1       7.569   7.690  16.776  0.00  0.00    +0.000 OA
ATOM     21  N   UNL     1       6.198   5.890  17.277  0.00  0.00    +0.000 N 
ATOM     22  C   UNL     1       5.451   6.061  16.038  0.00  0.00    +0.000 C 
BRANCH  17  23
ATOM     23  O   UNL     1       8.252   5.354  20.742  0.00  0.00    +0.000 OA
ATOM     24  H   UNL     1       8.776   6.172  20.847  0.00  0.00    +0.000 HD
ENDBRANCH  17  23
ENDBRANCH  14  15
ENDBRANCH  13  14
ENDBRANCH   2  13
TORSDOF 6
ENDMDL
MODEL 2
REMARK VINA RESULT:      -7.7      0.865      1.337
REMARK  Name = 
REMARK  8 active torsions:
REMARK  status: ('A' for Active; 'I' for Inactive)
REMARK    1  A    between atoms: C_1  and  O_2
REMARK    2  A    between atoms: O_2  and  C_3
REMARK    3  A    between atoms: C_6  and  N_7
REMARK    4  A    between atoms: C_8  and  C_10
REMARK    5  A    between atoms: C_10  and  S_11
REMARK    6  A    between atoms: S_11  and  C_12
REMARK    7  A    between atoms: C_14  and  O_15
REMARK    8  A    between atoms: N_19  and  C_20
REMARK                            x       y       z     vdW  Elec       q    Type
REMARK                         _______ _______ _______ _____ _____    ______ ____
ROOT
ATOM      1  N   UNL     1       3.036   6.014  19.586  0.00  0.00    +0.000 N 
ATOM      2  C   UNL     1       2.453   4.767  19.802  0.00  0.00    +0.000 C 
ATOM      3  O   UNL     1       1.247   4.539  19.822  0.00  0.00    +0.000 OA
ATOM      4  H   UNL     1       4.027   6.039  19.380  0.00  0.00    +0.000 HD
ENDROOT
BRANCH   1   8
ATOM      5  C   UNL     1       0.925   9.678  19.403  0.00  0.00    +0.000 A 
ATOM      6  C   UNL     1       1.477   9.131  18.250  0.00  0.00    +0.000 A 
ATOM      7  C   UNL     1       2.155   7.913  18.301  0.00  0.00    +0.000 A 
ATOM      8  C   UNL     1       2.323   7.228  19.508  0.00  0.00    +0.000 A 
ATOM      9  C   UNL     1       1.746   7.768  20.663  0.00  0.00    +0.000 A 
ATOM     10  C   UNL     1       1.065   8.996  20.613  0.00  0.00    +0.000 A 
BRANCH   5  12
ATOM     11  C   UNL     1      -0.772  10.904  18.310  0.00  0.00    +0.000 C 
ATOM     12  O   UNL     1       0.310  10.887  19.231  0.00  0.00    +0.000 OA
ENDBRANCH   5  12
ENDBRANCH   1   8
BRANCH   2  13
ATOM     13  C   UNL     1       3.429   3.611  19.895  0.00  0.00    +0.000 C 
BRANCH  13  14
ATOM     14  S   UNL     1       4.213   3.251  18.306  0.00  0.00    +0.000 S 
BRANCH  14  15
ATOM     15  C   UNL     1       5.594   4.350  18.310  0.00  0.00    +0.000 A 
ATOM     16  N   UNL     1       6.207   4.586  19.422  0.00  0.00    +0.000 NA
ATOM     17  C   UNL     1       7.279   5.416  19.382  0.00  0.00    +0.000 A 
ATOM     18  C   UNL     1       7.754   5.992  18.281  0.00  0.00    +0.000 A 
ATOM     19  C   UNL     1       7.058   5.731  17.017  0.00  0.00    +0.000 A 
ATOM     20  O   UNL     1       7.488   6.241  15.986  0.00  0.00    +0.000 OA
ATOM     21  N   UNL     1       5.955   4.901  17.092  0.00  0.00    +0.000 N 
ATOM     22  C   UNL     1       5.244   4.619  15.853  0.00  0.00    +0.000 C 
BRANCH  17  23
ATOM     23  O   UNL     1       7.906   5.636  20.581  0.00  0.00    +0.000 OA
ATOM     24  H   UNL     1       8.827   5.372  20.393  0.00  0.00    +0.000 HD
ENDBRANCH  17  23
ENDBRANCH  14  15
ENDBRANCH  13  14
ENDBRANCH   2  13
TORSDOF 6
ENDMDL
MODEL 3
REMARK VINA RESULT:      -7.3      1.687      1.975
REMARK  Name = 
REMARK  8 active torsions:
REMARK  status: ('A' for Active; 'I' for Inactive)
REMARK    1  A    between atoms: C_1  and  O_2
REMARK    2  A    between atoms: O_2  and  C_3
REMARK    3  A    between atoms: C_6  and  N_7
REMARK    4  A    between atoms: C_8  and  C_10
REMARK    5  A    between atoms: C_10  and  S_11
REMARK    6  A    between atoms: S_11  and  C_12
REMARK    7  A    between atoms: C_14  and  O_15
REMARK    8  A    between atoms: N_19  and  C_20
REMARK                            x       y       z     vdW  Elec       q    Type
REMARK                         _______ _______ _______ _____ _____    ______ ____
ROOT
ATOM      1  N   UNL     1       2.746   5.725  20.345  0.00  0.00    +0.000 N 
ATOM      2  C   UNL     1       1.963   4.587  20.530  0.00  0.00    +0.000 C 
ATOM      3  O   UNL     1       0.786   4.473  20.200  0.00  0.00    +0.000 OA
ATOM      4  H   UNL     1       3.748   5.628  20.459  0.00  0.00    +0.000 HD
ENDROOT
BRANCH   1   8
ATOM      5  C   UNL     1       1.267   9.425  18.918  0.00  0.00    +0.000 A 
ATOM      6  C   UNL     1       1.053   9.049  20.240  0.00  0.00    +0.000 A 
ATOM      7  C   UNL     1       1.557   7.840  20.722  0.00  0.00    +0.000 A 
ATOM      8  C   UNL     1       2.260   6.967  19.888  0.00  0.00    +0.000 A 
ATOM      9  C   UNL     1       2.496   7.357  18.565  0.00  0.00    +0.000 A 
ATOM     10  C   UNL     1       1.987   8.573  18.078  0.00  0.00    +0.000 A 
BRANCH   5  12
ATOM     11  C   UNL     1       1.491  11.773  18.800  0.00  0.00    +0.000 C 
ATOM     12  O   UNL     1       0.701  10.616  18.558  0.00  0.00    +0.000 OA
ENDBRANCH   5  12
ENDBRANCH   1   8
BRANCH   2  13
ATOM     13  C   UNL     1       2.702   3.381  21.076  0.00  0.00    +0.000 C 
BRANCH  13  14
ATOM     14  S   UNL     1       3.563   2.464  19.777  0.00  0.00    +0.000 S 
BRANCH  14  15
ATOM     15  C   UNL     1       4.605   3.700  19.070  0.00  0.00    +0.000 A 
ATOM     16  N   UNL     1       5.602   4.151  19.756  0.00  0.00    +0.000 NA
ATOM     17  C   UNL     1       6.395   5.083  19.171  0.00  0.00    +0.000 A 
ATOM     18  C   UNL     1       6.231   5.554  17.938  0.00  0.00    +0.000 A 
ATOM     19  C   UNL     1       5.097   5.049  17.157  0.00  0.00    +0.000 A 
ATOM     20  O   UNL     1       4.936   5.460  16.011  0.00  0.00    +0.000 OA
ATOM     21  N   UNL     1       4.293   4.118  17.788  0.00  0.00    +0.000 N 
ATOM     22  C   UNL     1       3.159   3.595  17.037  0.00  0.00    +0.000 C 
BRANCH  17  23
ATOM     23  O   UNL     1       7.445   5.531  19.930  0.00  0.00    +0.000 OA
ATOM     24  H   UNL     1       7.235   6.477  20.050  0.00  0.00    +0.000 HD
ENDBRANCH  17  23
ENDBRANCH  14  15
ENDBRANCH  13  14
ENDBRANCH   2  13
TORSDOF 6
ENDMDL
MODEL 4
REMARK VINA RESULT:      -7.0      1.407      1.999
REMARK  Name = 
REMARK  8 active torsions:
REMARK  status: ('A' for Active; 'I' for Inactive)
REMARK    1  A    between atoms: C_1  and  O_2
REMARK    2  A    between atoms: O_2  and  C_3
REMARK    3  A    between atoms: C_6  and  N_7
REMARK    4  A    between atoms: C_8  and  C_10
REMARK    5  A    between atoms: C_10  and  S_11
REMARK    6  A    between atoms: S_11  and  C_12
REMARK    7  A    between atoms: C_14  and  O_15
REMARK    8  A    between atoms: N_19  and  C_20
REMARK                            x       y       z     vdW  Elec       q    Type
REMARK                         _______ _______ _______ _____ _____    ______ ____
ROOT
ATOM      1  N   UNL     1       1.673   7.412  20.959  0.00  0.00    +0.000 N 
ATOM      2  C   UNL     1       2.364   6.963  19.835  0.00  0.00    +0.000 C 
ATOM      3  O   UNL     1       2.543   7.608  18.805  0.00  0.00    +0.000 OA
ATOM      4  H   UNL     1       1.776   6.880  21.815  0.00  0.00    +0.000 HD
ENDROOT
BRANCH   1   8
ATOM      5  C   UNL     1      -0.476  11.049  21.207  0.00  0.00    +0.000 A 
ATOM      6  C   UNL     1       0.014  10.608  19.982  0.00  0.00    +0.000 A 
ATOM      7  C   UNL     1       0.705   9.399  19.891  0.00  0.00    +0.000 A 
ATOM      8  C   UNL     1       0.947   8.618  21.024  0.00  0.00    +0.000 A 
ATOM      9  C   UNL     1       0.432   9.050  22.251  0.00  0.00    +0.000 A 
ATOM     10  C   UNL     1      -0.262  10.269  22.344  0.00  0.00    +0.000 A 
BRANCH   5  12
ATOM     11  C   UNL     1      -2.036  12.443  20.110  0.00  0.00    +0.000 C 
ATOM     12  O   UNL     1      -1.110  12.260  21.173  0.00  0.00    +0.000 OA
ENDBRANCH   5  12
ENDBRANCH   1   8
BRANCH   2  13
ATOM     13  C   UNL     1       3.032   5.611  19.990  0.00  0.00    +0.000 C 
BRANCH  13  14
ATOM     14  S   UNL     1       3.745   5.021  18.436  0.00  0.00    +0.000 S 
BRANCH  14  15
ATOM     15  C   UNL     1       5.424   5.547  18.568  0.00  0.00    +0.000 A 
ATOM     16  N   UNL     1       6.099   5.239  19.625  0.00  0.00    +0.000 NA
ATOM     17  C   UNL     1       7.394   5.640  19.680  0.00  0.00    +0.000 A 
ATOM     18  C   UNL     1       8.023   6.312  18.720  0.00  0.00    +0.000 A 
ATOM     19  C   UNL     1       7.259   6.669  17.521  0.00  0.00    +0.000 A 
ATOM     20  O   UNL     1       7.824   7.278  16.616  0.00  0.00    +0.000 OA
ATOM     21  N   UNL     1       5.936   6.269  17.503  0.00  0.00    +0.000 N 
ATOM     22  C   UNL     1       5.150   6.606  16.323  0.00  0.00    +0.000 C 
BRANCH  17  23
ATOM     23  O   UNL     1       8.078   5.287  20.815  0.00  0.00    +0.000 OA
ATOM     24  H   UNL     1       7.579   5.747  21.517  0.00  0.00    +0.000 HD
ENDBRANCH  17  23
ENDBRANCH  14  15
ENDBRANCH  13  14
ENDBRANCH   2  13
TORSDOF 6
ENDMDL
MODEL 5
REMARK VINA RESULT:      -7.0      2.036      2.412
REMARK  Name = 
REMARK  8 active torsions:
REMARK  status: ('A' for Active; 'I' for Inactive)
REMARK    1  A    between atoms: C_1  and  O_2
REMARK    2  A    between atoms: O_2  and  C_3
REMARK    3  A    between atoms: C_6  and  N_7
REMARK    4  A    between atoms: C_8  and  C_10
REMARK    5  A    between atoms: C_10  and  S_11
REMARK    6  A    between atoms: S_11  and  C_12
REMARK    7  A    between atoms: C_14  and  O_15
REMARK    8  A    between atoms: N_19  and  C_20
REMARK                            x       y       z     vdW  Elec       q    Type
REMARK                         _______ _______ _______ _____ _____    ______ ____
ROOT
ATOM      1  N   UNL     1       1.791   8.342  19.484  0.00  0.00    +0.000 N 
ATOM      2  C   UNL     1       2.124   6.994  19.603  0.00  0.00    +0.000 C 
ATOM      3  O   UNL     1       1.678   6.223  20.447  0.00  0.00    +0.000 OA
ATOM      4  H   UNL     1       2.054   8.816  18.628  0.00  0.00    +0.000 HD
ENDROOT
BRANCH   1   8
ATOM      5  C   UNL     1      -0.616  10.479  22.232  0.00  0.00    +0.000 A 
ATOM      6  C   UNL     1       0.354   9.596  22.692  0.00  0.00    +0.000 A 
ATOM      7  C   UNL     1       1.165   8.905  21.791  0.00  0.00    +0.000 A 
ATOM      8  C   UNL     1       1.006   9.058  20.411  0.00  0.00    +0.000 A 
ATOM      9  C   UNL     1       0.047   9.966  19.950  0.00  0.00    +0.000 A 
ATOM     10  C   UNL     1      -0.772  10.660  20.856  0.00  0.00    +0.000 A 
BRANCH   5  12
ATOM     11  C   UNL     1      -1.412  12.494  23.173  0.00  0.00    +0.000 C 
ATOM     12  O   UNL     1      -1.365  11.074  23.208  0.00  0.00    +0.000 OA
ENDBRANCH   5  12
ENDBRANCH   1   8
BRANCH   2  13
ATOM     13  C   UNL     1       3.019   6.456  18.504  0.00  0.00    +0.000 C 
BRANCH  13  14
ATOM     14  S   UNL     1       3.570   4.767  18.840  0.00  0.00    +0.000 S 
BRANCH  14  15
ATOM     15  C   UNL     1       5.320   4.896  18.653  0.00  0.00    +0.000 A 
ATOM     16  N   UNL     1       6.044   5.178  19.684  0.00  0.00    +0.000 NA
ATOM     17  C   UNL     1       7.387   5.246  19.507  0.00  0.00    +0.000 A 
ATOM     18  C   UNL     1       8.014   5.028  18.354  0.00  0.00    +0.000 A 
ATOM     19  C   UNL     1       7.195   4.713  17.179  0.00  0.00    +0.000 A 
ATOM     20  O   UNL     1       7.754   4.495  16.107  0.00  0.00    +0.000 OA
ATOM     21  N   UNL     1       5.829   4.675  17.384  0.00  0.00    +0.000 N 
ATOM     22  C   UNL     1       4.988   4.362  16.237  0.00  0.00    +0.000 C 
BRANCH  17  23
ATOM     23  O   UNL     1       8.121   5.541  20.627  0.00  0.00    +0.000 OA
ATOM     24  H   UNL     1       7.437   5.603  21.321  0.00  0.00    +0.000 HD
ENDBRANCH  17  23
ENDBRANCH  14  15
ENDBRANCH  13  14
ENDBRANCH   2  13
TORSDOF 6
ENDMDL
MODEL 6
REMARK VINA RESULT:      -6.9      1.331      1.402
REMARK  Name = 
REMARK  8 active torsions:
REMARK  status: ('A' for Active; 'I' for Inactive)
REMARK    1  A    between atoms: C_1  and  O_2
REMARK    2  A    between atoms: O_2  and  C_3
REMARK    3  A    between atoms: C_6  and  N_7
REMARK    4  A    between atoms: C_8  and  C_10
REMARK    5  A    between atoms: C_10  and  S_11
REMARK    6  A    between atoms: S_11  and  C_12
REMARK    7  A    between atoms: C_14  and  O_15
REMARK    8  A    between atoms: N_19  and  C_20
REMARK                            x       y       z     vdW  Elec       q    Type
REMARK                         _______ _______ _______ _____ _____    ______ ____
ROOT
ATOM      1  N   UNL     1       2.060   7.162  20.493  0.00  0.00    +0.000 N 
ATOM      2  C   UNL     1       2.365   6.170  19.563  0.00  0.00    +0.000 C 
ATOM      3  O   UNL     1       2.212   6.263  18.348  0.00  0.00    +0.000 OA
ATOM      4  H   UNL     1       2.427   7.054  21.431  0.00  0.00    +0.000 HD
ENDROOT
BRANCH   1   8
ATOM      5  C   UNL     1       0.037  10.752  19.527  0.00  0.00    +0.000 A 
ATOM      6  C   UNL     1      -0.208  10.115  20.739  0.00  0.00    +0.000 A 
ATOM      7  C   UNL     1       0.472   8.943  21.072  0.00  0.00    +0.000 A 
ATOM      8  C   UNL     1       1.390   8.365  20.191  0.00  0.00    +0.000 A 
ATOM      9  C   UNL     1       1.654   9.019  18.983  0.00  0.00    +0.000 A 
ATOM     10  C   UNL     1       0.968  10.199  18.645  0.00  0.00    +0.000 A 
BRANCH   5  12
ATOM     11  C   UNL     1      -1.484  11.874  18.111  0.00  0.00    +0.000 C 
ATOM     12  O   UNL     1      -0.710  11.874  19.303  0.00  0.00    +0.000 OA
ENDBRANCH   5  12
ENDBRANCH   1   8
BRANCH   2  13
ATOM     13  C   UNL     1       3.050   4.944  20.134  0.00  0.00    +0.000 C 
BRANCH  13  14
ATOM     14  S   UNL     1       3.672   3.846  18.839  0.00  0.00    +0.000 S 
BRANCH  14  15
ATOM     15  C   UNL     1       5.320   4.434  18.606  0.00  0.00    +0.000 A 
ATOM     16  N   UNL     1       6.007   4.804  19.635  0.00  0.00    +0.000 NA
ATOM     17  C   UNL     1       7.278   5.228  19.420  0.00  0.00    +0.000 A 
ATOM     18  C   UNL     1       7.872   5.274  18.231  0.00  0.00    +0.000 A 
ATOM     19  C   UNL     1       7.094   4.860  17.059  0.00  0.00    +0.000 A 
ATOM     20  O   UNL     1       7.627   4.881  15.953  0.00  0.00    +0.000 OA
ATOM     21  N   UNL     1       5.795   4.456  17.306  0.00  0.00    +0.000 N 
ATOM     22  C   UNL     1       4.996   4.036  16.163  0.00  0.00    +0.000 C 
BRANCH  17  23
ATOM     23  O   UNL     1       7.976   5.606  20.537  0.00  0.00    +0.000 OA
ATOM     24  H   UNL     1       8.365   4.763  20.842  0.00  0.00    +0.000 HD
ENDBRANCH  17  23
ENDBRANCH  14  15
ENDBRANCH  13  14
ENDBRANCH   2  13
TORSDOF 6
ENDMDL
MODEL 7
REMARK VINA RESULT:      -6.8      4.108      6.747
REMARK  Name = 
REMARK  8 active torsions:
REMARK  status: ('A' for Active; 'I' for Inactive)
REMARK    1  A    between atoms: C_1  and  O_2
REMARK    2  A    between atoms: O_2  and  C_3
REMARK    3  A    between atoms: C_6  and  N_7
REMARK    4  A    between atoms: C_8  and  C_10
REMARK    5  A    between atoms: C_10  and  S_11
REMARK    6  A    between atoms: S_11  and  C_12
REMARK    7  A    between atoms: C_14  and  O_15
REMARK    8  A    between atoms: N_19  and  C_20
REMARK                            x       y       z     vdW  Elec       q    Type
REMARK                         _______ _______ _______ _____ _____    ______ ____
ROOT
ATOM      1  N   UNL     1       8.964   8.765  19.105  0.00  0.00    +0.000 N 
ATOM      2  C   UNL     1       8.073   8.153  18.226  0.00  0.00    +0.000 C 
ATOM      3  O   UNL     1       7.520   8.702  17.276  0.00  0.00    +0.000 OA
ATOM      4  H   UNL     1       9.514   8.165  19.708  0.00  0.00    +0.000 HD
ENDROOT
BRANCH   1   8
ATOM      5  C   UNL     1       9.854  12.901  19.215  0.00  0.00    +0.000 A 
ATOM      6  C   UNL     1       9.788  12.233  17.998  0.00  0.00    +0.000 A 
ATOM      7  C   UNL     1       9.474  10.874  17.954  0.00  0.00    +0.000 A 
ATOM      8  C   UNL     1       9.248  10.146  19.125  0.00  0.00    +0.000 A 
ATOM      9  C   UNL     1       9.290  10.825  20.348  0.00  0.00    +0.000 A 
ATOM     10  C   UNL     1       9.609  12.193  20.393  0.00  0.00    +0.000 A 
BRANCH   5  12
ATOM     11  C   UNL     1       9.369  15.024  18.299  0.00  0.00    +0.000 C 
ATOM     12  O   UNL     1      10.198  14.222  19.130  0.00  0.00    +0.000 OA
ENDBRANCH   5  12
ENDBRANCH   1   8
BRANCH   2  13
ATOM     13  C   UNL     1       7.898   6.660  18.426  0.00  0.00    +0.000 C 
BRANCH  13  14
ATOM     14  S   UNL     1       6.897   5.910  17.120  0.00  0.00    +0.000 S 
BRANCH  14  15
ATOM     15  C   UNL     1       5.592   5.151  18.034  0.00  0.00    +0.000 A 
ATOM     16  N   UNL     1       5.812   4.026  18.629  0.00  0.00    +0.000 NA
ATOM     17  C   UNL     1       4.793   3.484  19.341  0.00  0.00    +0.000 A 
ATOM     18  C   UNL     1       3.591   4.034  19.487  0.00  0.00    +0.000 A 
ATOM     19  C   UNL     1       3.335   5.309  18.809  0.00  0.00    +0.000 A 
ATOM     20  O   UNL     1       2.236   5.841  18.940  0.00  0.00    +0.000 OA
ATOM     21  N   UNL     1       4.383   5.824  18.070  0.00  0.00    +0.000 N 
ATOM     22  C   UNL     1       4.161   7.092  17.387  0.00  0.00    +0.000 C 
BRANCH  17  23
ATOM     23  O   UNL     1       5.069   2.294  19.963  0.00  0.00    +0.000 OA
ATOM     24  H   UNL     1       5.114   1.667  19.215  0.00  0.00    +0.000 HD
ENDBRANCH  17  23
ENDBRANCH  14  15
ENDBRANCH  13  14
ENDBRANCH   2  13
TORSDOF 6
ENDMDL
MODEL 8
REMARK VINA RESULT:      -6.7      4.113      6.691
REMARK  Name = 
REMARK  8 active torsions:
REMARK  status: ('A' for Active; 'I' for Inactive)
REMARK    1  A    between atoms: C_1  and  O_2
REMARK    2  A    between atoms: O_2  and  C_3
REMARK    3  A    between atoms: C_6  and  N_7
REMARK    4  A    between atoms: C_8  and  C_10
REMARK    5  A    between atoms: C_10  and  S_11
REMARK    6  A    between atoms: S_11  and  C_12
REMARK    7  A    between atoms: C_14  and  O_15
REMARK    8  A    between atoms: N_19  and  C_20
REMARK                            x       y       z     vdW  Elec       q    Type
REMARK                         _______ _______ _______ _____ _____    ______ ____
ROOT
ATOM      1  N   UNL     1       8.956   8.736  19.069  0.00  0.00    +0.000 N 
ATOM      2  C   UNL     1       8.024   8.148  18.216  0.00  0.00    +0.000 C 
ATOM      3  O   UNL     1       7.415   8.726  17.319  0.00  0.00    +0.000 OA
ATOM      4  H   UNL     1       9.543   8.120  19.618  0.00  0.00    +0.000 HD
ENDROOT
BRANCH   1   8
ATOM      5  C   UNL     1       9.734  12.894  19.193  0.00  0.00    +0.000 A 
ATOM      6  C   UNL     1       9.503  12.190  20.371  0.00  0.00    +0.000 A 
ATOM      7  C   UNL     1       9.267  10.816  20.337  0.00  0.00    +0.000 A 
ATOM      8  C   UNL     1       9.228  10.118  19.127  0.00  0.00    +0.000 A 
ATOM      9  C   UNL     1       9.484  10.823  17.945  0.00  0.00    +0.000 A 
ATOM     10  C   UNL     1       9.720  12.208  17.978  0.00  0.00    +0.000 A 
BRANCH   5  12
ATOM     11  C   UNL     1      10.234  14.963  18.169  0.00  0.00    +0.000 C 
ATOM     12  O   UNL     1       9.924  14.238  19.353  0.00  0.00    +0.000 OA
ENDBRANCH   5  12
ENDBRANCH   1   8
BRANCH   2  13
ATOM     13  C   UNL     1       7.873   6.647  18.368  0.00  0.00    +0.000 C 
BRANCH  13  14
ATOM     14  S   UNL     1       6.812   5.935  17.089  0.00  0.00    +0.000 S 
BRANCH  14  15
ATOM     15  C   UNL     1       5.542   5.162  18.039  0.00  0.00    +0.000 A 
ATOM     16  N   UNL     1       5.785   4.031  18.613  0.00  0.00    +0.000 NA
ATOM     17  C   UNL     1       4.793   3.479  19.355  0.00  0.00    +0.000 A 
ATOM     18  C   UNL     1       3.595   4.024  19.548  0.00  0.00    +0.000 A 
ATOM     19  C   UNL     1       3.312   5.305  18.893  0.00  0.00    +0.000 A 
ATOM     20  O   UNL     1       2.217   5.833  19.068  0.00  0.00    +0.000 OA
ATOM     21  N   UNL     1       4.333   5.832  18.124  0.00  0.00    +0.000 N 
ATOM     22  C   UNL     1       4.084   7.106  17.463  0.00  0.00    +0.000 C 
BRANCH  17  23
ATOM     23  O   UNL     1       5.093   2.282  19.953  0.00  0.00    +0.000 OA
ATOM     24  H   UNL     1       5.804   1.930  19.383  0.00  0.00    +0.000 HD
ENDBRANCH  17  23
ENDBRANCH  14  15
ENDBRANCH  13  14
ENDBRANCH   2  13
TORSDOF 6
ENDMDL
MODEL 9
REMARK VINA RESULT:      -6.7      1.619      2.483
REMARK  Name = 
REMARK  8 active torsions:
REMARK  status: ('A' for Active; 'I' for Inactive)
REMARK    1  A    between atoms: C_1  and  O_2
REMARK    2  A    between atoms: O_2  and  C_3
REMARK    3  A    between atoms: C_6  and  N_7
REMARK    4  A    between atoms: C_8  and  C_10
REMARK    5  A    between atoms: C_10  and  S_11
REMARK    6  A    between atoms: S_11  and  C_12
REMARK    7  A    between atoms: C_14  and  O_15
REMARK    8  A    between atoms: N_19  and  C_20
REMARK                            x       y       z     vdW  Elec       q    Type
REMARK                         _______ _______ _______ _____ _____    ______ ____
ROOT
ATOM      1  N   UNL     1       2.882   5.744  18.991  0.00  0.00    +0.000 N 
ATOM      2  C   UNL     1       2.274   4.672  18.341  0.00  0.00    +0.000 C 
ATOM      3  O   UNL     1       1.283   4.746  17.619  0.00  0.00    +0.000 OA
ATOM      4  H   UNL     1       3.806   5.595  19.376  0.00  0.00    +0.000 HD
ENDROOT
BRANCH   1   8
ATOM      5  C   UNL     1       1.285   9.663  19.078  0.00  0.00    +0.000 A 
ATOM      6  C   UNL     1       1.226   8.858  20.211  0.00  0.00    +0.000 A 
ATOM      7  C   UNL     1       1.769   7.573  20.194  0.00  0.00    +0.000 A 
ATOM      8  C   UNL     1       2.358   7.053  19.039  0.00  0.00    +0.000 A 
ATOM      9  C   UNL     1       2.440   7.872  17.907  0.00  0.00    +0.000 A 
ATOM     10  C   UNL     1       1.890   9.165  17.923  0.00  0.00    +0.000 A 
BRANCH   5  12
ATOM     11  C   UNL     1       1.548  12.009  19.023  0.00  0.00    +0.000 C 
ATOM     12  O   UNL     1       0.694  10.888  19.209  0.00  0.00    +0.000 OA
ENDBRANCH   5  12
ENDBRANCH   1   8
BRANCH   2  13
ATOM     13  C   UNL     1       3.003   3.349  18.467  0.00  0.00    +0.000 C 
BRANCH  13  14
ATOM     14  S   UNL     1       4.723   3.564  18.983  0.00  0.00    +0.000 S 
BRANCH  14  15
ATOM     15  C   UNL     1       5.462   4.272  17.545  0.00  0.00    +0.000 A 
ATOM     16  N   UNL     1       5.100   3.851  16.379  0.00  0.00    +0.000 NA
ATOM     17  C   UNL     1       5.672   4.435  15.297  0.00  0.00    +0.000 A 
ATOM     18  C   UNL     1       6.564   5.420  15.347  0.00  0.00    +0.000 A 
ATOM     19  C   UNL     1       6.982   5.897  16.669  0.00  0.00    +0.000 A 
ATOM     20  O   UNL     1       7.795   6.815  16.739  0.00  0.00    +0.000 OA
ATOM     21  N   UNL     1       6.401   5.267  17.754  0.00  0.00    +0.000 N 
ATOM     22  C   UNL     1       6.793   5.721  19.081  0.00  0.00    +0.000 C 
BRANCH  17  23
ATOM     23  O   UNL     1       5.257   3.964  14.078  0.00  0.00    +0.000 OA
ATOM     24  H   UNL     1       4.335   4.282  14.028  0.00  0.00    +0.000 HD
ENDBRANCH  17  23
ENDBRANCH  14  15
ENDBRANCH  13  14
ENDBRANCH   2  13
TORSDOF 6
ENDMDL
