MODEL 1
REMARK VINA RESULT:      -7.1      0.000      0.000
REMARK  Name = 
REMARK  7 active torsions:
REMARK  status: ('A' for Active; 'I' for Inactive)
REMARK    1  A    between atoms: C_1  and  C_2
REMARK    2  A    between atoms: C_2  and  C_4
REMARK    3  A    between atoms: C_5  and  C_6
REMARK    4  A    between atoms: C_8  and  C_9
REMARK    5  A    between atoms: N_11  and  C_12
REMARK    6  A    between atoms: C_18  and  C_19
REMARK    7  A    between atoms: C_20  and  C_21
REMARK                            x       y       z     vdW  Elec       q    Type
REMARK                         _______ _______ _______ _____ _____    ______ ____
ROOT
ATOM      1  C   UNL     1       2.639   6.635  19.315  0.00  0.00    +0.000 C 
ATOM      2  O   UNL     1       3.577   6.724  18.527  0.00  0.00    +0.000 OA
ATOM      3  N   UNL     1       2.049   5.442  19.677  0.00  0.00    +0.000 N 
ATOM      4  H   UNL     1       1.070   5.498  19.925  0.00  0.00    +0.000 HD
ENDROOT
BRANCH   1   9
ATOM      5  C   UNL     1       0.802   9.749  20.241  0.00  0.00    +0.000 A 
ATOM      6  C   UNL     1       0.931   9.043  21.436  0.00  0.00    +0.000 A 
ATOM      7  C   UNL     1       0.463   9.254  22.835  0.00  0.00    +0.000 C 
ATOM      8  N   UNL     1       1.641   7.898  21.164  0.00  0.00    +0.000 N 
ATOM      9  C   UNL     1       1.989   7.821  19.841  0.00  0.00    +0.000 A 
ATOM     10  C   UNL     1       1.514   8.976  19.234  0.00  0.00    +0.000 A 
ATOM     11  C   UNL     1       1.593   9.336  17.783  0.00  0.00    +0.000 C 
ATOM     12  H   UNL     1       1.859   7.172  21.838  0.00  0.00    +0.000 HD
BRANCH   5  14
ATOM     13  C   UNL     1      -1.295  10.989  19.343  0.00  0.00    +0.000 C 
ATOM     14  C   UNL     1       0.071  11.006  19.971  0.00  0.00    +0.000 C 
ATOM     15  O   UNL     1       0.571  12.100  20.245  0.00  0.00    +0.000 OA
ENDBRANCH   5  14
ENDBRANCH   1   9
BRANCH   3  16
ATOM     16  C   UNL     1       2.588   4.179  19.359  0.00  0.00    +0.000 A 
ATOM     17  C   UNL     1       3.533   3.587  20.205  0.00  0.00    +0.000 A 
ATOM     18  C   UNL     1       4.019   2.316  19.918  0.00  0.00    +0.000 A 
ATOM     19  F   UNL     1       4.900   1.742  20.746  0.00  0.00    +0.000 F 
ATOM     20  C   UNL     1       3.593   1.626  18.791  0.00  0.00    +0.000 A 
ATOM     21  C   UNL     1       2.658   2.214  17.940  0.00  0.00    +0.000 A 
ATOM     22  C   UNL     1       2.142   3.493  18.215  0.00  0.00    +0.000 A 
ATOM     23  C   UNL     1       1.178   4.117  17.243  0.00  0.00    +0.000 C 
ENDBRANCH   3  16
TORSDOF 3
ENDMDL
MODEL 2
REMARK VINA RESULT:      -6.9      3.068      7.374
REMARK  Name = 
REMARK  7 active torsions:
REMARK  status: ('A' for Active; 'I' for Inactive)
REMARK    1  A    between atoms: C_1  and  C_2
REMARK    2  A    between atoms: C_2  and  C_4
REMARK    3  A    between atoms: C_5  and  C_6
REMARK    4  A    between atoms: C_8  and  C_9
REMARK    5  A    between atoms: N_11  and  C_12
REMARK    6  A    between atoms: C_18  and  C_19
REMARK    7  A    between atoms: C_20  and  C_21
REMARK                            x       y       z     vdW  Elec       q    Type
REMARK                         _______ _______ _______ _____ _____    ______ ____
ROOT
ATOM      1  C   UNL     1       1.625   6.325  20.503  0.00  0.00    +0.000 C 
ATOM      2  O   UNL     1       0.465   5.967  20.693  0.00  0.00    +0.000 OA
ATOM      3  N   UNL     1       2.017   7.643  20.404  0.00  0.00    +0.000 N 
ATOM      4  H   UNL     1       2.825   7.816  19.820  0.00  0.00    +0.000 HD
ENDROOT
BRANCH   1   9
ATOM      5  C   UNL     1       3.984   3.520  19.797  0.00  0.00    +0.000 A 
ATOM      6  C   UNL     1       4.665   4.668  19.396  0.00  0.00    +0.000 A 
ATOM      7  C   UNL     1       5.982   4.935  18.751  0.00  0.00    +0.000 C 
ATOM      8  N   UNL     1       3.858   5.745  19.672  0.00  0.00    +0.000 N 
ATOM      9  C   UNL     1       2.674   5.356  20.242  0.00  0.00    +0.000 A 
ATOM     10  C   UNL     1       2.726   3.974  20.370  0.00  0.00    +0.000 A 
ATOM     11  C   UNL     1       1.650   3.070  20.887  0.00  0.00    +0.000 C 
ATOM     12  H   UNL     1       4.077   6.711  19.455  0.00  0.00    +0.000 HD
BRANCH   5  14
ATOM     13  C   UNL     1       3.830   1.248  18.550  0.00  0.00    +0.000 C 
ATOM     14  C   UNL     1       4.379   2.101  19.659  0.00  0.00    +0.000 C 
ATOM     15  O   UNL     1       5.160   1.582  20.461  0.00  0.00    +0.000 OA
ENDBRANCH   5  14
ENDBRANCH   1   9
BRANCH   3  16
ATOM     16  C   UNL     1       1.179   8.730  20.723  0.00  0.00    +0.000 A 
ATOM     17  C   UNL     1       0.734   8.911  22.038  0.00  0.00    +0.000 A 
ATOM     18  C   UNL     1      -0.046  10.016  22.360  0.00  0.00    +0.000 A 
ATOM     19  F   UNL     1      -0.443  10.200  23.626  0.00  0.00    +0.000 F 
ATOM     20  C   UNL     1      -0.407  10.942  21.391  0.00  0.00    +0.000 A 
ATOM     21  C   UNL     1       0.025  10.764  20.078  0.00  0.00    +0.000 A 
ATOM     22  C   UNL     1       0.825   9.661  19.729  0.00  0.00    +0.000 A 
ATOM     23  C   UNL     1       1.224   9.473  18.290  0.00  0.00    +0.000 C 
ENDBRANCH   3  16
TORSDOF 3
ENDMDL
MODEL 3
REMARK VINA RESULT:      -6.9      1.613      1.871
REMARK  Name = 
REMARK  7 active torsions:
REMARK  status: ('A' for Active; 'I' for Inactive)
REMARK    1  A    between atoms: C_1  and  C_2
REMARK    2  A    between atoms: C_2  and  C_4
REMARK    3  A    between atoms: C_5  and  C_6
REMARK    4  A    between atoms: C_8  and  C_9
REMARK    5  A    between atoms: N_11  and  C_12
REMARK    6  A    between atoms: C_18  and  C_19
REMARK    7  A    between atoms: C_20  and  C_21
REMARK                            x       y       z     vdW  Elec       q    Type
REMARK                         _______ _______ _______ _____ _____    ______ ____
ROOT
ATOM      1  C   UNL     1       2.079   7.393  19.565  0.00  0.00    +0.000 C 
ATOM      2  O   UNL     1       2.245   7.391  18.348  0.00  0.00    +0.000 OA
ATOM      3  N   UNL     1       2.363   6.318  20.382  0.00  0.00    +0.000 N 
ATOM      4  H   UNL     1       1.796   6.243  21.216  0.00  0.00    +0.000 HD
ENDROOT
BRANCH   1   9
ATOM      5  C   UNL     1       0.287  10.399  20.861  0.00  0.00    +0.000 A 
ATOM      6  C   UNL     1       0.372   9.537  21.953  0.00  0.00    +0.000 A 
ATOM      7  C   UNL     1      -0.125   9.570  23.358  0.00  0.00    +0.000 C 
ATOM      8  N   UNL     1       1.064   8.421  21.546  0.00  0.00    +0.000 N 
ATOM      9  C   UNL     1       1.442   8.514  20.232  0.00  0.00    +0.000 A 
ATOM     10  C   UNL     1       1.007   9.751  19.775  0.00  0.00    +0.000 A 
ATOM     11  C   UNL     1       1.129  10.300  18.388  0.00  0.00    +0.000 C 
ATOM     12  H   UNL     1       1.250   7.606  22.120  0.00  0.00    +0.000 HD
BRANCH   5  14
ATOM     13  C   UNL     1       0.218  12.964  21.260  0.00  0.00    +0.000 C 
ATOM     14  C   UNL     1      -0.410  11.698  20.747  0.00  0.00    +0.000 C 
ATOM     15  O   UNL     1      -1.532  11.770  20.239  0.00  0.00    +0.000 OA
ENDBRANCH   5  14
ENDBRANCH   1   9
BRANCH   3  16
ATOM     16  C   UNL     1       3.074   5.180  19.952  0.00  0.00    +0.000 A 
ATOM     17  C   UNL     1       4.365   5.316  19.426  0.00  0.00    +0.000 A 
ATOM     18  C   UNL     1       5.085   4.186  19.056  0.00  0.00    +0.000 A 
ATOM     19  F   UNL     1       6.330   4.320  18.583  0.00  0.00    +0.000 F 
ATOM     20  C   UNL     1       4.537   2.917  19.184  0.00  0.00    +0.000 A 
ATOM     21  C   UNL     1       3.249   2.774  19.699  0.00  0.00    +0.000 A 
ATOM     22  C   UNL     1       2.506   3.901  20.092  0.00  0.00    +0.000 A 
ATOM     23  C   UNL     1       1.098   3.711  20.589  0.00  0.00    +0.000 C 
ENDBRANCH   3  16
TORSDOF 3
ENDMDL
MODEL 4
REMARK VINA RESULT:      -6.8      1.442      1.706
REMARK  Name = 
REMARK  7 active torsions:
REMARK  status: ('A' for Active; 'I' for Inactive)
REMARK    1  A    between atoms: C_1  and  C_2
REMARK    2  A    between atoms: C_2  and  C_4
REMARK    3  A    between atoms: C_5  and  C_6
REMARK    4  A    between atoms: C_8  and  C_9
REMARK    5  A    between atoms: N_11  and  C_12
REMARK    6  A    between atoms: C_18  and  C_19
REMARK    7  A    between atoms: C_20  and  C_21
REMARK                            x       y       z     vdW  Elec       q    Type
REMARK                         _______ _______ _______ _____ _____    ______ ____
ROOT
ATOM      1  C   UNL     1       2.681   6.583  19.547  0.00  0.00    +0.000 C 
ATOM      2  O   UNL     1       3.907   6.534  19.624  0.00  0.00    +0.000 OA
ATOM      3  N   UNL     1       1.907   5.597  18.971  0.00  0.00    +0.000 N 
ATOM      4  H   UNL     1       1.041   5.911  18.554  0.00  0.00    +0.000 HD
ENDROOT
BRANCH   1   9
ATOM      5  C   UNL     1       0.666   9.663  20.163  0.00  0.00    +0.000 A 
ATOM      6  C   UNL     1       0.747   9.036  21.405  0.00  0.00    +0.000 A 
ATOM      7  C   UNL     1       0.182   9.309  22.758  0.00  0.00    +0.000 C 
ATOM      8  N   UNL     1       1.518   7.909  21.249  0.00  0.00    +0.000 N 
ATOM      9  C   UNL     1       1.952   7.769  19.958  0.00  0.00    +0.000 A 
ATOM     10  C   UNL     1       1.471   8.864  19.252  0.00  0.00    +0.000 A 
ATOM     11  C   UNL     1       1.629   9.140  17.789  0.00  0.00    +0.000 C 
ATOM     12  H   UNL     1       1.721   7.234  21.979  0.00  0.00    +0.000 HD
BRANCH   5  14
ATOM     13  C   UNL     1       0.545  12.228  19.778  0.00  0.00    +0.000 C 
ATOM     14  C   UNL     1      -0.096  10.869  19.772  0.00  0.00    +0.000 C 
ATOM     15  O   UNL     1      -1.282  10.787  19.442  0.00  0.00    +0.000 OA
ENDBRANCH   5  14
ENDBRANCH   1   9
BRANCH   3  16
ATOM     16  C   UNL     1       2.406   4.331  18.604  0.00  0.00    +0.000 A 
ATOM     17  C   UNL     1       3.411   4.226  17.636  0.00  0.00    +0.000 A 
ATOM     18  C   UNL     1       3.941   2.980  17.319  0.00  0.00    +0.000 A 
ATOM     19  F   UNL     1       4.924   2.890  16.414  0.00  0.00    +0.000 F 
ATOM     20  C   UNL     1       3.476   1.828  17.938  0.00  0.00    +0.000 A 
ATOM     21  C   UNL     1       2.468   1.924  18.898  0.00  0.00    +0.000 A 
ATOM     22  C   UNL     1       1.925   3.174  19.245  0.00  0.00    +0.000 A 
ATOM     23  C   UNL     1       0.800   3.231  20.243  0.00  0.00    +0.000 C 
ENDBRANCH   3  16
TORSDOF 3
ENDMDL
MODEL 5
REMARK VINA RESULT:      -6.7      3.068      7.037
REMARK  Name = 
REMARK  7 active torsions:
REMARK  status: ('A' for Active; 'I' for Inactive)
REMARK    1  A    between atoms: C_1  and  C_2
REMARK    2  A    between atoms: C_2  and  C_4
REMARK    3  A    between atoms: C_5  and  C_6
REMARK    4  A    between atoms: C_8  and  C_9
REMARK    5  A    between atoms: N_11  and  C_12
REMARK    6  A    between atoms: C_18  and  C_19
REMARK    7  A    between atoms: C_20  and  C_21
REMARK                            x       y       z     vdW  Elec       q    Type
REMARK                         _______ _______ _______ _____ _____    ______ ____
ROOT
ATOM      1  C   UNL     1       1.965   6.482  20.162  0.00  0.00    +0.000 C 
ATOM      2  O   UNL     1       1.111   5.894  20.822  0.00  0.00    +0.000 OA
ATOM      3  N   UNL     1       1.965   7.843  19.942  0.00  0.00    +0.000 N 
ATOM      4  H   UNL     1       2.386   8.145  19.073  0.00  0.00    +0.000 HD
ENDROOT
BRANCH   1   9
ATOM      5  C   UNL     1       4.310   4.574  17.974  0.00  0.00    +0.000 A 
ATOM      6  C   UNL     1       5.133   5.257  18.868  0.00  0.00    +0.000 A 
ATOM      7  C   UNL     1       6.607   5.397  19.040  0.00  0.00    +0.000 C 
ATOM      8  N   UNL     1       4.319   5.950  19.732  0.00  0.00    +0.000 N 
ATOM      9  C   UNL     1       2.994   5.749  19.448  0.00  0.00    +0.000 A 
ATOM     10  C   UNL     1       2.942   4.867  18.377  0.00  0.00    +0.000 A 
ATOM     11  C   UNL     1       1.722   4.380  17.661  0.00  0.00    +0.000 C 
ATOM     12  H   UNL     1       4.641   6.566  20.470  0.00  0.00    +0.000 HD
BRANCH   5  14
ATOM     13  C   UNL     1       5.285   4.357  15.577  0.00  0.00    +0.000 C 
ATOM     14  C   UNL     1       4.681   3.742  16.809  0.00  0.00    +0.000 C 
ATOM     15  O   UNL     1       4.492   2.523  16.817  0.00  0.00    +0.000 OA
ENDBRANCH   5  14
ENDBRANCH   1   9
BRANCH   3  16
ATOM     16  C   UNL     1       1.118   8.742  20.623  0.00  0.00    +0.000 A 
ATOM     17  C   UNL     1       0.976   8.656  22.013  0.00  0.00    +0.000 A 
ATOM     18  C   UNL     1       0.185   9.580  22.686  0.00  0.00    +0.000 A 
ATOM     19  F   UNL     1       0.077   9.512  24.019  0.00  0.00    +0.000 F 
ATOM     20  C   UNL     1      -0.485  10.583  21.998  0.00  0.00    +0.000 A 
ATOM     21  C   UNL     1      -0.354  10.669  20.613  0.00  0.00    +0.000 A 
ATOM     22  C   UNL     1       0.451   9.754  19.910  0.00  0.00    +0.000 A 
ATOM     23  C   UNL     1       0.521   9.845  18.409  0.00  0.00    +0.000 C 
ENDBRANCH   3  16
TORSDOF 3
ENDMDL
MODEL 6
REMARK VINA RESULT:      -6.7      3.002      6.994
REMARK  Name = 
REMARK  7 active torsions:
REMARK  status: ('A' for Active; 'I' for Inactive)
REMARK    1  A    between atoms: C_1  and  C_2
REMARK    2  A    between atoms: C_2  and  C_4
REMARK    3  A    between atoms: C_5  and  C_6
REMARK    4  A    between atoms: C_8  and  C_9
REMARK    5  A    between atoms: N_11  and  C_12
REMARK    6  A    between atoms: C_18  and  C_19
REMARK    7  A    between atoms: C_20  and  C_21
REMARK                            x       y       z     vdW  Elec       q    Type
REMARK                         _______ _______ _______ _____ _____    ______ ____
ROOT
ATOM      1  C   UNL     1       2.005   6.199  20.175  0.00  0.00    +0.000 C 
ATOM      2  O   UNL     1       1.030   5.720  20.749  0.00  0.00    +0.000 OA
ATOM      3  N   UNL     1       2.176   7.548  19.943  0.00  0.00    +0.000 N 
ATOM      4  H   UNL     1       2.711   7.785  19.118  0.00  0.00    +0.000 HD
ENDROOT
BRANCH   1   9
ATOM      5  C   UNL     1       4.819   4.395  18.514  0.00  0.00    +0.000 A 
ATOM      6  C   UNL     1       4.309   3.485  19.438  0.00  0.00    +0.000 A 
ATOM      7  C   UNL     1       4.685   2.111  19.876  0.00  0.00    +0.000 C 
ATOM      8  N   UNL     1       3.236   4.082  20.056  0.00  0.00    +0.000 N 
ATOM      9  C   UNL     1       3.015   5.346  19.576  0.00  0.00    +0.000 A 
ATOM     10  C   UNL     1       3.961   5.569  18.584  0.00  0.00    +0.000 A 
ATOM     11  C   UNL     1       4.170   6.824  17.795  0.00  0.00    +0.000 C 
ATOM     12  H   UNL     1       2.687   3.669  20.803  0.00  0.00    +0.000 HD
BRANCH   5  14
ATOM     13  C   UNL     1       5.866   3.979  16.175  0.00  0.00    +0.000 C 
ATOM     14  C   UNL     1       6.007   4.276  17.642  0.00  0.00    +0.000 C 
ATOM     15  O   UNL     1       7.145   4.405  18.102  0.00  0.00    +0.000 OA
ENDBRANCH   5  14
ENDBRANCH   1   9
BRANCH   3  16
ATOM     16  C   UNL     1       1.367   8.545  20.525  0.00  0.00    +0.000 A 
ATOM     17  C   UNL     1       1.122   8.535  21.903  0.00  0.00    +0.000 A 
ATOM     18  C   UNL     1       0.372   9.553  22.481  0.00  0.00    +0.000 A 
ATOM     19  F   UNL     1       0.167   9.554  23.805  0.00  0.00    +0.000 F 
ATOM     20  C   UNL     1      -0.156  10.578  21.709  0.00  0.00    +0.000 A 
ATOM     21  C   UNL     1       0.076  10.590  20.334  0.00  0.00    +0.000 A 
ATOM     22  C   UNL     1       0.843   9.579  19.727  0.00  0.00    +0.000 A 
ATOM     23  C   UNL     1       1.023   9.595  18.233  0.00  0.00    +0.000 C 
ENDBRANCH   3  16
TORSDOF 3
ENDMDL
MODEL 7
REMARK VINA RESULT:      -6.7      3.655      4.327
REMARK  Name = 
REMARK  7 active torsions:
REMARK  status: ('A' for Active; 'I' for Inactive)
REMARK    1  A    between atoms: C_1  and  C_2
REMARK    2  A    between atoms: C_2  and  C_4
REMARK    3  A    between atoms: C_5  and  C_6
REMARK    4  A    between atoms: C_8  and  C_9
REMARK    5  A    between atoms: N_11  and  C_12
REMARK    6  A    between atoms: C_18  and  C_19
REMARK    7  A    between atoms: C_20  and  C_21
REMARK                            x       y       z     vdW  Elec       q    Type
REMARK                         _______ _______ _______ _____ _____    ______ ____
ROOT
ATOM      1  C   UNL     1       3.302   6.111  17.949  0.00  0.00    +0.000 C 
ATOM      2  O   UNL     1       2.913   4.949  17.849  0.00  0.00    +0.000 OA
ATOM      3  N   UNL     1       4.529   6.553  17.500  0.00  0.00    +0.000 N 
ATOM      4  H   UNL     1       4.926   7.331  18.011  0.00  0.00    +0.000 HD
ENDROOT
BRANCH   1   9
ATOM      5  C   UNL     1       1.451   8.436  20.206  0.00  0.00    +0.000 A 
ATOM      6  C   UNL     1       1.662   9.166  19.038  0.00  0.00    +0.000 A 
ATOM      7  C   UNL     1       1.375  10.564  18.608  0.00  0.00    +0.000 C 
ATOM      8  N   UNL     1       2.308   8.343  18.147  0.00  0.00    +0.000 N 
ATOM      9  C   UNL     1       2.528   7.099  18.678  0.00  0.00    +0.000 A 
ATOM     10  C   UNL     1       1.976   7.103  19.952  0.00  0.00    +0.000 A 
ATOM     11  C   UNL     1       2.007   5.994  20.957  0.00  0.00    +0.000 C 
ATOM     12  H   UNL     1       2.623   8.615  17.222  0.00  0.00    +0.000 HD
BRANCH   5  14
ATOM     13  C   UNL     1      -0.566   8.557  21.836  0.00  0.00    +0.000 C 
ATOM     14  C   UNL     1       0.861   8.874  21.490  0.00  0.00    +0.000 C 
ATOM     15  O   UNL     1       1.526   9.523  22.302  0.00  0.00    +0.000 OA
ENDBRANCH   5  14
ENDBRANCH   1   9
BRANCH   3  16
ATOM     16  C   UNL     1       5.383   5.783  16.684  0.00  0.00    +0.000 A 
ATOM     17  C   UNL     1       4.927   5.299  15.452  0.00  0.00    +0.000 A 
ATOM     18  C   UNL     1       5.790   4.589  14.625  0.00  0.00    +0.000 A 
ATOM     19  F   UNL     1       5.358   4.155  13.434  0.00  0.00    +0.000 F 
ATOM     20  C   UNL     1       7.100   4.336  15.008  0.00  0.00    +0.000 A 
ATOM     21  C   UNL     1       7.558   4.808  16.238  0.00  0.00    +0.000 A 
ATOM     22  C   UNL     1       6.708   5.539  17.087  0.00  0.00    +0.000 A 
ATOM     23  C   UNL     1       7.222   5.982  18.430  0.00  0.00    +0.000 C 
ENDBRANCH   3  16
TORSDOF 3
ENDMDL
MODEL 8
REMARK VINA RESULT:      -6.7      3.094      3.446
REMARK  Name = 
REMARK  7 active torsions:
REMARK  status: ('A' for Active; 'I' for Inactive)
REMARK    1  A    between atoms: C_1  and  C_2
REMARK    2  A    between atoms: C_2  and  C_4
REMARK    3  A    between atoms: C_5  and  C_6
REMARK    4  A    between atoms: C_8  and  C_9
REMARK    5  A    between atoms: N_11  and  C_12
REMARK    6  A    between atoms: C_18  and  C_19
REMARK    7  A    between atoms: C_20  and  C_21
REMARK                            x       y       z     vdW  Elec       q    Type
REMARK                         _______ _______ _______ _____ _____    ______ ____
ROOT
ATOM      1  C   UNL     1       3.179   6.365  18.689  0.00  0.00    +0.000 C 
ATOM      2  O   UNL     1       2.830   5.194  18.826  0.00  0.00    +0.000 OA
ATOM      3  N   UNL     1       4.352   6.751  18.076  0.00  0.00    +0.000 N 
ATOM      4  H   UNL     1       4.753   7.618  18.408  0.00  0.00    +0.000 HD
ENDROOT
BRANCH   1   9
ATOM      5  C   UNL     1       1.077   9.241  19.801  0.00  0.00    +0.000 A 
ATOM      6  C   UNL     1       1.201   8.433  20.930  0.00  0.00    +0.000 A 
ATOM      7  C   UNL     1       0.654   8.475  22.316  0.00  0.00    +0.000 C 
ATOM      8  N   UNL     1       2.005   7.371  20.592  0.00  0.00    +0.000 N 
ATOM      9  C   UNL     1       2.419   7.447  19.288  0.00  0.00    +0.000 A 
ATOM     10  C   UNL     1       1.889   8.620  18.766  0.00  0.00    +0.000 A 
ATOM     11  C   UNL     1       2.009   9.123  17.362  0.00  0.00    +0.000 C 
ATOM     12  H   UNL     1       2.244   6.600  21.205  0.00  0.00    +0.000 HD
BRANCH   5  14
ATOM     13  C   UNL     1      -1.096  10.403  18.983  0.00  0.00    +0.000 C 
ATOM     14  C   UNL     1       0.268  10.464  19.611  0.00  0.00    +0.000 C 
ATOM     15  O   UNL     1       0.701  11.568  19.954  0.00  0.00    +0.000 OA
ENDBRANCH   5  14
ENDBRANCH   1   9
BRANCH   3  16
ATOM     16  C   UNL     1       5.175   5.870  17.346  0.00  0.00    +0.000 A 
ATOM     17  C   UNL     1       4.867   5.560  16.016  0.00  0.00    +0.000 A 
ATOM     18  C   UNL     1       5.713   4.736  15.282  0.00  0.00    +0.000 A 
ATOM     19  F   UNL     1       5.428   4.468  14.001  0.00  0.00    +0.000 F 
ATOM     20  C   UNL     1       6.858   4.198  15.853  0.00  0.00    +0.000 A 
ATOM     21  C   UNL     1       7.167   4.496  17.180  0.00  0.00    +0.000 A 
ATOM     22  C   UNL     1       6.334   5.337  17.939  0.00  0.00    +0.000 A 
ATOM     23  C   UNL     1       6.671   5.588  19.384  0.00  0.00    +0.000 C 
ENDBRANCH   3  16
TORSDOF 3
ENDMDL
MODEL 9
REMARK VINA RESULT:      -6.6      2.367      2.725
REMARK  Name = 
REMARK  7 active torsions:
REMARK  status: ('A' for Active; 'I' for Inactive)
REMARK    1  A    between atoms: C_1  and  C_2
REMARK    2  A    between atoms: C_2  and  C_4
REMARK    3  A    between atoms: C_5  and  C_6
REMARK    4  A    between atoms: C_8  and  C_9
REMARK    5  A    between atoms: N_11  and  C_12
REMARK    6  A    between atoms: C_18  and  C_19
REMARK    7  A    between atoms: C_20  and  C_21
REMARK                            x       y       z     vdW  Elec       q    Type
REMARK                         _______ _______ _______ _____ _____    ______ ____
ROOT
ATOM      1  C   UNL     1       2.116   8.362  18.427  0.00  0.00    +0.000 C 
ATOM      2  O   UNL     1       2.153   8.739  17.257  0.00  0.00    +0.000 OA
ATOM      3  N   UNL     1       2.564   7.128  18.851  0.00  0.00    +0.000 N 
ATOM      4  H   UNL     1       2.094   6.750  19.664  0.00  0.00    +0.000 HD
ENDROOT
BRANCH   1   9
ATOM      5  C   UNL     1       0.364  10.723  20.725  0.00  0.00    +0.000 A 
ATOM      6  C   UNL     1       0.253   9.478  21.342  0.00  0.00    +0.000 A 
ATOM      7  C   UNL     1      -0.418   8.972  22.573  0.00  0.00    +0.000 C 
ATOM      8  N   UNL     1       0.921   8.568  20.557  0.00  0.00    +0.000 N 
ATOM      9  C   UNL     1       1.470   9.161  19.451  0.00  0.00    +0.000 A 
ATOM     10  C   UNL     1       1.175  10.516  19.534  0.00  0.00    +0.000 A 
ATOM     11  C   UNL     1       1.508  11.580  18.536  0.00  0.00    +0.000 C 
ATOM     12  H   UNL     1       0.980   7.572  20.738  0.00  0.00    +0.000 HD
BRANCH   5  14
ATOM     13  C   UNL     1      -1.567  12.453  20.585  0.00  0.00    +0.000 C 
ATOM     14  C   UNL     1      -0.231  12.018  21.119  0.00  0.00    +0.000 C 
ATOM     15  O   UNL     1       0.363  12.778  21.889  0.00  0.00    +0.000 OA
ENDBRANCH   5  14
ENDBRANCH   1   9
BRANCH   3  16
ATOM     16  C   UNL     1       3.310   6.250  18.040  0.00  0.00    +0.000 A 
ATOM     17  C   UNL     1       4.504   6.681  17.452  0.00  0.00    +0.000 A 
ATOM     18  C   UNL     1       5.266   5.794  16.700  0.00  0.00    +0.000 A 
ATOM     19  F   UNL     1       6.423   6.204  16.165  0.00  0.00    +0.000 F 
ATOM     20  C   UNL     1       4.853   4.483  16.507  0.00  0.00    +0.000 A 
ATOM     21  C   UNL     1       3.659   4.048  17.083  0.00  0.00    +0.000 A 
ATOM     22  C   UNL     1       2.877   4.923  17.859  0.00  0.00    +0.000 A 
ATOM     23  C   UNL     1       1.568   4.434  18.416  0.00  0.00    +0.000 C 
ENDBRANCH   3  16
TORSDOF 3
ENDMDL
