MODEL 1
REMARK VINA RESULT:      -8.2      0.000      0.000
REMARK  Name = 
REMARK  5 active torsions:
REMARK  status: ('A' for Active; 'I' for Inactive)
REMARK    1  A    between atoms: C_1  and  C_2
REMARK    2  A    between atoms: C_2  and  N_3
REMARK    3  A    between atoms: C_4  and  C_5
REMARK    4  A    between atoms: C_14  and  C_15
REMARK    5  A    between atoms: C_15  and  C_16
REMARK                            x       y       z     vdW  Elec       q    Type
REMARK                         _______ _______ _______ _____ _____    ______ ____
ROOT
ATOM      1  N   UNL     1       6.269   4.439  17.207  0.00  0.00    +0.000 N 
ATOM      2  C   UNL     1       5.889   4.546  15.884  0.00  0.00    +0.000 A 
ATOM      3  N   UNL     1       4.588   4.337  15.763  0.00  0.00    +0.000 NA
ATOM      4  C   UNL     1       4.139   3.987  17.010  0.00  0.00    +0.000 A 
ATOM      5  C   UNL     1       2.847   3.609  17.413  0.00  0.00    +0.000 A 
ATOM      6  C   UNL     1       2.626   3.260  18.753  0.00  0.00    +0.000 A 
ATOM      7  C   UNL     1       3.693   3.314  19.667  0.00  0.00    +0.000 A 
ATOM      8  C   UNL     1       4.984   3.704  19.283  0.00  0.00    +0.000 A 
ATOM      9  C   UNL     1       5.172   4.029  17.938  0.00  0.00    +0.000 A 
ENDROOT
BRANCH   2  10
ATOM     10  C   UNL     1       6.773   4.829  14.704  0.00  0.00    +0.000 A 
ATOM     11  N   UNL     1       7.768   5.722  14.718  0.00  0.00    +0.000 NA
ATOM     12  O   UNL     1       8.339   5.640  13.454  0.00  0.00    +0.000 OA
ATOM     13  N   UNL     1       7.684   4.712  12.659  0.00  0.00    +0.000 NA
ATOM     14  C   UNL     1       6.723   4.205  13.432  0.00  0.00    +0.000 A 
ATOM     15  N   UNL     1       5.845   3.265  13.038  0.00  0.00    +0.000 N 
ATOM     16  H   UNL     1       5.767   3.024  12.057  0.00  0.00    +0.000 HD
ATOM     17  H   UNL     1       5.034   3.054  13.616  0.00  0.00    +0.000 HD
ENDBRANCH   2  10
BRANCH   6  18
ATOM     18  C   UNL     1       1.293   2.819  19.276  0.00  0.00    +0.000 C 
ATOM     19  C   UNL     1       0.930   2.964  20.731  0.00  0.00    +0.000 C 
ATOM     20  O   UNL     1       0.477   2.330  18.493  0.00  0.00    +0.000 OA
ENDBRANCH   6  18
BRANCH   1  22
ATOM     21  C   UNL     1       7.625   6.161  18.371  0.00  0.00    +0.000 C 
ATOM     22  C   UNL     1       7.565   4.764  17.776  0.00  0.00    +0.000 C 
ENDBRANCH   1  22
TORSDOF 3
ENDMDL
MODEL 2
REMARK VINA RESULT:      -7.8      3.074      6.796
REMARK  Name = 
REMARK  5 active torsions:
REMARK  status: ('A' for Active; 'I' for Inactive)
REMARK    1  A    between atoms: C_1  and  C_2
REMARK    2  A    between atoms: C_2  and  N_3
REMARK    3  A    between atoms: C_4  and  C_5
REMARK    4  A    between atoms: C_14  and  C_15
REMARK    5  A    between atoms: C_15  and  C_16
REMARK                            x       y       z     vdW  Elec       q    Type
REMARK                         _______ _______ _______ _____ _____    ______ ____
ROOT
ATOM      1  N   UNL     1       3.633   5.185  18.923  0.00  0.00    +0.000 N 
ATOM      2  C   UNL     1       3.644   3.853  19.288  0.00  0.00    +0.000 A 
ATOM      3  N   UNL     1       4.395   3.155  18.452  0.00  0.00    +0.000 NA
ATOM      4  C   UNL     1       4.792   4.029  17.474  0.00  0.00    +0.000 A 
ATOM      5  C   UNL     1       5.556   3.781  16.320  0.00  0.00    +0.000 A 
ATOM      6  C   UNL     1       5.815   4.837  15.434  0.00  0.00    +0.000 A 
ATOM      7  C   UNL     1       5.324   6.121  15.727  0.00  0.00    +0.000 A 
ATOM      8  C   UNL     1       4.573   6.387  16.880  0.00  0.00    +0.000 A 
ATOM      9  C   UNL     1       4.320   5.310  17.733  0.00  0.00    +0.000 A 
ENDROOT
BRANCH   2  10
ATOM     10  C   UNL     1       2.912   3.219  20.436  0.00  0.00    +0.000 A 
ATOM     11  N   UNL     1       3.516   2.554  21.426  0.00  0.00    +0.000 NA
ATOM     12  O   UNL     1       2.488   2.172  22.279  0.00  0.00    +0.000 OA
ATOM     13  N   UNL     1       1.252   2.586  21.803  0.00  0.00    +0.000 NA
ATOM     14  C   UNL     1       1.515   3.239  20.671  0.00  0.00    +0.000 A 
ATOM     15  N   UNL     1       0.581   3.803  19.883  0.00  0.00    +0.000 N 
ATOM     16  H   UNL     1      -0.400   3.597  20.033  0.00  0.00    +0.000 HD
ATOM     17  H   UNL     1       0.832   4.128  18.952  0.00  0.00    +0.000 HD
ENDBRANCH   2  10
BRANCH   6  18
ATOM     18  C   UNL     1       6.596   4.670  14.167  0.00  0.00    +0.000 C 
ATOM     19  C   UNL     1       6.161   3.704  13.095  0.00  0.00    +0.000 C 
ATOM     20  O   UNL     1       7.615   5.342  14.002  0.00  0.00    +0.000 OA
ENDBRANCH   6  18
BRANCH   1  22
ATOM     21  C   UNL     1       2.239   7.236  18.820  0.00  0.00    +0.000 C 
ATOM     22  C   UNL     1       3.074   6.296  19.673  0.00  0.00    +0.000 C 
ENDBRANCH   1  22
TORSDOF 3
ENDMDL
MODEL 3
REMARK VINA RESULT:      -7.6      0.953      1.029
REMARK  Name = 
REMARK  5 active torsions:
REMARK  status: ('A' for Active; 'I' for Inactive)
REMARK    1  A    between atoms: C_1  and  C_2
REMARK    2  A    between atoms: C_2  and  N_3
REMARK    3  A    between atoms: C_4  and  C_5
REMARK    4  A    between atoms: C_14  and  C_15
REMARK    5  A    between atoms: C_15  and  C_16
REMARK                            x       y       z     vdW  Elec       q    Type
REMARK                         _______ _______ _______ _____ _____    ______ ____
ROOT
ATOM      1  N   UNL     1       5.536   5.690  17.150  0.00  0.00    +0.000 N 
ATOM      2  C   UNL     1       5.558   4.890  16.024  0.00  0.00    +0.000 A 
ATOM      3  N   UNL     1       4.595   3.985  16.087  0.00  0.00    +0.000 NA
ATOM      4  C   UNL     1       4.009   4.135  17.317  0.00  0.00    +0.000 A 
ATOM      5  C   UNL     1       2.975   3.384  17.904  0.00  0.00    +0.000 A 
ATOM      6  C   UNL     1       2.553   3.705  19.202  0.00  0.00    +0.000 A 
ATOM      7  C   UNL     1       3.156   4.779  19.881  0.00  0.00    +0.000 A 
ATOM      8  C   UNL     1       4.178   5.545  19.303  0.00  0.00    +0.000 A 
ATOM      9  C   UNL     1       4.585   5.189  18.015  0.00  0.00    +0.000 A 
ENDROOT
BRANCH   2  10
ATOM     10  C   UNL     1       6.520   4.965  14.874  0.00  0.00    +0.000 A 
ATOM     11  N   UNL     1       7.690   5.608  14.925  0.00  0.00    +0.000 NA
ATOM     12  O   UNL     1       8.268   5.399  13.679  0.00  0.00    +0.000 OA
ATOM     13  N   UNL     1       7.444   4.644  12.857  0.00  0.00    +0.000 NA
ATOM     14  C   UNL     1       6.370   4.369  13.597  0.00  0.00    +0.000 A 
ATOM     15  N   UNL     1       5.314   3.653  13.170  0.00  0.00    +0.000 N 
ATOM     16  H   UNL     1       5.214   3.436  12.185  0.00  0.00    +0.000 HD
ATOM     17  H   UNL     1       4.458   3.631  13.721  0.00  0.00    +0.000 HD
ENDBRANCH   2  10
BRANCH   6  18
ATOM     18  C   UNL     1       1.478   2.951  19.924  0.00  0.00    +0.000 C 
ATOM     19  C   UNL     1       1.517   2.759  21.418  0.00  0.00    +0.000 C 
ATOM     20  O   UNL     1       0.542   2.481  19.276  0.00  0.00    +0.000 OA
ENDBRANCH   6  18
BRANCH   1  22
ATOM     21  C   UNL     1       7.566   6.654  18.205  0.00  0.00    +0.000 C 
ATOM     22  C   UNL     1       6.310   6.897  17.384  0.00  0.00    +0.000 C 
ENDBRANCH   1  22
TORSDOF 3
ENDMDL
MODEL 4
REMARK VINA RESULT:      -7.5      4.091      6.937
REMARK  Name = 
REMARK  5 active torsions:
REMARK  status: ('A' for Active; 'I' for Inactive)
REMARK    1  A    between atoms: C_1  and  C_2
REMARK    2  A    between atoms: C_2  and  N_3
REMARK    3  A    between atoms: C_4  and  C_5
REMARK    4  A    between atoms: C_14  and  C_15
REMARK    5  A    between atoms: C_15  and  C_16
REMARK                            x       y       z     vdW  Elec       q    Type
REMARK                         _______ _______ _______ _____ _____    ______ ____
ROOT
ATOM      1  N   UNL     1       2.662   5.759  18.582  0.00  0.00    +0.000 N 
ATOM      2  C   UNL     1       2.673   7.139  18.526  0.00  0.00    +0.000 A 
ATOM      3  N   UNL     1       3.490   7.552  17.571  0.00  0.00    +0.000 NA
ATOM      4  C   UNL     1       4.095   6.428  17.072  0.00  0.00    +0.000 A 
ATOM      5  C   UNL     1       5.088   6.321  16.083  0.00  0.00    +0.000 A 
ATOM      6  C   UNL     1       5.586   5.052  15.752  0.00  0.00    +0.000 A 
ATOM      7  C   UNL     1       5.069   3.915  16.400  0.00  0.00    +0.000 A 
ATOM      8  C   UNL     1       4.068   4.006  17.377  0.00  0.00    +0.000 A 
ATOM      9  C   UNL     1       3.607   5.285  17.694  0.00  0.00    +0.000 A 
ENDROOT
BRANCH   2  10
ATOM     10  C   UNL     1       1.914   8.090  19.406  0.00  0.00    +0.000 A 
ATOM     11  N   UNL     1       1.727   7.902  20.715  0.00  0.00    +0.000 NA
ATOM     12  O   UNL     1       1.016   9.019  21.138  0.00  0.00    +0.000 OA
ATOM     13  N   UNL     1       0.751   9.882  20.085  0.00  0.00    +0.000 NA
ATOM     14  C   UNL     1       1.312   9.313  19.018  0.00  0.00    +0.000 A 
ATOM     15  N   UNL     1       1.281   9.829  17.776  0.00  0.00    +0.000 N 
ATOM     16  H   UNL     1       0.664  10.605  17.564  0.00  0.00    +0.000 HD
ATOM     17  H   UNL     1       1.573   9.261  16.983  0.00  0.00    +0.000 HD
ENDBRANCH   2  10
BRANCH   6  18
ATOM     18  C   UNL     1       6.661   4.834  14.732  0.00  0.00    +0.000 C 
ATOM     19  C   UNL     1       6.441   3.948  13.533  0.00  0.00    +0.000 C 
ATOM     20  O   UNL     1       7.747   5.397  14.880  0.00  0.00    +0.000 OA
ENDBRANCH   6  18
BRANCH   1  22
ATOM     21  C   UNL     1       2.398   4.444  20.671  0.00  0.00    +0.000 C 
ATOM     22  C   UNL     1       1.775   4.919  19.368  0.00  0.00    +0.000 C 
ENDBRANCH   1  22
TORSDOF 3
ENDMDL
MODEL 5
REMARK VINA RESULT:      -7.4      2.852      6.736
REMARK  Name = 
REMARK  5 active torsions:
REMARK  status: ('A' for Active; 'I' for Inactive)
REMARK    1  A    between atoms: C_1  and  C_2
REMARK    2  A    between atoms: C_2  and  N_3
REMARK    3  A    between atoms: C_4  and  C_5
REMARK    4  A    between atoms: C_14  and  C_15
REMARK    5  A    between atoms: C_15  and  C_16
REMARK                            x       y       z     vdW  Elec       q    Type
REMARK                         _______ _______ _______ _____ _____    ______ ____
ROOT
ATOM      1  N   UNL     1       3.626   5.480  18.307  0.00  0.00    +0.000 N 
ATOM      2  C   UNL     1       3.420   4.154  18.633  0.00  0.00    +0.000 A 
ATOM      3  N   UNL     1       4.095   3.370  17.809  0.00  0.00    +0.000 NA
ATOM      4  C   UNL     1       4.662   4.196  16.874  0.00  0.00    +0.000 A 
ATOM      5  C   UNL     1       5.432   3.861  15.746  0.00  0.00    +0.000 A 
ATOM      6  C   UNL     1       5.886   4.886  14.903  0.00  0.00    +0.000 A 
ATOM      7  C   UNL     1       5.580   6.223  15.212  0.00  0.00    +0.000 A 
ATOM      8  C   UNL     1       4.826   6.573  16.341  0.00  0.00    +0.000 A 
ATOM      9  C   UNL     1       4.377   5.527  17.150  0.00  0.00    +0.000 A 
ENDROOT
BRANCH   2  10
ATOM     10  C   UNL     1       2.550   3.612  19.731  0.00  0.00    +0.000 A 
ATOM     11  N   UNL     1       1.264   3.937  19.889  0.00  0.00    +0.000 NA
ATOM     12  O   UNL     1       0.840   3.195  20.984  0.00  0.00    +0.000 OA
ATOM     13  N   UNL     1       1.870   2.430  21.510  0.00  0.00    +0.000 NA
ATOM     14  C   UNL     1       2.924   2.680  20.731  0.00  0.00    +0.000 A 
ATOM     15  N   UNL     1       4.142   2.136  20.901  0.00  0.00    +0.000 N 
ATOM     16  H   UNL     1       4.359   1.636  21.756  0.00  0.00    +0.000 HD
ATOM     17  H   UNL     1       4.939   2.504  20.384  0.00  0.00    +0.000 HD
ENDBRANCH   2  10
BRANCH   6  18
ATOM     18  C   UNL     1       6.690   4.632  13.665  0.00  0.00    +0.000 C 
ATOM     19  C   UNL     1       6.312   3.548  12.688  0.00  0.00    +0.000 C 
ATOM     20  O   UNL     1       7.681   5.330  13.443  0.00  0.00    +0.000 OA
ENDBRANCH   6  18
BRANCH   1  22
ATOM     21  C   UNL     1       2.198   7.510  18.328  0.00  0.00    +0.000 C 
ATOM     22  C   UNL     1       3.206   6.645  19.066  0.00  0.00    +0.000 C 
ENDBRANCH   1  22
TORSDOF 3
ENDMDL
MODEL 6
REMARK VINA RESULT:      -7.1      2.501      6.363
REMARK  Name = 
REMARK  5 active torsions:
REMARK  status: ('A' for Active; 'I' for Inactive)
REMARK    1  A    between atoms: C_1  and  C_2
REMARK    2  A    between atoms: C_2  and  N_3
REMARK    3  A    between atoms: C_4  and  C_5
REMARK    4  A    between atoms: C_14  and  C_15
REMARK    5  A    between atoms: C_15  and  C_16
REMARK                            x       y       z     vdW  Elec       q    Type
REMARK                         _______ _______ _______ _____ _____    ______ ____
ROOT
ATOM      1  N   UNL     1       5.617   4.798  18.256  0.00  0.00    +0.000 N 
ATOM      2  C   UNL     1       4.511   3.983  18.402  0.00  0.00    +0.000 A 
ATOM      3  N   UNL     1       4.267   3.336  17.275  0.00  0.00    +0.000 NA
ATOM      4  C   UNL     1       5.163   3.817  16.356  0.00  0.00    +0.000 A 
ATOM      5  C   UNL     1       5.289   3.501  14.992  0.00  0.00    +0.000 A 
ATOM      6  C   UNL     1       6.273   4.149  14.231  0.00  0.00    +0.000 A 
ATOM      7  C   UNL     1       7.122   5.083  14.850  0.00  0.00    +0.000 A 
ATOM      8  C   UNL     1       7.018   5.397  16.212  0.00  0.00    +0.000 A 
ATOM      9  C   UNL     1       6.018   4.745  16.936  0.00  0.00    +0.000 A 
ENDROOT
BRANCH   2  10
ATOM     10  C   UNL     1       3.653   3.827  19.624  0.00  0.00    +0.000 A 
ATOM     11  N   UNL     1       3.515   2.679  20.294  0.00  0.00    +0.000 NA
ATOM     12  O   UNL     1       2.675   2.984  21.358  0.00  0.00    +0.000 OA
ATOM     13  N   UNL     1       2.283   4.314  21.330  0.00  0.00    +0.000 NA
ATOM     14  C   UNL     1       2.893   4.837  20.266  0.00  0.00    +0.000 A 
ATOM     15  N   UNL     1       2.774   6.118  19.873  0.00  0.00    +0.000 N 
ATOM     16  H   UNL     1       2.059   6.709  20.281  0.00  0.00    +0.000 HD
ATOM     17  H   UNL     1       3.122   6.403  18.960  0.00  0.00    +0.000 HD
ENDBRANCH   2  10
BRANCH   6  18
ATOM     18  C   UNL     1       6.471   3.902  12.767  0.00  0.00    +0.000 C 
ATOM     19  C   UNL     1       5.564   2.979  11.993  0.00  0.00    +0.000 C 
ATOM     20  O   UNL     1       7.396   4.471  12.185  0.00  0.00    +0.000 OA
ENDBRANCH   6  18
BRANCH   1  22
ATOM     21  C   UNL     1       7.822   5.490  19.163  0.00  0.00    +0.000 C 
ATOM     22  C   UNL     1       6.309   5.534  19.299  0.00  0.00    +0.000 C 
ENDBRANCH   1  22
TORSDOF 3
ENDMDL
MODEL 7
REMARK VINA RESULT:      -7.1      3.551      4.185
REMARK  Name = 
REMARK  5 active torsions:
REMARK  status: ('A' for Active; 'I' for Inactive)
REMARK    1  A    between atoms: C_1  and  C_2
REMARK    2  A    between atoms: C_2  and  N_3
REMARK    3  A    between atoms: C_4  and  C_5
REMARK    4  A    between atoms: C_14  and  C_15
REMARK    5  A    between atoms: C_15  and  C_16
REMARK                            x       y       z     vdW  Elec       q    Type
REMARK                         _______ _______ _______ _____ _____    ______ ____
ROOT
ATOM      1  N   UNL     1       4.145   4.893  18.502  0.00  0.00    +0.000 N 
ATOM      2  C   UNL     1       4.634   5.565  17.399  0.00  0.00    +0.000 A 
ATOM      3  N   UNL     1       4.171   6.803  17.373  0.00  0.00    +0.000 NA
ATOM      4  C   UNL     1       3.288   6.903  18.416  0.00  0.00    +0.000 A 
ATOM      5  C   UNL     1       2.481   7.991  18.794  0.00  0.00    +0.000 A 
ATOM      6  C   UNL     1       1.620   7.851  19.892  0.00  0.00    +0.000 A 
ATOM      7  C   UNL     1       1.595   6.637  20.602  0.00  0.00    +0.000 A 
ATOM      8  C   UNL     1       2.404   5.549  20.246  0.00  0.00    +0.000 A 
ATOM      9  C   UNL     1       3.238   5.717  19.138  0.00  0.00    +0.000 A 
ENDROOT
BRANCH   2  10
ATOM     10  C   UNL     1       5.542   5.021  16.333  0.00  0.00    +0.000 A 
ATOM     11  N   UNL     1       5.221   3.997  15.536  0.00  0.00    +0.000 NA
ATOM     12  O   UNL     1       6.313   3.849  14.688  0.00  0.00    +0.000 OA
ATOM     13  N   UNL     1       7.310   4.769  14.978  0.00  0.00    +0.000 NA
ATOM     14  C   UNL     1       6.831   5.497  15.987  0.00  0.00    +0.000 A 
ATOM     15  N   UNL     1       7.494   6.507  16.579  0.00  0.00    +0.000 N 
ATOM     16  H   UNL     1       8.481   6.644  16.391  0.00  0.00    +0.000 HD
ATOM     17  H   UNL     1       7.146   6.901  17.451  0.00  0.00    +0.000 HD
ENDBRANCH   2  10
BRANCH   6  18
ATOM     18  C   UNL     1       0.704   8.940  20.358  0.00  0.00    +0.000 C 
ATOM     19  C   UNL     1      -0.130   8.790  21.605  0.00  0.00    +0.000 C 
ATOM     20  O   UNL     1       0.635   9.983  19.705  0.00  0.00    +0.000 OA
ENDBRANCH   6  18
BRANCH   1  22
ATOM     21  C   UNL     1       3.653   2.460  18.477  0.00  0.00    +0.000 C 
ATOM     22  C   UNL     1       4.546   3.582  18.981  0.00  0.00    +0.000 C 
ENDBRANCH   1  22
TORSDOF 3
ENDMDL
MODEL 8
REMARK VINA RESULT:      -7.1      2.471      6.337
REMARK  Name = 
REMARK  5 active torsions:
REMARK  status: ('A' for Active; 'I' for Inactive)
REMARK    1  A    between atoms: C_1  and  C_2
REMARK    2  A    between atoms: C_2  and  N_3
REMARK    3  A    between atoms: C_4  and  C_5
REMARK    4  A    between atoms: C_14  and  C_15
REMARK    5  A    between atoms: C_15  and  C_16
REMARK                            x       y       z     vdW  Elec       q    Type
REMARK                         _______ _______ _______ _____ _____    ______ ____
ROOT
ATOM      1  N   UNL     1       5.679   4.759  18.121  0.00  0.00    +0.000 N 
ATOM      2  C   UNL     1       4.684   3.816  18.293  0.00  0.00    +0.000 A 
ATOM      3  N   UNL     1       4.502   3.134  17.174  0.00  0.00    +0.000 NA
ATOM      4  C   UNL     1       5.316   3.713  16.236  0.00  0.00    +0.000 A 
ATOM      5  C   UNL     1       5.457   3.404  14.871  0.00  0.00    +0.000 A 
ATOM      6  C   UNL     1       6.340   4.161  14.089  0.00  0.00    +0.000 A 
ATOM      7  C   UNL     1       7.079   5.198  14.686  0.00  0.00    +0.000 A 
ATOM      8  C   UNL     1       6.960   5.509  16.048  0.00  0.00    +0.000 A 
ATOM      9  C   UNL     1       6.060   4.745  16.795  0.00  0.00    +0.000 A 
ENDROOT
BRANCH   2  10
ATOM     10  C   UNL     1       3.872   3.566  19.531  0.00  0.00    +0.000 A 
ATOM     11  N   UNL     1       2.808   4.295  19.881  0.00  0.00    +0.000 NA
ATOM     12  O   UNL     1       2.345   3.709  21.053  0.00  0.00    +0.000 OA
ATOM     13  N   UNL     1       3.135   2.633  21.431  0.00  0.00    +0.000 NA
ATOM     14  C   UNL     1       4.072   2.540  20.488  0.00  0.00    +0.000 A 
ATOM     15  N   UNL     1       5.054   1.620  20.479  0.00  0.00    +0.000 N 
ATOM     16  H   UNL     1       5.227   1.055  21.303  0.00  0.00    +0.000 HD
ATOM     17  H   UNL     1       5.833   1.715  19.830  0.00  0.00    +0.000 HD
ENDBRANCH   2  10
BRANCH   6  18
ATOM     18  C   UNL     1       6.542   3.928  12.623  0.00  0.00    +0.000 C 
ATOM     19  C   UNL     1       5.712   2.926  11.863  0.00  0.00    +0.000 C 
ATOM     20  O   UNL     1       7.406   4.574  12.029  0.00  0.00    +0.000 OA
ENDBRANCH   6  18
BRANCH   1  22
ATOM     21  C   UNL     1       7.811   5.534  19.129  0.00  0.00    +0.000 C 
ATOM     22  C   UNL     1       6.292   5.583  19.147  0.00  0.00    +0.000 C 
ENDBRANCH   1  22
TORSDOF 3
ENDMDL
MODEL 9
REMARK VINA RESULT:      -6.9      4.328      4.899
REMARK  Name = 
REMARK  5 active torsions:
REMARK  status: ('A' for Active; 'I' for Inactive)
REMARK    1  A    between atoms: C_1  and  C_2
REMARK    2  A    between atoms: C_2  and  N_3
REMARK    3  A    between atoms: C_4  and  C_5
REMARK    4  A    between atoms: C_14  and  C_15
REMARK    5  A    between atoms: C_15  and  C_16
REMARK                            x       y       z     vdW  Elec       q    Type
REMARK                         _______ _______ _______ _____ _____    ______ ____
ROOT
ATOM      1  N   UNL     1       3.970   5.848  18.622  0.00  0.00    +0.000 N 
ATOM      2  C   UNL     1       4.499   6.128  17.377  0.00  0.00    +0.000 A 
ATOM      3  N   UNL     1       4.049   7.293  16.940  0.00  0.00    +0.000 NA
ATOM      4  C   UNL     1       3.137   7.723  17.868  0.00  0.00    +0.000 A 
ATOM      5  C   UNL     1       2.331   8.875  17.851  0.00  0.00    +0.000 A 
ATOM      6  C   UNL     1       1.436   9.096  18.908  0.00  0.00    +0.000 A 
ATOM      7  C   UNL     1       1.378   8.175  19.970  0.00  0.00    +0.000 A 
ATOM      8  C   UNL     1       2.186   7.030  20.008  0.00  0.00    +0.000 A 
ATOM      9  C   UNL     1       3.054   6.832  18.931  0.00  0.00    +0.000 A 
ENDROOT
BRANCH   2  10
ATOM     10  C   UNL     1       5.432   5.270  16.572  0.00  0.00    +0.000 A 
ATOM     11  N   UNL     1       5.089   4.090  16.046  0.00  0.00    +0.000 NA
ATOM     12  O   UNL     1       6.220   3.661  15.363  0.00  0.00    +0.000 OA
ATOM     13  N   UNL     1       7.262   4.569  15.484  0.00  0.00    +0.000 NA
ATOM     14  C   UNL     1       6.773   5.566  16.223  0.00  0.00    +0.000 A 
ATOM     15  N   UNL     1       7.470   6.658  16.583  0.00  0.00    +0.000 N 
ATOM     16  H   UNL     1       8.475   6.686  16.450  0.00  0.00    +0.000 HD
ATOM     17  H   UNL     1       7.096   7.289  17.289  0.00  0.00    +0.000 HD
ENDBRANCH   2  10
BRANCH   6  18
ATOM     18  C   UNL     1       0.518  10.278  18.971  0.00  0.00    +0.000 C 
ATOM     19  C   UNL     1      -0.813  10.280  18.263  0.00  0.00    +0.000 C 
ATOM     20  O   UNL     1       0.862  11.267  19.619  0.00  0.00    +0.000 OA
ENDBRANCH   6  18
BRANCH   1  22
ATOM     21  C   UNL     1       3.476   3.525  19.343  0.00  0.00    +0.000 C 
ATOM     22  C   UNL     1       4.344   4.761  19.509  0.00  0.00    +0.000 C 
ENDBRANCH   1  22
TORSDOF 3
ENDMDL
