MODEL 1
REMARK VINA RESULT:      -7.4      0.000      0.000
REMARK  Name = 
REMARK  3 active torsions:
REMARK  status: ('A' for Active; 'I' for Inactive)
REMARK    1  A    between atoms: C_1  and  C_2
REMARK    2  A    between atoms: C_5  and  C_6
REMARK    3  A    between atoms: C_12  and  C_13
REMARK                            x       y       z     vdW  Elec       q    Type
REMARK                         _______ _______ _______ _____ _____    ______ ____
ROOT
ATOM      1  C   UNL     1       5.038   4.536  18.157  0.00  0.00    +0.000 C 
ATOM      2  O   UNL     1       5.485   3.888  19.106  0.00  0.00    +0.000 OA
ATOM      3  N   UNL     1       3.904   5.336  18.284  0.00  0.00    +0.000 N 
ATOM      4  C   UNL     1       3.365   6.273  17.311  0.00  0.00    +0.000 C 
ATOM      5  C   UNL     1       3.029   7.503  18.137  0.00  0.00    +0.000 C 
ATOM      6  C   UNL     1       2.584   6.927  19.475  0.00  0.00    +0.000 C 
ATOM      7  C   UNL     1       3.370   5.614  19.616  0.00  0.00    +0.000 C 
ENDROOT
BRANCH   1  12
ATOM      8  C   UNL     1       7.794   5.228  13.258  0.00  0.00    +0.000 C 
ATOM      9  C   UNL     1       7.145   4.947  14.577  0.00  0.00    +0.000 A 
ATOM     10  C   UNL     1       6.214   3.922  14.730  0.00  0.00    +0.000 A 
ATOM     11  N   UNL     1       5.540   3.697  15.886  0.00  0.00    +0.000 NA
ATOM     12  C   UNL     1       5.836   4.549  16.901  0.00  0.00    +0.000 A 
ATOM     13  C   UNL     1       6.805   5.536  16.770  0.00  0.00    +0.000 A 
ATOM     14  N   UNL     1       7.472   5.760  15.608  0.00  0.00    +0.000 NA
ENDBRANCH   1  12
BRANCH   7  15
ATOM     15  C   UNL     1       2.512   4.474  20.100  0.00  0.00    +0.000 A 
ATOM     16  C   UNL     1       1.478   3.818  19.346  0.00  0.00    +0.000 A 
ATOM     17  C   UNL     1       0.830   2.839  20.064  0.00  0.00    +0.000 A 
ATOM     18  S   UNL     1       1.464   2.676  21.640  0.00  0.00    +0.000 S 
ATOM     19  C   UNL     1       2.607   3.917  21.365  0.00  0.00    +0.000 A 
ENDBRANCH   7  15
TORSDOF 2
ENDMDL
MODEL 2
REMARK VINA RESULT:      -6.2      2.956      6.280
REMARK  Name = 
REMARK  3 active torsions:
REMARK  status: ('A' for Active; 'I' for Inactive)
REMARK    1  A    between atoms: C_1  and  C_2
REMARK    2  A    between atoms: C_5  and  C_6
REMARK    3  A    between atoms: C_12  and  C_13
REMARK                            x       y       z     vdW  Elec       q    Type
REMARK                         _______ _______ _______ _____ _____    ______ ____
ROOT
ATOM      1  C   UNL     1       3.486   6.036  18.992  0.00  0.00    +0.000 C 
ATOM      2  O   UNL     1       4.628   6.171  19.435  0.00  0.00    +0.000 OA
ATOM      3  N   UNL     1       3.122   4.933  18.222  0.00  0.00    +0.000 N 
ATOM      4  C   UNL     1       1.789   4.561  17.776  0.00  0.00    +0.000 C 
ATOM      5  C   UNL     1       1.720   3.067  18.042  0.00  0.00    +0.000 C 
ATOM      6  C   UNL     1       3.142   2.589  17.778  0.00  0.00    +0.000 C 
ATOM      7  C   UNL     1       4.031   3.791  18.136  0.00  0.00    +0.000 C 
ENDROOT
BRANCH   1  12
ATOM      8  C   UNL     1       0.117  10.272  20.660  0.00  0.00    +0.000 C 
ATOM      9  C   UNL     1       0.900   9.086  20.193  0.00  0.00    +0.000 A 
ATOM     10  C   UNL     1       1.106   7.977  21.010  0.00  0.00    +0.000 A 
ATOM     11  N   UNL     1       1.885   6.925  20.654  0.00  0.00    +0.000 NA
ATOM     12  C   UNL     1       2.462   7.024  19.429  0.00  0.00    +0.000 A 
ATOM     13  C   UNL     1       2.215   8.101  18.587  0.00  0.00    +0.000 A 
ATOM     14  N   UNL     1       1.438   9.155  18.952  0.00  0.00    +0.000 NA
ENDBRANCH   1  12
BRANCH   7  15
ATOM     15  C   UNL     1       5.111   4.037  17.114  0.00  0.00    +0.000 A 
ATOM     16  C   UNL     1       6.489   4.334  17.399  0.00  0.00    +0.000 A 
ATOM     17  C   UNL     1       7.235   4.556  16.264  0.00  0.00    +0.000 A 
ATOM     18  S   UNL     1       6.303   4.390  14.844  0.00  0.00    +0.000 S 
ATOM     19  C   UNL     1       4.899   4.021  15.745  0.00  0.00    +0.000 A 
ENDBRANCH   7  15
TORSDOF 2
ENDMDL
MODEL 3
REMARK VINA RESULT:      -6.1      2.768      5.472
REMARK  Name = 
REMARK  3 active torsions:
REMARK  status: ('A' for Active; 'I' for Inactive)
REMARK    1  A    between atoms: C_1  and  C_2
REMARK    2  A    between atoms: C_5  and  C_6
REMARK    3  A    between atoms: C_12  and  C_13
REMARK                            x       y       z     vdW  Elec       q    Type
REMARK                         _______ _______ _______ _____ _____    ______ ____
ROOT
ATOM      1  C   UNL     1       2.544   6.228  18.059  0.00  0.00    +0.000 C 
ATOM      2  O   UNL     1       1.597   5.441  17.988  0.00  0.00    +0.000 OA
ATOM      3  N   UNL     1       3.837   5.857  17.694  0.00  0.00    +0.000 N 
ATOM      4  C   UNL     1       5.005   6.714  17.569  0.00  0.00    +0.000 C 
ATOM      5  C   UNL     1       5.645   6.267  16.265  0.00  0.00    +0.000 C 
ATOM      6  C   UNL     1       5.369   4.771  16.222  0.00  0.00    +0.000 C 
ATOM      7  C   UNL     1       4.045   4.596  16.984  0.00  0.00    +0.000 C 
ENDROOT
BRANCH   1  12
ATOM      8  C   UNL     1       0.700  11.378  19.525  0.00  0.00    +0.000 C 
ATOM      9  C   UNL     1       1.307  10.063  19.150  0.00  0.00    +0.000 A 
ATOM     10  C   UNL     1       1.782   9.817  17.863  0.00  0.00    +0.000 A 
ATOM     11  N   UNL     1       2.254   8.610  17.462  0.00  0.00    +0.000 NA
ATOM     12  C   UNL     1       2.234   7.640  18.413  0.00  0.00    +0.000 A 
ATOM     13  C   UNL     1       1.815   7.895  19.712  0.00  0.00    +0.000 A 
ATOM     14  N   UNL     1       1.338   9.105  20.106  0.00  0.00    +0.000 NA
ENDBRANCH   1  12
BRANCH   7  15
ATOM     15  C   UNL     1       4.078   3.436  17.945  0.00  0.00    +0.000 A 
ATOM     16  C   UNL     1       3.495   2.139  17.722  0.00  0.00    +0.000 A 
ATOM     17  C   UNL     1       3.644   1.293  18.796  0.00  0.00    +0.000 A 
ATOM     18  S   UNL     1       4.501   2.028  20.076  0.00  0.00    +0.000 S 
ATOM     19  C   UNL     1       4.674   3.483  19.194  0.00  0.00    +0.000 A 
ENDBRANCH   7  15
TORSDOF 2
ENDMDL
MODEL 4
REMARK VINA RESULT:      -6.1      0.722      1.150
REMARK  Name = 
REMARK  3 active torsions:
REMARK  status: ('A' for Active; 'I' for Inactive)
REMARK    1  A    between atoms: C_1  and  C_2
REMARK    2  A    between atoms: C_5  and  C_6
REMARK    3  A    between atoms: C_12  and  C_13
REMARK                            x       y       z     vdW  Elec       q    Type
REMARK                         _______ _______ _______ _____ _____    ______ ____
ROOT
ATOM      1  C   UNL     1       4.804   4.775  18.135  0.00  0.00    +0.000 C 
ATOM      2  O   UNL     1       5.352   4.075  18.989  0.00  0.00    +0.000 OA
ATOM      3  N   UNL     1       3.652   5.507  18.413  0.00  0.00    +0.000 N 
ATOM      4  C   UNL     1       2.999   6.492  17.565  0.00  0.00    +0.000 C 
ATOM      5  C   UNL     1       2.679   7.634  18.515  0.00  0.00    +0.000 C 
ATOM      6  C   UNL     1       2.365   6.931  19.829  0.00  0.00    +0.000 C 
ATOM      7  C   UNL     1       3.214   5.650  19.800  0.00  0.00    +0.000 C 
ENDROOT
BRANCH   1  12
ATOM      8  C   UNL     1       7.497   4.645  13.154  0.00  0.00    +0.000 C 
ATOM      9  C   UNL     1       6.757   4.802  14.444  0.00  0.00    +0.000 A 
ATOM     10  C   UNL     1       7.340   5.413  15.552  0.00  0.00    +0.000 A 
ATOM     11  N   UNL     1       6.734   5.492  16.763  0.00  0.00    +0.000 NA
ATOM     12  C   UNL     1       5.500   4.927  16.827  0.00  0.00    +0.000 A 
ATOM     13  C   UNL     1       4.891   4.367  15.711  0.00  0.00    +0.000 A 
ATOM     14  N   UNL     1       5.507   4.286  14.502  0.00  0.00    +0.000 NA
ENDBRANCH   1  12
BRANCH   7  15
ATOM     15  C   UNL     1       2.444   4.435  20.250  0.00  0.00    +0.000 A 
ATOM     16  C   UNL     1       1.551   3.654  19.437  0.00  0.00    +0.000 A 
ATOM     17  C   UNL     1       0.954   2.627  20.131  0.00  0.00    +0.000 A 
ATOM     18  S   UNL     1       1.470   2.569  21.757  0.00  0.00    +0.000 S 
ATOM     19  C   UNL     1       2.494   3.920  21.535  0.00  0.00    +0.000 A 
ENDBRANCH   7  15
TORSDOF 2
ENDMDL
MODEL 5
REMARK VINA RESULT:      -5.9      3.037      6.234
REMARK  Name = 
REMARK  3 active torsions:
REMARK  status: ('A' for Active; 'I' for Inactive)
REMARK    1  A    between atoms: C_1  and  C_2
REMARK    2  A    between atoms: C_5  and  C_6
REMARK    3  A    between atoms: C_12  and  C_13
REMARK                            x       y       z     vdW  Elec       q    Type
REMARK                         _______ _______ _______ _____ _____    ______ ____
ROOT
ATOM      1  C   UNL     1       3.696   6.377  18.238  0.00  0.00    +0.000 C 
ATOM      2  O   UNL     1       4.873   6.710  18.393  0.00  0.00    +0.000 OA
ATOM      3  N   UNL     1       3.347   5.120  17.748  0.00  0.00    +0.000 N 
ATOM      4  C   UNL     1       2.017   4.535  17.669  0.00  0.00    +0.000 C 
ATOM      5  C   UNL     1       2.215   3.115  18.173  0.00  0.00    +0.000 C 
ATOM      6  C   UNL     1       3.609   2.749  17.682  0.00  0.00    +0.000 C 
ATOM      7  C   UNL     1       4.372   4.083  17.644  0.00  0.00    +0.000 C 
ENDROOT
BRANCH   1  12
ATOM      8  C   UNL     1       0.203  10.456  20.036  0.00  0.00    +0.000 C 
ATOM      9  C   UNL     1       1.022   9.303  19.549  0.00  0.00    +0.000 A 
ATOM     10  C   UNL     1       1.390   8.258  20.394  0.00  0.00    +0.000 A 
ATOM     11  N   UNL     1       2.207   7.245  20.011  0.00  0.00    +0.000 NA
ATOM     12  C   UNL     1       2.649   7.314  18.729  0.00  0.00    +0.000 A 
ATOM     13  C   UNL     1       2.239   8.322  17.866  0.00  0.00    +0.000 A 
ATOM     14  N   UNL     1       1.426   9.338  18.257  0.00  0.00    +0.000 NA
ENDBRANCH   1  12
BRANCH   7  15
ATOM     15  C   UNL     1       5.182   4.252  16.384  0.00  0.00    +0.000 A 
ATOM     16  C   UNL     1       4.705   4.054  15.042  0.00  0.00    +0.000 A 
ATOM     17  C   UNL     1       5.684   4.237  14.092  0.00  0.00    +0.000 A 
ATOM     18  S   UNL     1       7.179   4.670  14.791  0.00  0.00    +0.000 S 
ATOM     19  C   UNL     1       6.520   4.612  16.367  0.00  0.00    +0.000 A 
ENDBRANCH   7  15
TORSDOF 2
ENDMDL
MODEL 6
REMARK VINA RESULT:      -5.8      2.942      6.207
REMARK  Name = 
REMARK  3 active torsions:
REMARK  status: ('A' for Active; 'I' for Inactive)
REMARK    1  A    between atoms: C_1  and  C_2
REMARK    2  A    between atoms: C_5  and  C_6
REMARK    3  A    between atoms: C_12  and  C_13
REMARK                            x       y       z     vdW  Elec       q    Type
REMARK                         _______ _______ _______ _____ _____    ______ ____
ROOT
ATOM      1  C   UNL     1       5.348   4.550  18.791  0.00  0.00    +0.000 C 
ATOM      2  O   UNL     1       6.119   4.610  19.751  0.00  0.00    +0.000 OA
ATOM      3  N   UNL     1       5.749   4.897  17.502  0.00  0.00    +0.000 N 
ATOM      4  C   UNL     1       5.008   4.722  16.263  0.00  0.00    +0.000 C 
ATOM      5  C   UNL     1       6.042   4.169  15.297  0.00  0.00    +0.000 C 
ATOM      6  C   UNL     1       7.333   4.857  15.719  0.00  0.00    +0.000 C 
ATOM      7  C   UNL     1       7.170   5.102  17.228  0.00  0.00    +0.000 C 
ENDROOT
BRANCH   1  12
ATOM      8  C   UNL     1       0.268   2.058  19.025  0.00  0.00    +0.000 C 
ATOM      9  C   UNL     1       1.605   2.724  19.092  0.00  0.00    +0.000 A 
ATOM     10  C   UNL     1       1.729   4.103  19.251  0.00  0.00    +0.000 A 
ATOM     11  N   UNL     1       2.921   4.750  19.224  0.00  0.00    +0.000 NA
ATOM     12  C   UNL     1       4.005   3.955  19.030  0.00  0.00    +0.000 A 
ATOM     13  C   UNL     1       3.892   2.574  18.928  0.00  0.00    +0.000 A 
ATOM     14  N   UNL     1       2.694   1.932  18.949  0.00  0.00    +0.000 NA
ENDBRANCH   1  12
BRANCH   7  15
ATOM     15  C   UNL     1       7.605   6.485  17.640  0.00  0.00    +0.000 A 
ATOM     16  C   UNL     1       8.349   6.816  18.826  0.00  0.00    +0.000 A 
ATOM     17  C   UNL     1       8.563   8.168  18.964  0.00  0.00    +0.000 A 
ATOM     18  S   UNL     1       7.900   9.056  17.667  0.00  0.00    +0.000 S 
ATOM     19  C   UNL     1       7.322   7.632  16.918  0.00  0.00    +0.000 A 
ENDBRANCH   7  15
TORSDOF 2
ENDMDL
MODEL 7
REMARK VINA RESULT:      -5.5      3.051      6.230
REMARK  Name = 
REMARK  3 active torsions:
REMARK  status: ('A' for Active; 'I' for Inactive)
REMARK    1  A    between atoms: C_1  and  C_2
REMARK    2  A    between atoms: C_5  and  C_6
REMARK    3  A    between atoms: C_12  and  C_13
REMARK                            x       y       z     vdW  Elec       q    Type
REMARK                         _______ _______ _______ _____ _____    ______ ____
ROOT
ATOM      1  C   UNL     1       3.771   6.640  18.134  0.00  0.00    +0.000 C 
ATOM      2  O   UNL     1       4.961   6.891  18.333  0.00  0.00    +0.000 OA
ATOM      3  N   UNL     1       3.343   5.375  17.737  0.00  0.00    +0.000 N 
ATOM      4  C   UNL     1       1.975   4.894  17.627  0.00  0.00    +0.000 C 
ATOM      5  C   UNL     1       2.022   3.516  18.265  0.00  0.00    +0.000 C 
ATOM      6  C   UNL     1       3.405   2.996  17.896  0.00  0.00    +0.000 C 
ATOM      7  C   UNL     1       4.280   4.255  17.789  0.00  0.00    +0.000 C 
ENDROOT
BRANCH   1  12
ATOM      8  C   UNL     1      -0.456  10.145  19.523  0.00  0.00    +0.000 C 
ATOM      9  C   UNL     1       0.741   9.318  19.173  0.00  0.00    +0.000 A 
ATOM     10  C   UNL     1       1.318   9.367  17.906  0.00  0.00    +0.000 A 
ATOM     11  N   UNL     1       2.344   8.566  17.524  0.00  0.00    +0.000 NA
ATOM     12  C   UNL     1       2.783   7.700  18.474  0.00  0.00    +0.000 A 
ATOM     13  C   UNL     1       2.249   7.687  19.757  0.00  0.00    +0.000 A 
ATOM     14  N   UNL     1       1.216   8.488  20.130  0.00  0.00    +0.000 NA
ENDBRANCH   1  12
BRANCH   7  15
ATOM     15  C   UNL     1       5.170   4.239  16.572  0.00  0.00    +0.000 A 
ATOM     16  C   UNL     1       6.594   4.438  16.567  0.00  0.00    +0.000 A 
ATOM     17  C   UNL     1       7.134   4.415  15.301  0.00  0.00    +0.000 A 
ATOM     18  S   UNL     1       5.949   4.133  14.106  0.00  0.00    +0.000 S 
ATOM     19  C   UNL     1       4.710   4.042  15.280  0.00  0.00    +0.000 A 
ENDBRANCH   7  15
TORSDOF 2
ENDMDL
MODEL 8
REMARK VINA RESULT:      -5.3      2.831      6.429
REMARK  Name = 
REMARK  3 active torsions:
REMARK  status: ('A' for Active; 'I' for Inactive)
REMARK    1  A    between atoms: C_1  and  C_2
REMARK    2  A    between atoms: C_5  and  C_6
REMARK    3  A    between atoms: C_12  and  C_13
REMARK                            x       y       z     vdW  Elec       q    Type
REMARK                         _______ _______ _______ _____ _____    ______ ____
ROOT
ATOM      1  C   UNL     1       4.309   4.853  17.728  0.00  0.00    +0.000 C 
ATOM      2  O   UNL     1       3.553   5.198  16.817  0.00  0.00    +0.000 OA
ATOM      3  N   UNL     1       5.681   5.091  17.674  0.00  0.00    +0.000 N 
ATOM      4  C   UNL     1       6.660   4.893  18.732  0.00  0.00    +0.000 C 
ATOM      5  C   UNL     1       7.510   6.151  18.681  0.00  0.00    +0.000 C 
ATOM      6  C   UNL     1       7.546   6.501  17.200  0.00  0.00    +0.000 C 
ATOM      7  C   UNL     1       6.212   5.980  16.642  0.00  0.00    +0.000 C 
ENDROOT
BRANCH   1  12
ATOM      8  C   UNL     1       1.416   2.506  21.994  0.00  0.00    +0.000 C 
ATOM      9  C   UNL     1       2.281   3.136  20.947  0.00  0.00    +0.000 A 
ATOM     10  C   UNL     1       2.489   4.512  20.902  0.00  0.00    +0.000 A 
ATOM     11  N   UNL     1       3.190   5.126  19.916  0.00  0.00    +0.000 NA
ATOM     12  C   UNL     1       3.686   4.298  18.960  0.00  0.00    +0.000 A 
ATOM     13  C   UNL     1       3.529   2.920  19.031  0.00  0.00    +0.000 A 
ATOM     14  N   UNL     1       2.820   2.312  20.018  0.00  0.00    +0.000 NA
ENDBRANCH   1  12
BRANCH   7  15
ATOM     15  C   UNL     1       6.378   5.249  15.335  0.00  0.00    +0.000 A 
ATOM     16  C   UNL     1       7.466   5.412  14.409  0.00  0.00    +0.000 A 
ATOM     17  C   UNL     1       7.327   4.643  13.276  0.00  0.00    +0.000 A 
ATOM     18  S   UNL     1       5.905   3.700  13.315  0.00  0.00    +0.000 S 
ATOM     19  C   UNL     1       5.473   4.320  14.848  0.00  0.00    +0.000 A 
ENDBRANCH   7  15
TORSDOF 2
ENDMDL
MODEL 9
REMARK VINA RESULT:      -5.3      2.967      6.260
REMARK  Name = 
REMARK  3 active torsions:
REMARK  status: ('A' for Active; 'I' for Inactive)
REMARK    1  A    between atoms: C_1  and  C_2
REMARK    2  A    between atoms: C_5  and  C_6
REMARK    3  A    between atoms: C_12  and  C_13
REMARK                            x       y       z     vdW  Elec       q    Type
REMARK                         _______ _______ _______ _____ _____    ______ ____
ROOT
ATOM      1  C   UNL     1       3.462   6.245  18.959  0.00  0.00    +0.000 C 
ATOM      2  O   UNL     1       4.619   6.260  19.384  0.00  0.00    +0.000 OA
ATOM      3  N   UNL     1       2.976   5.192  18.186  0.00  0.00    +0.000 N 
ATOM      4  C   UNL     1       1.605   4.961  17.760  0.00  0.00    +0.000 C 
ATOM      5  C   UNL     1       1.391   3.479  18.014  0.00  0.00    +0.000 C 
ATOM      6  C   UNL     1       2.752   2.863  17.722  0.00  0.00    +0.000 C 
ATOM      7  C   UNL     1       3.763   3.966  18.075  0.00  0.00    +0.000 C 
ENDROOT
BRANCH   1  12
ATOM      8  C   UNL     1      -0.527   9.873  20.693  0.00  0.00    +0.000 C 
ATOM      9  C   UNL     1       0.614   9.002  20.273  0.00  0.00    +0.000 A 
ATOM     10  C   UNL     1       1.284   9.203  19.068  0.00  0.00    +0.000 A 
ATOM     11  N   UNL     1       2.261   8.380  18.613  0.00  0.00    +0.000 NA
ATOM     12  C   UNL     1       2.549   7.327  19.422  0.00  0.00    +0.000 A 
ATOM     13  C   UNL     1       1.924   7.153  20.650  0.00  0.00    +0.000 A 
ATOM     14  N   UNL     1       0.942   7.979  21.097  0.00  0.00    +0.000 NA
ENDBRANCH   1  12
BRANCH   7  15
ATOM     15  C   UNL     1       4.846   4.113  17.037  0.00  0.00    +0.000 A 
ATOM     16  C   UNL     1       4.661   4.054  15.612  0.00  0.00    +0.000 A 
ATOM     17  C   UNL     1       5.840   4.176  14.913  0.00  0.00    +0.000 A 
ATOM     18  S   UNL     1       7.179   4.386  15.950  0.00  0.00    +0.000 S 
ATOM     19  C   UNL     1       6.183   4.312  17.337  0.00  0.00    +0.000 A 
ENDBRANCH   7  15
TORSDOF 2
ENDMDL
