MODEL 1
REMARK VINA RESULT:      -7.9      0.000      0.000
REMARK  Name = 
REMARK  8 active torsions:
REMARK  status: ('A' for Active; 'I' for Inactive)
REMARK    1  A    between atoms: N_5  and  C_6
REMARK    2  A    between atoms: C_8  and  C_9
REMARK    3  A    between atoms: C_9  and  O_10
REMARK    4  A    between atoms: O_10  and  P_11
REMARK    5  A    between atoms: P_11  and  S_13
REMARK    6  A    between atoms: P_11  and  N_14
REMARK    7  A    between atoms: C_15  and  C_17
REMARK    8  A    between atoms: C_23  and  O_24
REMARK                            x       y       z     vdW  Elec       q    Type
REMARK                         _______ _______ _______ _____ _____    ______ ____
ROOT
ATOM      1  C   UNL     1       0.992   9.834  19.754  0.00  0.00    +0.000 C 
ATOM      2  O   UNL     1       1.836   9.183  18.739  0.00  0.00    +0.000 OA
ATOM      3  C   UNL     1       2.318   7.932  19.283  0.00  0.00    +0.000 C 
ATOM      4  C   UNL     1       1.258   7.516  20.305  0.00  0.00    +0.000 C 
ATOM      5  C   UNL     1       0.801   8.837  20.900  0.00  0.00    +0.000 C 
ATOM      6  F   UNL     1       1.598   9.140  21.962  0.00  0.00    +0.000 F 
ATOM      7  F   UNL     1      -0.464   8.741  21.363  0.00  0.00    +0.000 F 
ENDROOT
BRANCH   1  12
ATOM      8  N   UNL     1      -3.628  11.938  17.558  0.00  0.00    +0.000 N 
ATOM      9  C   UNL     1      -2.514  11.372  18.122  0.00  0.00    +0.000 A 
ATOM     10  C   UNL     1      -1.936  10.168  17.504  0.00  0.00    +0.000 A 
ATOM     11  C   UNL     1      -0.817   9.703  18.057  0.00  0.00    +0.000 A 
ATOM     12  N   UNL     1      -0.246  10.326  19.138  0.00  0.00    +0.000 N 
ATOM     13  C   UNL     1      -0.867  11.430  19.749  0.00  0.00    +0.000 A 
ATOM     14  O   UNL     1      -0.387  11.936  20.766  0.00  0.00    +0.000 OA
ATOM     15  N   UNL     1      -2.001  11.941  19.163  0.00  0.00    +0.000 NA
ATOM     16  H   UNL     1      -3.736  11.845  16.556  0.00  0.00    +0.000 HD
ATOM     17  H   UNL     1      -3.800  12.879  17.895  0.00  0.00    +0.000 HD
ENDBRANCH   1  12
BRANCH   4  18
ATOM     18  O   UNL     1       1.789   6.597  21.263  0.00  0.00    +0.000 OA
ATOM     19  H   UNL     1       2.273   5.903  20.770  0.00  0.00    +0.000 HD
ENDBRANCH   4  18
BRANCH   3  20
ATOM     20  C   UNL     1       2.495   6.842  18.179  0.00  0.00    +0.000 C 
BRANCH  20  21
ATOM     21  O   UNL     1       2.182   5.507  18.600  0.00  0.00    +0.000 OA
BRANCH  21  22
ATOM     22  P   UNL     1       3.336   4.494  19.136  0.00  0.00    +0.000 P 
ATOM     23  O   UNL     1       4.294   5.209  20.052  0.00  0.00    +0.000 OA
BRANCH  22  24
ATOM     24  N   UNL     1       4.270   3.887  17.834  0.00  0.00    +0.000 N 
ATOM     25  C   UNL     1       5.593   4.224  17.645  0.00  0.00    +0.000 C 
ATOM     26  O   UNL     1       6.352   4.414  18.591  0.00  0.00    +0.000 OA
ATOM     27  H   UNL     1       3.698   3.712  17.023  0.00  0.00    +0.000 HD
BRANCH  25  28
ATOM     28  C   UNL     1       6.117   4.352  16.248  0.00  0.00    +0.000 A 
ATOM     29  C   UNL     1       5.587   3.694  15.129  0.00  0.00    +0.000 A 
ATOM     30  C   UNL     1       6.108   3.941  13.855  0.00  0.00    +0.000 A 
ATOM     31  C   UNL     1       7.151   4.850  13.719  0.00  0.00    +0.000 A 
ATOM     32  N   UNL     1       7.679   5.515  14.766  0.00  0.00    +0.000 NA
ATOM     33  C   UNL     1       7.142   5.266  15.990  0.00  0.00    +0.000 A 
ENDBRANCH  25  28
ENDBRANCH  22  24
BRANCH  22  34
ATOM     34  S   UNL     1       2.416   2.967  20.217  0.00  0.00    +0.000 S 
ATOM     35  H   UNL     1       2.514   3.600  21.392  0.00  0.00    +0.000 HD
ENDBRANCH  22  34
ENDBRANCH  21  22
ENDBRANCH  20  21
ENDBRANCH   3  20
TORSDOF 8
ENDMDL
MODEL 2
REMARK VINA RESULT:      -7.8      1.268      1.368
REMARK  Name = 
REMARK  8 active torsions:
REMARK  status: ('A' for Active; 'I' for Inactive)
REMARK    1  A    between atoms: N_5  and  C_6
REMARK    2  A    between atoms: C_8  and  C_9
REMARK    3  A    between atoms: C_9  and  O_10
REMARK    4  A    between atoms: O_10  and  P_11
REMARK    5  A    between atoms: P_11  and  S_13
REMARK    6  A    between atoms: P_11  and  N_14
REMARK    7  A    between atoms: C_15  and  C_17
REMARK    8  A    between atoms: C_23  and  O_24
REMARK                            x       y       z     vdW  Elec       q    Type
REMARK                         _______ _______ _______ _____ _____    ______ ____
ROOT
ATOM      1  C   UNL     1       0.262  10.709  18.845  0.00  0.00    +0.000 C 
ATOM      2  O   UNL     1       1.176   9.861  18.063  0.00  0.00    +0.000 OA
ATOM      3  C   UNL     1       1.899   9.007  18.981  0.00  0.00    +0.000 C 
ATOM      4  C   UNL     1       0.971   8.854  20.188  0.00  0.00    +0.000 C 
ATOM      5  C   UNL     1       0.300  10.212  20.293  0.00  0.00    +0.000 C 
ATOM      6  F   UNL     1       1.063  11.021  21.077  0.00  0.00    +0.000 F 
ATOM      7  F   UNL     1      -0.910  10.104  20.886  0.00  0.00    +0.000 F 
ENDROOT
BRANCH   1  12
ATOM      8  N   UNL     1      -4.747  11.051  16.525  0.00  0.00    +0.000 N 
ATOM      9  C   UNL     1      -3.527  10.926  17.136  0.00  0.00    +0.000 A 
ATOM     10  C   UNL     1      -2.731   9.711  16.898  0.00  0.00    +0.000 A 
ATOM     11  C   UNL     1      -1.527   9.676  17.465  0.00  0.00    +0.000 A 
ATOM     12  N   UNL     1      -1.067  10.725  18.221  0.00  0.00    +0.000 N 
ATOM     13  C   UNL     1      -1.884  11.838  18.490  0.00  0.00    +0.000 A 
ATOM     14  O   UNL     1      -1.490  12.740  19.233  0.00  0.00    +0.000 OA
ATOM     15  N   UNL     1      -3.113  11.901  17.878  0.00  0.00    +0.000 NA
ATOM     16  H   UNL     1      -4.861  10.603  15.625  0.00  0.00    +0.000 HD
ATOM     17  H   UNL     1      -5.099  12.002  16.548  0.00  0.00    +0.000 HD
ENDBRANCH   1  12
BRANCH   4  18
ATOM     18  O   UNL     1       1.696   8.470  21.359  0.00  0.00    +0.000 OA
ATOM     19  H   UNL     1       1.615   9.198  22.009  0.00  0.00    +0.000 HD
ENDBRANCH   4  18
BRANCH   3  20
ATOM     20  C   UNL     1       2.236   7.619  18.349  0.00  0.00    +0.000 C 
BRANCH  20  21
ATOM     21  O   UNL     1       2.349   6.544  19.292  0.00  0.00    +0.000 OA
BRANCH  21  22
ATOM     22  P   UNL     1       3.385   5.313  19.054  0.00  0.00    +0.000 P 
ATOM     23  O   UNL     1       4.664   5.533  19.818  0.00  0.00    +0.000 OA
BRANCH  22  24
ATOM     24  N   UNL     1       3.820   5.189  17.402  0.00  0.00    +0.000 N 
ATOM     25  C   UNL     1       4.492   4.101  16.888  0.00  0.00    +0.000 C 
ATOM     26  O   UNL     1       4.295   2.964  17.308  0.00  0.00    +0.000 OA
ATOM     27  H   UNL     1       3.997   6.097  17.001  0.00  0.00    +0.000 HD
BRANCH  25  28
ATOM     28  C   UNL     1       5.480   4.313  15.783  0.00  0.00    +0.000 A 
ATOM     29  C   UNL     1       5.367   3.780  14.491  0.00  0.00    +0.000 A 
ATOM     30  C   UNL     1       6.312   4.101  13.512  0.00  0.00    +0.000 A 
ATOM     31  C   UNL     1       7.356   4.958  13.839  0.00  0.00    +0.000 A 
ATOM     32  N   UNL     1       7.493   5.504  15.064  0.00  0.00    +0.000 NA
ATOM     33  C   UNL     1       6.551   5.186  15.991  0.00  0.00    +0.000 A 
ENDBRANCH  25  28
ENDBRANCH  22  24
BRANCH  22  34
ATOM     34  S   UNL     1       2.496   3.565  19.762  0.00  0.00    +0.000 S 
ATOM     35  H   UNL     1       1.741   3.386  18.671  0.00  0.00    +0.000 HD
ENDBRANCH  22  34
ENDBRANCH  21  22
ENDBRANCH  20  21
ENDBRANCH   3  20
TORSDOF 8
ENDMDL
MODEL 3
REMARK VINA RESULT:      -7.7      2.719      3.904
REMARK  Name = 
REMARK  8 active torsions:
REMARK  status: ('A' for Active; 'I' for Inactive)
REMARK    1  A    between atoms: N_5  and  C_6
REMARK    2  A    between atoms: C_8  and  C_9
REMARK    3  A    between atoms: C_9  and  O_10
REMARK    4  A    between atoms: O_10  and  P_11
REMARK    5  A    between atoms: P_11  and  S_13
REMARK    6  A    between atoms: P_11  and  N_14
REMARK    7  A    between atoms: C_15  and  C_17
REMARK    8  A    between atoms: C_23  and  O_24
REMARK                            x       y       z     vdW  Elec       q    Type
REMARK                         _______ _______ _______ _____ _____    ______ ____
ROOT
ATOM      1  C   UNL     1       0.956  10.275  19.266  0.00  0.00    +0.000 C 
ATOM      2  O   UNL     1       1.839   9.808  18.185  0.00  0.00    +0.000 OA
ATOM      3  C   UNL     1       2.499   8.599  18.628  0.00  0.00    +0.000 C 
ATOM      4  C   UNL     1       1.541   7.982  19.650  0.00  0.00    +0.000 C 
ATOM      5  C   UNL     1       0.940   9.190  20.346  0.00  0.00    +0.000 C 
ATOM      6  F   UNL     1       1.730   9.527  21.402  0.00  0.00    +0.000 F 
ATOM      7  F   UNL     1      -0.285   8.899  20.838  0.00  0.00    +0.000 F 
ENDROOT
BRANCH   1  12
ATOM      8  N   UNL     1      -3.960  11.901  17.321  0.00  0.00    +0.000 N 
ATOM      9  C   UNL     1      -2.768  11.453  17.827  0.00  0.00    +0.000 A 
ATOM     10  C   UNL     1      -2.143  10.261  17.230  0.00  0.00    +0.000 A 
ATOM     11  C   UNL     1      -0.955   9.913  17.720  0.00  0.00    +0.000 A 
ATOM     12  N   UNL     1      -0.358  10.638  18.721  0.00  0.00    +0.000 N 
ATOM     13  C   UNL     1      -1.018  11.726  19.320  0.00  0.00    +0.000 A 
ATOM     14  O   UNL     1      -0.507  12.323  20.270  0.00  0.00    +0.000 OA
ATOM     15  N   UNL     1      -2.227  12.117  18.796  0.00  0.00    +0.000 NA
ATOM     16  H   UNL     1      -4.132  11.743  16.336  0.00  0.00    +0.000 HD
ATOM     17  H   UNL     1      -4.180  12.844  17.621  0.00  0.00    +0.000 HD
ENDBRANCH   1  12
BRANCH   4  18
ATOM     18  O   UNL     1       2.223   7.082  20.527  0.00  0.00    +0.000 OA
ATOM     19  H   UNL     1       2.279   7.512  21.406  0.00  0.00    +0.000 HD
ENDBRANCH   4  18
BRANCH   3  20
ATOM     20  C   UNL     1       2.774   7.615  17.447  0.00  0.00    +0.000 C 
BRANCH  20  21
ATOM     21  O   UNL     1       4.150   7.526  17.051  0.00  0.00    +0.000 OA
BRANCH  21  22
ATOM     22  P   UNL     1       5.042   6.205  17.373  0.00  0.00    +0.000 P 
ATOM     23  O   UNL     1       4.891   5.176  16.284  0.00  0.00    +0.000 OA
BRANCH  22  24
ATOM     24  N   UNL     1       4.524   5.456  18.825  0.00  0.00    +0.000 N 
ATOM     25  C   UNL     1       4.204   4.117  18.899  0.00  0.00    +0.000 C 
ATOM     26  O   UNL     1       4.800   3.274  18.236  0.00  0.00    +0.000 OA
ATOM     27  H   UNL     1       4.024   6.103  19.413  0.00  0.00    +0.000 HD
BRANCH  25  28
ATOM     28  C   UNL     1       3.105   3.684  19.820  0.00  0.00    +0.000 A 
ATOM     29  C   UNL     1       1.735   3.812  19.551  0.00  0.00    +0.000 A 
ATOM     30  C   UNL     1       0.791   3.307  20.451  0.00  0.00    +0.000 A 
ATOM     31  C   UNL     1       1.234   2.676  21.607  0.00  0.00    +0.000 A 
ATOM     32  N   UNL     1       2.541   2.520  21.897  0.00  0.00    +0.000 NA
ATOM     33  C   UNL     1       3.436   3.006  20.996  0.00  0.00    +0.000 A 
ENDBRANCH  25  28
ENDBRANCH  22  24
BRANCH  22  34
ATOM     34  S   UNL     1       7.046   6.774  17.460  0.00  0.00    +0.000 S 
ATOM     35  H   UNL     1       7.511   5.522  17.394  0.00  0.00    +0.000 HD
ENDBRANCH  22  34
ENDBRANCH  21  22
ENDBRANCH  20  21
ENDBRANCH   3  20
TORSDOF 8
ENDMDL
MODEL 4
REMARK VINA RESULT:      -7.7      2.984      4.083
REMARK  Name = 
REMARK  8 active torsions:
REMARK  status: ('A' for Active; 'I' for Inactive)
REMARK    1  A    between atoms: N_5  and  C_6
REMARK    2  A    between atoms: C_8  and  C_9
REMARK    3  A    between atoms: C_9  and  O_10
REMARK    4  A    between atoms: O_10  and  P_11
REMARK    5  A    between atoms: P_11  and  S_13
REMARK    6  A    between atoms: P_11  and  N_14
REMARK    7  A    between atoms: C_15  and  C_17
REMARK    8  A    between atoms: C_23  and  O_24
REMARK                            x       y       z     vdW  Elec       q    Type
REMARK                         _______ _______ _______ _____ _____    ______ ____
ROOT
ATOM      1  C   UNL     1       2.351   5.541  20.591  0.00  0.00    +0.000 C 
ATOM      2  O   UNL     1       3.678   5.006  20.243  0.00  0.00    +0.000 OA
ATOM      3  C   UNL     1       3.548   3.584  20.015  0.00  0.00    +0.000 C 
ATOM      4  C   UNL     1       2.098   3.390  19.563  0.00  0.00    +0.000 C 
ATOM      5  C   UNL     1       1.333   4.418  20.379  0.00  0.00    +0.000 C 
ATOM      6  F   UNL     1       0.962   3.853  21.560  0.00  0.00    +0.000 F 
ATOM      7  F   UNL     1       0.203   4.791  19.740  0.00  0.00    +0.000 F 
ENDROOT
BRANCH   1  12
ATOM      8  N   UNL     1       1.362  10.324  17.994  0.00  0.00    +0.000 N 
ATOM      9  C   UNL     1       1.564   9.115  18.608  0.00  0.00    +0.000 A 
ATOM     10  C   UNL     1       2.163   8.014  17.835  0.00  0.00    +0.000 A 
ATOM     11  C   UNL     1       2.395   6.886  18.502  0.00  0.00    +0.000 A 
ATOM     12  N   UNL     1       2.092   6.773  19.836  0.00  0.00    +0.000 N 
ATOM     13  C   UNL     1       1.451   7.819  20.524  0.00  0.00    +0.000 A 
ATOM     14  O   UNL     1       1.114   7.681  21.702  0.00  0.00    +0.000 OA
ATOM     15  N   UNL     1       1.242   9.002  19.855  0.00  0.00    +0.000 NA
ATOM     16  H   UNL     1       2.009  10.583  17.261  0.00  0.00    +0.000 HD
ATOM     17  H   UNL     1       1.183  11.071  18.656  0.00  0.00    +0.000 HD
ENDBRANCH   1  12
BRANCH   4  18
ATOM     18  O   UNL     1       1.664   2.043  19.766  0.00  0.00    +0.000 OA
ATOM     19  H   UNL     1       2.456   1.506  19.978  0.00  0.00    +0.000 HD
ENDBRANCH   4  18
BRANCH   3  20
ATOM     20  C   UNL     1       4.549   3.069  18.932  0.00  0.00    +0.000 C 
BRANCH  20  21
ATOM     21  O   UNL     1       5.875   3.605  19.040  0.00  0.00    +0.000 OA
BRANCH  21  22
ATOM     22  P   UNL     1       6.383   4.812  18.075  0.00  0.00    +0.000 P 
ATOM     23  O   UNL     1       5.254   5.757  17.757  0.00  0.00    +0.000 OA
BRANCH  22  24
ATOM     24  N   UNL     1       6.944   4.202  16.575  0.00  0.00    +0.000 N 
ATOM     25  C   UNL     1       7.216   5.015  15.495  0.00  0.00    +0.000 C 
ATOM     26  O   UNL     1       7.682   6.141  15.638  0.00  0.00    +0.000 OA
ATOM     27  H   UNL     1       6.590   3.275  16.402  0.00  0.00    +0.000 HD
BRANCH  25  28
ATOM     28  C   UNL     1       6.943   4.502  14.115  0.00  0.00    +0.000 A 
ATOM     29  C   UNL     1       5.879   3.657  13.768  0.00  0.00    +0.000 A 
ATOM     30  C   UNL     1       5.674   3.297  12.433  0.00  0.00    +0.000 A 
ATOM     31  C   UNL     1       6.536   3.792  11.461  0.00  0.00    +0.000 A 
ATOM     32  N   UNL     1       7.561   4.618  11.750  0.00  0.00    +0.000 NA
ATOM     33  C   UNL     1       7.727   4.965  13.054  0.00  0.00    +0.000 A 
ENDBRANCH  25  28
ENDBRANCH  22  24
BRANCH  22  34
ATOM     34  S   UNL     1       7.861   5.880  19.086  0.00  0.00    +0.000 S 
ATOM     35  H   UNL     1       7.183   5.926  20.239  0.00  0.00    +0.000 HD
ENDBRANCH  22  34
ENDBRANCH  21  22
ENDBRANCH  20  21
ENDBRANCH   3  20
TORSDOF 8
ENDMDL
MODEL 5
REMARK VINA RESULT:      -7.6      1.050      1.176
REMARK  Name = 
REMARK  8 active torsions:
REMARK  status: ('A' for Active; 'I' for Inactive)
REMARK    1  A    between atoms: N_5  and  C_6
REMARK    2  A    between atoms: C_8  and  C_9
REMARK    3  A    between atoms: C_9  and  O_10
REMARK    4  A    between atoms: O_10  and  P_11
REMARK    5  A    between atoms: P_11  and  S_13
REMARK    6  A    between atoms: P_11  and  N_14
REMARK    7  A    between atoms: C_15  and  C_17
REMARK    8  A    between atoms: C_23  and  O_24
REMARK                            x       y       z     vdW  Elec       q    Type
REMARK                         _______ _______ _______ _____ _____    ______ ____
ROOT
ATOM      1  C   UNL     1       1.086   9.835  19.549  0.00  0.00    +0.000 C 
ATOM      2  O   UNL     1       1.966   9.197  18.556  0.00  0.00    +0.000 OA
ATOM      3  C   UNL     1       2.462   7.960  19.119  0.00  0.00    +0.000 C 
ATOM      4  C   UNL     1       1.389   7.527  20.121  0.00  0.00    +0.000 C 
ATOM      5  C   UNL     1       0.892   8.841  20.697  0.00  0.00    +0.000 C 
ATOM      6  F   UNL     1       1.659   9.167  21.773  0.00  0.00    +0.000 F 
ATOM      7  F   UNL     1      -0.381   8.721  21.133  0.00  0.00    +0.000 F 
ENDROOT
BRANCH   1  12
ATOM      8  N   UNL     1      -3.524  11.830  17.232  0.00  0.00    +0.000 N 
ATOM      9  C   UNL     1      -2.412  11.292  17.827  0.00  0.00    +0.000 A 
ATOM     10  C   UNL     1      -1.818  10.072  17.256  0.00  0.00    +0.000 A 
ATOM     11  C   UNL     1      -0.702   9.634  17.836  0.00  0.00    +0.000 A 
ATOM     12  N   UNL     1      -0.149  10.297  18.903  0.00  0.00    +0.000 N 
ATOM     13  C   UNL     1      -0.785  11.416  19.470  0.00  0.00    +0.000 A 
ATOM     14  O   UNL     1      -0.320  11.958  20.476  0.00  0.00    +0.000 OA
ATOM     15  N   UNL     1      -1.916  11.898  18.855  0.00  0.00    +0.000 NA
ATOM     16  H   UNL     1      -3.620  11.703  16.233  0.00  0.00    +0.000 HD
ATOM     17  H   UNL     1      -3.706  12.780  17.536  0.00  0.00    +0.000 HD
ENDBRANCH   1  12
BRANCH   4  18
ATOM     18  O   UNL     1       1.919   6.625  21.096  0.00  0.00    +0.000 OA
ATOM     19  H   UNL     1       1.825   5.717  20.740  0.00  0.00    +0.000 HD
ENDBRANCH   4  18
BRANCH   3  20
ATOM     20  C   UNL     1       2.686   6.867  18.026  0.00  0.00    +0.000 C 
BRANCH  20  21
ATOM     21  O   UNL     1       4.061   6.538  17.781  0.00  0.00    +0.000 OA
BRANCH  21  22
ATOM     22  P   UNL     1       4.695   5.124  18.273  0.00  0.00    +0.000 P 
ATOM     23  O   UNL     1       5.723   5.343  19.351  0.00  0.00    +0.000 OA
BRANCH  22  24
ATOM     24  N   UNL     1       5.503   4.334  16.984  0.00  0.00    +0.000 N 
ATOM     25  C   UNL     1       6.568   4.898  16.315  0.00  0.00    +0.000 C 
ATOM     26  O   UNL     1       7.388   5.609  16.889  0.00  0.00    +0.000 OA
ATOM     27  H   UNL     1       4.876   3.735  16.472  0.00  0.00    +0.000 HD
BRANCH  25  28
ATOM     28  C   UNL     1       6.730   4.628  14.851  0.00  0.00    +0.000 A 
ATOM     29  C   UNL     1       5.982   3.693  14.120  0.00  0.00    +0.000 A 
ATOM     30  C   UNL     1       6.165   3.573  12.739  0.00  0.00    +0.000 A 
ATOM     31  C   UNL     1       7.091   4.395  12.107  0.00  0.00    +0.000 A 
ATOM     32  N   UNL     1       7.819   5.315  12.770  0.00  0.00    +0.000 NA
ATOM     33  C   UNL     1       7.609   5.422  14.109  0.00  0.00    +0.000 A 
ENDBRANCH  25  28
ENDBRANCH  22  24
BRANCH  22  34
ATOM     34  S   UNL     1       3.159   3.958  19.063  0.00  0.00    +0.000 S 
ATOM     35  H   UNL     1       3.403   4.312  20.330  0.00  0.00    +0.000 HD
ENDBRANCH  22  34
ENDBRANCH  21  22
ENDBRANCH  20  21
ENDBRANCH   3  20
TORSDOF 8
ENDMDL
MODEL 6
REMARK VINA RESULT:      -7.6      2.738      3.922
REMARK  Name = 
REMARK  8 active torsions:
REMARK  status: ('A' for Active; 'I' for Inactive)
REMARK    1  A    between atoms: N_5  and  C_6
REMARK    2  A    between atoms: C_8  and  C_9
REMARK    3  A    between atoms: C_9  and  O_10
REMARK    4  A    between atoms: O_10  and  P_11
REMARK    5  A    between atoms: P_11  and  S_13
REMARK    6  A    between atoms: P_11  and  N_14
REMARK    7  A    between atoms: C_15  and  C_17
REMARK    8  A    between atoms: C_23  and  O_24
REMARK                            x       y       z     vdW  Elec       q    Type
REMARK                         _______ _______ _______ _____ _____    ______ ____
ROOT
ATOM      1  C   UNL     1       0.775  10.447  19.062  0.00  0.00    +0.000 C 
ATOM      2  O   UNL     1       1.749   9.780  18.182  0.00  0.00    +0.000 OA
ATOM      3  C   UNL     1       2.371   8.706  18.926  0.00  0.00    +0.000 C 
ATOM      4  C   UNL     1       1.330   8.300  19.971  0.00  0.00    +0.000 C 
ATOM      5  C   UNL     1       0.668   9.615  20.342  0.00  0.00    +0.000 C 
ATOM      6  F   UNL     1       1.364  10.184  21.365  0.00  0.00    +0.000 F 
ATOM      7  F   UNL     1      -0.593   9.409  20.781  0.00  0.00    +0.000 F 
ENDROOT
BRANCH   1  12
ATOM      8  N   UNL     1      -3.962  11.522  16.417  0.00  0.00    +0.000 N 
ATOM      9  C   UNL     1      -2.816  11.215  17.102  0.00  0.00    +0.000 A 
ATOM     10  C   UNL     1      -2.121   9.952  16.800  0.00  0.00    +0.000 A 
ATOM     11  C   UNL     1      -0.979   9.740  17.450  0.00  0.00    +0.000 A 
ATOM     12  N   UNL     1      -0.488  10.659  18.344  0.00  0.00    +0.000 N 
ATOM     13  C   UNL     1      -1.216  11.819  18.664  0.00  0.00    +0.000 A 
ATOM     14  O   UNL     1      -0.804  12.600  19.524  0.00  0.00    +0.000 OA
ATOM     15  N   UNL     1      -2.377  12.066  17.971  0.00  0.00    +0.000 NA
ATOM     16  H   UNL     1      -4.041  11.176  15.469  0.00  0.00    +0.000 HD
ATOM     17  H   UNL     1      -4.223  12.497  16.511  0.00  0.00    +0.000 HD
ENDBRANCH   1  12
BRANCH   4  18
ATOM     18  O   UNL     1       1.936   7.620  21.074  0.00  0.00    +0.000 OA
ATOM     19  H   UNL     1       2.899   7.800  21.039  0.00  0.00    +0.000 HD
ENDBRANCH   4  18
BRANCH   3  20
ATOM     20  C   UNL     1       2.750   7.500  18.009  0.00  0.00    +0.000 C 
BRANCH  20  21
ATOM     21  O   UNL     1       3.972   7.665  17.277  0.00  0.00    +0.000 OA
BRANCH  21  22
ATOM     22  P   UNL     1       5.057   6.460  17.155  0.00  0.00    +0.000 P 
ATOM     23  O   UNL     1       5.013   5.833  15.787  0.00  0.00    +0.000 OA
BRANCH  22  24
ATOM     24  N   UNL     1       4.712   5.210  18.275  0.00  0.00    +0.000 N 
ATOM     25  C   UNL     1       3.736   4.262  18.055  0.00  0.00    +0.000 C 
ATOM     26  O   UNL     1       3.496   3.833  16.930  0.00  0.00    +0.000 OA
ATOM     27  H   UNL     1       4.890   5.506  19.221  0.00  0.00    +0.000 HD
BRANCH  25  28
ATOM     28  C   UNL     1       2.957   3.738  19.222  0.00  0.00    +0.000 A 
ATOM     29  C   UNL     1       3.490   2.955  20.256  0.00  0.00    +0.000 A 
ATOM     30  C   UNL     1       2.689   2.579  21.338  0.00  0.00    +0.000 A 
ATOM     31  C   UNL     1       1.363   2.998  21.373  0.00  0.00    +0.000 A 
ATOM     32  N   UNL     1       0.817   3.763  20.407  0.00  0.00    +0.000 NA
ATOM     33  C   UNL     1       1.624   4.126  19.375  0.00  0.00    +0.000 A 
ENDBRANCH  25  28
ENDBRANCH  22  24
BRANCH  22  34
ATOM     34  S   UNL     1       6.960   7.263  17.442  0.00  0.00    +0.000 S 
ATOM     35  H   UNL     1       7.571   6.072  17.465  0.00  0.00    +0.000 HD
ENDBRANCH  22  34
ENDBRANCH  21  22
ENDBRANCH  20  21
ENDBRANCH   3  20
TORSDOF 8
ENDMDL
MODEL 7
REMARK VINA RESULT:      -7.5      2.983      9.057
REMARK  Name = 
REMARK  8 active torsions:
REMARK  status: ('A' for Active; 'I' for Inactive)
REMARK    1  A    between atoms: N_5  and  C_6
REMARK    2  A    between atoms: C_8  and  C_9
REMARK    3  A    between atoms: C_9  and  O_10
REMARK    4  A    between atoms: O_10  and  P_11
REMARK    5  A    between atoms: P_11  and  S_13
REMARK    6  A    between atoms: P_11  and  N_14
REMARK    7  A    between atoms: C_15  and  C_17
REMARK    8  A    between atoms: C_23  and  O_24
REMARK                            x       y       z     vdW  Elec       q    Type
REMARK                         _______ _______ _______ _____ _____    ______ ____
ROOT
ATOM      1  C   UNL     1       2.677   5.692  18.033  0.00  0.00    +0.000 C 
ATOM      2  O   UNL     1       2.042   6.954  17.619  0.00  0.00    +0.000 OA
ATOM      3  C   UNL     1       1.539   7.617  18.802  0.00  0.00    +0.000 C 
ATOM      4  C   UNL     1       2.437   7.125  19.939  0.00  0.00    +0.000 C 
ATOM      5  C   UNL     1       2.726   5.682  19.563  0.00  0.00    +0.000 C 
ATOM      6  F   UNL     1       1.753   4.887  20.087  0.00  0.00    +0.000 F 
ATOM      7  F   UNL     1       3.902   5.277  20.089  0.00  0.00    +0.000 F 
ENDROOT
BRANCH   1  12
ATOM      8  N   UNL     1       7.471   4.872  15.397  0.00  0.00    +0.000 N 
ATOM      9  C   UNL     1       6.312   5.083  16.099  0.00  0.00    +0.000 A 
ATOM     10  C   UNL     1       5.994   6.446  16.556  0.00  0.00    +0.000 A 
ATOM     11  C   UNL     1       4.825   6.600  17.174  0.00  0.00    +0.000 A 
ATOM     12  N   UNL     1       3.975   5.539  17.362  0.00  0.00    +0.000 N 
ATOM     13  C   UNL     1       4.345   4.237  16.980  0.00  0.00    +0.000 A 
ATOM     14  O   UNL     1       3.607   3.279  17.223  0.00  0.00    +0.000 OA
ATOM     15  N   UNL     1       5.532   4.074  16.307  0.00  0.00    +0.000 NA
ATOM     16  H   UNL     1       7.808   5.634  14.822  0.00  0.00    +0.000 HD
ATOM     17  H   UNL     1       7.481   3.976  14.922  0.00  0.00    +0.000 HD
ENDBRANCH   1  12
BRANCH   4  18
ATOM     18  O   UNL     1       1.801   7.280  21.211  0.00  0.00    +0.000 OA
ATOM     19  H   UNL     1       0.903   6.893  21.141  0.00  0.00    +0.000 HD
ENDBRANCH   4  18
BRANCH   3  20
ATOM     20  C   UNL     1       1.596   9.173  18.672  0.00  0.00    +0.000 C 
BRANCH  20  21
ATOM     21  O   UNL     1       1.442   9.883  19.908  0.00  0.00    +0.000 OA
BRANCH  21  22
ATOM     22  P   UNL     1      -0.026  10.162  20.548  0.00  0.00    +0.000 P 
ATOM     23  O   UNL     1      -0.404   9.076  21.521  0.00  0.00    +0.000 OA
BRANCH  22  24
ATOM     24  N   UNL     1      -1.234  10.168  19.333  0.00  0.00    +0.000 N 
ATOM     25  C   UNL     1      -1.577  11.302  18.628  0.00  0.00    +0.000 C 
ATOM     26  O   UNL     1      -0.744  12.153  18.330  0.00  0.00    +0.000 OA
ATOM     27  H   UNL     1      -1.950   9.486  19.525  0.00  0.00    +0.000 HD
BRANCH  25  28
ATOM     28  C   UNL     1      -3.002  11.493  18.210  0.00  0.00    +0.000 A 
ATOM     29  C   UNL     1      -4.020  11.993  19.035  0.00  0.00    +0.000 A 
ATOM     30  C   UNL     1      -5.304  12.200  18.521  0.00  0.00    +0.000 A 
ATOM     31  C   UNL     1      -5.550  11.907  17.184  0.00  0.00    +0.000 A 
ATOM     32  N   UNL     1      -4.596  11.438  16.355  0.00  0.00    +0.000 NA
ATOM     33  C   UNL     1      -3.354  11.262  16.878  0.00  0.00    +0.000 A 
ENDBRANCH  25  28
ENDBRANCH  22  24
BRANCH  22  34
ATOM     34  S   UNL     1       0.046  11.969  21.586  0.00  0.00    +0.000 S 
ATOM     35  H   UNL     1       1.078  11.605  22.355  0.00  0.00    +0.000 HD
ENDBRANCH  22  34
ENDBRANCH  21  22
ENDBRANCH  20  21
ENDBRANCH   3  20
TORSDOF 8
ENDMDL
MODEL 8
REMARK VINA RESULT:      -7.4      1.277      1.318
REMARK  Name = 
REMARK  8 active torsions:
REMARK  status: ('A' for Active; 'I' for Inactive)
REMARK    1  A    between atoms: N_5  and  C_6
REMARK    2  A    between atoms: C_8  and  C_9
REMARK    3  A    between atoms: C_9  and  O_10
REMARK    4  A    between atoms: O_10  and  P_11
REMARK    5  A    between atoms: P_11  and  S_13
REMARK    6  A    between atoms: P_11  and  N_14
REMARK    7  A    between atoms: C_15  and  C_17
REMARK    8  A    between atoms: C_23  and  O_24
REMARK                            x       y       z     vdW  Elec       q    Type
REMARK                         _______ _______ _______ _____ _____    ______ ____
ROOT
ATOM      1  C   UNL     1       1.032  10.232  19.086  0.00  0.00    +0.000 C 
ATOM      2  O   UNL     1       1.764   9.097  18.502  0.00  0.00    +0.000 OA
ATOM      3  C   UNL     1       2.130   8.195  19.573  0.00  0.00    +0.000 C 
ATOM      4  C   UNL     1       1.070   8.420  20.654  0.00  0.00    +0.000 C 
ATOM      5  C   UNL     1       0.779   9.907  20.560  0.00  0.00    +0.000 C 
ATOM      6  F   UNL     1       1.641  10.577  21.373  0.00  0.00    +0.000 F 
ATOM      7  F   UNL     1      -0.472  10.178  20.993  0.00  0.00    +0.000 F 
ENDROOT
BRANCH   1  12
ATOM      8  N   UNL     1      -3.418  11.580  16.088  0.00  0.00    +0.000 N 
ATOM      9  C   UNL     1      -2.350  11.219  16.868  0.00  0.00    +0.000 A 
ATOM     10  C   UNL     1      -1.918   9.812  16.879  0.00  0.00    +0.000 A 
ATOM     11  C   UNL     1      -0.836   9.534  17.603  0.00  0.00    +0.000 A 
ATOM     12  N   UNL     1      -0.169  10.518  18.291  0.00  0.00    +0.000 N 
ATOM     13  C   UNL     1      -0.654  11.838  18.319  0.00  0.00    +0.000 A 
ATOM     14  O   UNL     1      -0.092  12.697  19.002  0.00  0.00    +0.000 OA
ATOM     15  N   UNL     1      -1.748  12.142  17.545  0.00  0.00    +0.000 NA
ATOM     16  H   UNL     1      -3.568  11.053  15.238  0.00  0.00    +0.000 HD
ATOM     17  H   UNL     1      -3.482  12.584  15.956  0.00  0.00    +0.000 HD
ENDBRANCH   1  12
BRANCH   4  18
ATOM     18  O   UNL     1       1.536   7.996  21.937  0.00  0.00    +0.000 OA
ATOM     19  H   UNL     1       2.389   7.533  21.804  0.00  0.00    +0.000 HD
ENDBRANCH   4  18
BRANCH   3  20
ATOM     20  C   UNL     1       2.149   6.705  19.104  0.00  0.00    +0.000 C 
BRANCH  20  21
ATOM     21  O   UNL     1       2.643   5.777  20.080  0.00  0.00    +0.000 OA
BRANCH  21  22
ATOM     22  P   UNL     1       2.622   4.173  19.811  0.00  0.00    +0.000 P 
ATOM     23  O   UNL     1       3.205   3.426  20.981  0.00  0.00    +0.000 OA
BRANCH  22  24
ATOM     24  N   UNL     1       3.578   3.768  18.449  0.00  0.00    +0.000 N 
ATOM     25  C   UNL     1       4.937   3.995  18.397  0.00  0.00    +0.000 C 
ATOM     26  O   UNL     1       5.646   3.894  19.394  0.00  0.00    +0.000 OA
ATOM     27  H   UNL     1       3.047   3.836  17.595  0.00  0.00    +0.000 HD
BRANCH  25  28
ATOM     28  C   UNL     1       5.561   4.368  17.088  0.00  0.00    +0.000 A 
ATOM     29  C   UNL     1       4.851   4.732  15.935  0.00  0.00    +0.000 A 
ATOM     30  C   UNL     1       5.536   5.133  14.784  0.00  0.00    +0.000 A 
ATOM     31  C   UNL     1       6.925   5.169  14.805  0.00  0.00    +0.000 A 
ATOM     32  N   UNL     1       7.645   4.841  15.897  0.00  0.00    +0.000 NA
ATOM     33  C   UNL     1       6.952   4.471  17.006  0.00  0.00    +0.000 A 
ENDBRANCH  25  28
ENDBRANCH  22  24
BRANCH  22  34
ATOM     34  S   UNL     1       0.638   3.575  19.580  0.00  0.00    +0.000 S 
ATOM     35  H   UNL     1       0.315   4.597  18.779  0.00  0.00    +0.000 HD
ENDBRANCH  22  34
ENDBRANCH  21  22
ENDBRANCH  20  21
ENDBRANCH   3  20
TORSDOF 8
ENDMDL
MODEL 9
REMARK VINA RESULT:      -7.4      3.611      9.752
REMARK  Name = 
REMARK  8 active torsions:
REMARK  status: ('A' for Active; 'I' for Inactive)
REMARK    1  A    between atoms: N_5  and  C_6
REMARK    2  A    between atoms: C_8  and  C_9
REMARK    3  A    between atoms: C_9  and  O_10
REMARK    4  A    between atoms: O_10  and  P_11
REMARK    5  A    between atoms: P_11  and  S_13
REMARK    6  A    between atoms: P_11  and  N_14
REMARK    7  A    between atoms: C_15  and  C_17
REMARK    8  A    between atoms: C_23  and  O_24
REMARK                            x       y       z     vdW  Elec       q    Type
REMARK                         _______ _______ _______ _____ _____    ______ ____
ROOT
ATOM      1  C   UNL     1       2.590   5.907  18.064  0.00  0.00    +0.000 C 
ATOM      2  O   UNL     1       2.058   7.204  17.615  0.00  0.00    +0.000 OA
ATOM      3  C   UNL     1       1.534   7.904  18.767  0.00  0.00    +0.000 C 
ATOM      4  C   UNL     1       2.336   7.361  19.953  0.00  0.00    +0.000 C 
ATOM      5  C   UNL     1       2.555   5.902  19.595  0.00  0.00    +0.000 C 
ATOM      6  F   UNL     1       1.507   5.172  20.066  0.00  0.00    +0.000 F 
ATOM      7  F   UNL     1       3.673   5.426  20.185  0.00  0.00    +0.000 F 
ENDROOT
BRANCH   1  12
ATOM      8  N   UNL     1       7.456   4.781  15.687  0.00  0.00    +0.000 N 
ATOM      9  C   UNL     1       6.277   5.064  16.327  0.00  0.00    +0.000 A 
ATOM     10  C   UNL     1       6.037   6.435  16.805  0.00  0.00    +0.000 A 
ATOM     11  C   UNL     1       4.848   6.665  17.359  0.00  0.00    +0.000 A 
ATOM     12  N   UNL     1       3.909   5.670  17.466  0.00  0.00    +0.000 N 
ATOM     13  C   UNL     1       4.201   4.353  17.067  0.00  0.00    +0.000 A 
ATOM     14  O   UNL     1       3.379   3.450  17.238  0.00  0.00    +0.000 OA
ATOM     15  N   UNL     1       5.411   4.114  16.459  0.00  0.00    +0.000 NA
ATOM     16  H   UNL     1       7.884   5.528  15.156  0.00  0.00    +0.000 HD
ATOM     17  H   UNL     1       7.425   3.899  15.187  0.00  0.00    +0.000 HD
ENDBRANCH   1  12
BRANCH   4  18
ATOM     18  O   UNL     1       1.643   7.562  21.187  0.00  0.00    +0.000 OA
ATOM     19  H   UNL     1       0.954   6.868  21.256  0.00  0.00    +0.000 HD
ENDBRANCH   4  18
BRANCH   3  20
ATOM     20  C   UNL     1       1.697   9.451  18.638  0.00  0.00    +0.000 C 
BRANCH  20  21
ATOM     21  O   UNL     1       1.193  10.201  19.753  0.00  0.00    +0.000 OA
BRANCH  21  22
ATOM     22  P   UNL     1       0.182  11.457  19.543  0.00  0.00    +0.000 P 
ATOM     23  O   UNL     1       0.789  12.488  18.629  0.00  0.00    +0.000 OA
BRANCH  22  24
ATOM     24  N   UNL     1      -0.131  12.248  21.030  0.00  0.00    +0.000 N 
ATOM     25  C   UNL     1      -0.854  11.663  22.048  0.00  0.00    +0.000 C 
ATOM     26  O   UNL     1      -0.794  10.458  22.271  0.00  0.00    +0.000 OA
ATOM     27  H   UNL     1      -0.193  13.246  20.908  0.00  0.00    +0.000 HD
BRANCH  25  28
ATOM     28  C   UNL     1      -1.728  12.526  22.904  0.00  0.00    +0.000 A 
ATOM     29  C   UNL     1      -3.006  12.171  23.361  0.00  0.00    +0.000 A 
ATOM     30  C   UNL     1      -3.708  13.024  24.218  0.00  0.00    +0.000 A 
ATOM     31  C   UNL     1      -3.119  14.220  24.611  0.00  0.00    +0.000 A 
ATOM     32  N   UNL     1      -1.888  14.592  24.206  0.00  0.00    +0.000 NA
ATOM     33  C   UNL     1      -1.222  13.736  23.387  0.00  0.00    +0.000 A 
ENDBRANCH  25  28
ENDBRANCH  22  24
BRANCH  22  34
ATOM     34  S   UNL     1      -1.566  10.746  18.654  0.00  0.00    +0.000 S 
ATOM     35  H   UNL     1      -1.480  11.560  17.595  0.00  0.00    +0.000 HD
ENDBRANCH  22  34
ENDBRANCH  21  22
ENDBRANCH  20  21
ENDBRANCH   3  20
TORSDOF 8
ENDMDL
