MODEL 1
REMARK VINA RESULT:      -7.5      0.000      0.000
REMARK  Name = 
REMARK  4 active torsions:
REMARK  status: ('A' for Active; 'I' for Inactive)
REMARK    1  A    between atoms: C_1  and  C_2
REMARK    2  A    between atoms: C_10  and  C_11
REMARK    3  A    between atoms: C_11  and  C_13
REMARK    4  A    between atoms: N_18  and  C_19
REMARK                            x       y       z     vdW  Elec       q    Type
REMARK                         _______ _______ _______ _____ _____    ______ ____
ROOT
ATOM      1  C   UNL     1       1.266  11.144  19.074  0.00  0.00    +0.000 C 
ATOM      2  O   UNL     1       1.583  11.745  18.052  0.00  0.00    +0.000 OA
ATOM      3  N   UNL     1       1.306   9.748  19.179  0.00  0.00    +0.000 N 
ATOM      4  C   UNL     1       1.814   8.954  18.056  0.00  0.00    +0.000 C 
ATOM      5  C   UNL     1       2.803   7.866  18.518  0.00  0.00    +0.000 C 
ATOM      6  N   UNL     1       2.244   7.066  19.620  0.00  0.00    +0.000 N 
ATOM      7  C   UNL     1       1.731   7.845  20.766  0.00  0.00    +0.000 C 
ATOM      8  C   UNL     1       0.755   8.949  20.287  0.00  0.00    +0.000 C 
ENDROOT
BRANCH   6   9
ATOM      9  C   UNL     1       1.900   5.737  19.454  0.00  0.00    +0.000 A 
ATOM     10  C   UNL     1       1.964   5.124  18.191  0.00  0.00    +0.000 A 
ATOM     11  C   UNL     1       1.576   3.792  17.995  0.00  0.00    +0.000 A 
ATOM     12  C   UNL     1       1.119   3.034  19.068  0.00  0.00    +0.000 A 
ATOM     13  C   UNL     1       1.049   3.611  20.329  0.00  0.00    +0.000 A 
ATOM     14  C   UNL     1       1.432   4.945  20.514  0.00  0.00    +0.000 A 
ENDBRANCH   6   9
BRANCH   1  15
ATOM     15  C   UNL     1       0.916  11.964  20.323  0.00  0.00    +0.000 C 
ATOM     16  O   UNL     1       1.773  11.949  21.210  0.00  0.00    +0.000 OA
BRANCH  15  26
ATOM     17  C   UNL     1      -0.236  14.553  18.521  0.00  0.00    +0.000 C 
ATOM     18  C   UNL     1      -0.782  13.826  19.697  0.00  0.00    +0.000 A 
ATOM     19  N   UNL     1      -1.988  14.239  20.227  0.00  0.00    +0.000 N 
ATOM     20  C   UNL     1      -2.334  13.486  21.315  0.00  0.00    +0.000 A 
ATOM     21  C   UNL     1      -3.458  13.578  22.146  0.00  0.00    +0.000 A 
ATOM     22  C   UNL     1      -3.559  12.678  23.209  0.00  0.00    +0.000 A 
ATOM     23  C   UNL     1      -2.568  11.724  23.426  0.00  0.00    +0.000 A 
ATOM     24  C   UNL     1      -1.452  11.646  22.581  0.00  0.00    +0.000 A 
ATOM     25  C   UNL     1      -1.321  12.546  21.496  0.00  0.00    +0.000 A 
ATOM     26  C   UNL     1      -0.326  12.755  20.465  0.00  0.00    +0.000 A 
ATOM     27  H   UNL     1      -2.539  15.010  19.876  0.00  0.00    +0.000 HD
ENDBRANCH  15  26
ENDBRANCH   1  15
TORSDOF 3
ENDMDL
MODEL 2
REMARK VINA RESULT:      -7.5      2.719      8.876
REMARK  Name = 
REMARK  4 active torsions:
REMARK  status: ('A' for Active; 'I' for Inactive)
REMARK    1  A    between atoms: C_1  and  C_2
REMARK    2  A    between atoms: C_10  and  C_11
REMARK    3  A    between atoms: C_11  and  C_13
REMARK    4  A    between atoms: N_18  and  C_19
REMARK                            x       y       z     vdW  Elec       q    Type
REMARK                         _______ _______ _______ _____ _____    ______ ____
ROOT
ATOM      1  C   UNL     1       2.277   8.016  18.399  0.00  0.00    +0.000 C 
ATOM      2  O   UNL     1       2.542   8.279  17.229  0.00  0.00    +0.000 OA
ATOM      3  N   UNL     1       1.611   8.908  19.247  0.00  0.00    +0.000 N 
ATOM      4  C   UNL     1       1.135  10.190  18.718  0.00  0.00    +0.000 C 
ATOM      5  C   UNL     1      -0.311  10.494  19.155  0.00  0.00    +0.000 C 
ATOM      6  N   UNL     1      -0.474  10.343  20.610  0.00  0.00    +0.000 N 
ATOM      7  C   UNL     1      -0.007   9.057  21.166  0.00  0.00    +0.000 C 
ATOM      8  C   UNL     1       1.439   8.751  20.702  0.00  0.00    +0.000 C 
ENDROOT
BRANCH   6   9
ATOM      9  C   UNL     1      -0.708  11.429  21.434  0.00  0.00    +0.000 A 
ATOM     10  C   UNL     1      -0.078  12.663  21.202  0.00  0.00    +0.000 A 
ATOM     11  C   UNL     1      -0.267  13.761  22.052  0.00  0.00    +0.000 A 
ATOM     12  C   UNL     1      -1.103  13.651  23.157  0.00  0.00    +0.000 A 
ATOM     13  C   UNL     1      -1.744  12.445  23.410  0.00  0.00    +0.000 A 
ATOM     14  C   UNL     1      -1.544  11.352  22.559  0.00  0.00    +0.000 A 
ENDBRANCH   6   9
BRANCH   1  15
ATOM     15  C   UNL     1       2.595   6.608  18.918  0.00  0.00    +0.000 C 
ATOM     16  O   UNL     1       2.300   6.411  20.099  0.00  0.00    +0.000 OA
BRANCH  15  26
ATOM     17  C   UNL     1       1.317   3.643  17.992  0.00  0.00    +0.000 C 
ATOM     18  C   UNL     1       2.615   4.311  17.707  0.00  0.00    +0.000 A 
ATOM     19  N   UNL     1       3.542   3.646  16.930  0.00  0.00    +0.000 N 
ATOM     20  C   UNL     1       4.685   4.382  16.786  0.00  0.00    +0.000 A 
ATOM     21  C   UNL     1       5.866   4.077  16.097  0.00  0.00    +0.000 A 
ATOM     22  C   UNL     1       6.898   5.017  16.122  0.00  0.00    +0.000 A 
ATOM     23  C   UNL     1       6.748   6.215  16.814  0.00  0.00    +0.000 A 
ATOM     24  C   UNL     1       5.558   6.503  17.496  0.00  0.00    +0.000 A 
ATOM     25  C   UNL     1       4.493   5.570  17.490  0.00  0.00    +0.000 A 
ATOM     26  C   UNL     1       3.172   5.534  18.080  0.00  0.00    +0.000 A 
ATOM     27  H   UNL     1       3.409   2.726  16.533  0.00  0.00    +0.000 HD
ENDBRANCH  15  26
ENDBRANCH   1  15
TORSDOF 3
ENDMDL
MODEL 3
REMARK VINA RESULT:      -7.4      1.216      2.356
REMARK  Name = 
REMARK  4 active torsions:
REMARK  status: ('A' for Active; 'I' for Inactive)
REMARK    1  A    between atoms: C_1  and  C_2
REMARK    2  A    between atoms: C_10  and  C_11
REMARK    3  A    between atoms: C_11  and  C_13
REMARK    4  A    between atoms: N_18  and  C_19
REMARK                            x       y       z     vdW  Elec       q    Type
REMARK                         _______ _______ _______ _____ _____    ______ ____
ROOT
ATOM      1  C   UNL     1       0.884  10.970  19.530  0.00  0.00    +0.000 C 
ATOM      2  O   UNL     1       0.871  11.689  18.534  0.00  0.00    +0.000 OA
ATOM      3  N   UNL     1       1.058   9.583  19.464  0.00  0.00    +0.000 N 
ATOM      4  C   UNL     1       1.311   8.947  18.168  0.00  0.00    +0.000 C 
ATOM      5  C   UNL     1       2.468   7.932  18.238  0.00  0.00    +0.000 C 
ATOM      6  N   UNL     1       2.284   6.985  19.350  0.00  0.00    +0.000 N 
ATOM      7  C   UNL     1       2.033   7.603  20.668  0.00  0.00    +0.000 C 
ATOM      8  C   UNL     1       0.884   8.637  20.580  0.00  0.00    +0.000 C 
ENDROOT
BRANCH   6   9
ATOM      9  C   UNL     1       2.013   5.646  19.130  0.00  0.00    +0.000 A 
ATOM     10  C   UNL     1       1.553   4.821  20.169  0.00  0.00    +0.000 A 
ATOM     11  C   UNL     1       1.317   3.453  19.977  0.00  0.00    +0.000 A 
ATOM     12  C   UNL     1       1.529   2.877  18.730  0.00  0.00    +0.000 A 
ATOM     13  C   UNL     1       1.979   3.670  17.681  0.00  0.00    +0.000 A 
ATOM     14  C   UNL     1       2.219   5.034  17.884  0.00  0.00    +0.000 A 
ENDBRANCH   6   9
BRANCH   1  15
ATOM     15  C   UNL     1       0.814  11.637  20.910  0.00  0.00    +0.000 C 
ATOM     16  O   UNL     1       1.856  12.187  21.274  0.00  0.00    +0.000 OA
BRANCH  15  26
ATOM     17  C   UNL     1      -0.140   9.668  23.457  0.00  0.00    +0.000 C 
ATOM     18  C   UNL     1      -0.775  10.842  22.803  0.00  0.00    +0.000 A 
ATOM     19  N   UNL     1      -2.008  11.265  23.259  0.00  0.00    +0.000 N 
ATOM     20  C   UNL     1      -2.462  12.334  22.538  0.00  0.00    +0.000 A 
ATOM     21  C   UNL     1      -3.658  13.052  22.659  0.00  0.00    +0.000 A 
ATOM     22  C   UNL     1      -3.879  14.107  21.771  0.00  0.00    +0.000 A 
ATOM     23  C   UNL     1      -2.933  14.426  20.800  0.00  0.00    +0.000 A 
ATOM     24  C   UNL     1      -1.740  13.696  20.697  0.00  0.00    +0.000 A 
ATOM     25  C   UNL     1      -1.489  12.620  21.582  0.00  0.00    +0.000 A 
ATOM     26  C   UNL     1      -0.406  11.673  21.745  0.00  0.00    +0.000 A 
ATOM     27  H   UNL     1      -2.523  10.834  24.014  0.00  0.00    +0.000 HD
ENDBRANCH  15  26
ENDBRANCH   1  15
TORSDOF 3
ENDMDL
MODEL 4
REMARK VINA RESULT:      -7.4      2.839      8.991
REMARK  Name = 
REMARK  4 active torsions:
REMARK  status: ('A' for Active; 'I' for Inactive)
REMARK    1  A    between atoms: C_1  and  C_2
REMARK    2  A    between atoms: C_10  and  C_11
REMARK    3  A    between atoms: C_11  and  C_13
REMARK    4  A    between atoms: N_18  and  C_19
REMARK                            x       y       z     vdW  Elec       q    Type
REMARK                         _______ _______ _______ _____ _____    ______ ____
ROOT
ATOM      1  C   UNL     1       2.222   7.025  19.842  0.00  0.00    +0.000 C 
ATOM      2  O   UNL     1       2.488   6.107  20.613  0.00  0.00    +0.000 OA
ATOM      3  N   UNL     1       1.401   8.102  20.196  0.00  0.00    +0.000 N 
ATOM      4  C   UNL     1       0.884   8.197  21.565  0.00  0.00    +0.000 C 
ATOM      5  C   UNL     1       1.040   9.616  22.145  0.00  0.00    +0.000 C 
ATOM      6  N   UNL     1       0.504  10.633  21.225  0.00  0.00    +0.000 N 
ATOM      7  C   UNL     1       1.015  10.561  19.841  0.00  0.00    +0.000 C 
ATOM      8  C   UNL     1       0.874   9.125  19.277  0.00  0.00    +0.000 C 
ENDROOT
BRANCH   6   9
ATOM      9  C   UNL     1      -0.633  11.360  21.525  0.00  0.00    +0.000 A 
ATOM     10  C   UNL     1      -1.172  11.360  22.822  0.00  0.00    +0.000 A 
ATOM     11  C   UNL     1      -2.349  12.053  23.135  0.00  0.00    +0.000 A 
ATOM     12  C   UNL     1      -3.015  12.775  22.150  0.00  0.00    +0.000 A 
ATOM     13  C   UNL     1      -2.503  12.799  20.859  0.00  0.00    +0.000 A 
ATOM     14  C   UNL     1      -1.330  12.097  20.555  0.00  0.00    +0.000 A 
ENDBRANCH   6   9
BRANCH   1  15
ATOM     15  C   UNL     1       2.906   7.044  18.469  0.00  0.00    +0.000 C 
ATOM     16  O   UNL     1       3.032   8.164  17.968  0.00  0.00    +0.000 OA
BRANCH  15  26
ATOM     17  C   UNL     1       1.431   4.092  17.850  0.00  0.00    +0.000 C 
ATOM     18  C   UNL     1       2.786   4.621  17.544  0.00  0.00    +0.000 A 
ATOM     19  N   UNL     1       3.683   3.800  16.892  0.00  0.00    +0.000 N 
ATOM     20  C   UNL     1       4.885   4.425  16.711  0.00  0.00    +0.000 A 
ATOM     21  C   UNL     1       6.060   3.952  16.114  0.00  0.00    +0.000 A 
ATOM     22  C   UNL     1       7.163   4.809  16.072  0.00  0.00    +0.000 A 
ATOM     23  C   UNL     1       7.084   6.091  16.609  0.00  0.00    +0.000 A 
ATOM     24  C   UNL     1       5.898   6.548  17.200  0.00  0.00    +0.000 A 
ATOM     25  C   UNL     1       4.764   5.701  17.259  0.00  0.00    +0.000 A 
ATOM     26  C   UNL     1       3.425   5.836  17.792  0.00  0.00    +0.000 A 
ATOM     27  H   UNL     1       3.492   2.851  16.602  0.00  0.00    +0.000 HD
ENDBRANCH  15  26
ENDBRANCH   1  15
TORSDOF 3
ENDMDL
MODEL 5
REMARK VINA RESULT:      -7.4      2.045      2.580
REMARK  Name = 
REMARK  4 active torsions:
REMARK  status: ('A' for Active; 'I' for Inactive)
REMARK    1  A    between atoms: C_1  and  C_2
REMARK    2  A    between atoms: C_10  and  C_11
REMARK    3  A    between atoms: C_11  and  C_13
REMARK    4  A    between atoms: N_18  and  C_19
REMARK                            x       y       z     vdW  Elec       q    Type
REMARK                         _______ _______ _______ _____ _____    ______ ____
ROOT
ATOM      1  C   UNL     1       1.521  10.364  18.491  0.00  0.00    +0.000 C 
ATOM      2  O   UNL     1       2.041  10.779  17.459  0.00  0.00    +0.000 OA
ATOM      3  N   UNL     1       1.534   9.014  18.859  0.00  0.00    +0.000 N 
ATOM      4  C   UNL     1       2.258   8.045  18.029  0.00  0.00    +0.000 C 
ATOM      5  C   UNL     1       3.129   7.096  18.875  0.00  0.00    +0.000 C 
ATOM      6  N   UNL     1       2.354   6.492  19.971  0.00  0.00    +0.000 N 
ATOM      7  C   UNL     1       1.620   7.449  20.825  0.00  0.00    +0.000 C 
ATOM      8  C   UNL     1       0.766   8.412  19.962  0.00  0.00    +0.000 C 
ENDROOT
BRANCH   6   9
ATOM      9  C   UNL     1       2.047   5.144  19.990  0.00  0.00    +0.000 A 
ATOM     10  C   UNL     1       1.681   4.468  18.814  0.00  0.00    +0.000 A 
ATOM     11  C   UNL     1       1.322   3.113  18.821  0.00  0.00    +0.000 A 
ATOM     12  C   UNL     1       1.328   2.397  20.013  0.00  0.00    +0.000 A 
ATOM     13  C   UNL     1       1.690   3.037  21.192  0.00  0.00    +0.000 A 
ATOM     14  C   UNL     1       2.041   4.392  21.175  0.00  0.00    +0.000 A 
ENDBRANCH   6   9
BRANCH   1  15
ATOM     15  C   UNL     1       0.925  11.386  19.467  0.00  0.00    +0.000 C 
ATOM     16  O   UNL     1       1.718  11.827  20.304  0.00  0.00    +0.000 OA
BRANCH  15  26
ATOM     17  C   UNL     1      -0.582  13.926  21.064  0.00  0.00    +0.000 C 
ATOM     18  C   UNL     1      -1.075  12.922  20.085  0.00  0.00    +0.000 A 
ATOM     19  N   UNL     1      -2.404  12.959  19.714  0.00  0.00    +0.000 N 
ATOM     20  C   UNL     1      -2.699  11.957  18.832  0.00  0.00    +0.000 A 
ATOM     21  C   UNL     1      -3.917  11.630  18.223  0.00  0.00    +0.000 A 
ATOM     22  C   UNL     1      -3.942  10.533  17.359  0.00  0.00    +0.000 A 
ATOM     23  C   UNL     1      -2.786   9.796  17.117  0.00  0.00    +0.000 A 
ATOM     24  C   UNL     1      -1.575  10.141  17.734  0.00  0.00    +0.000 A 
ATOM     25  C   UNL     1      -1.519  11.247  18.616  0.00  0.00    +0.000 A 
ATOM     26  C   UNL     1      -0.475  11.858  19.412  0.00  0.00    +0.000 A 
ATOM     27  H   UNL     1      -3.082  13.623  20.061  0.00  0.00    +0.000 HD
ENDBRANCH  15  26
ENDBRANCH   1  15
TORSDOF 3
ENDMDL
MODEL 6
REMARK VINA RESULT:      -7.3      4.338      9.662
REMARK  Name = 
REMARK  4 active torsions:
REMARK  status: ('A' for Active; 'I' for Inactive)
REMARK    1  A    between atoms: C_1  and  C_2
REMARK    2  A    between atoms: C_10  and  C_11
REMARK    3  A    between atoms: C_11  and  C_13
REMARK    4  A    between atoms: N_18  and  C_19
REMARK                            x       y       z     vdW  Elec       q    Type
REMARK                         _______ _______ _______ _____ _____    ______ ____
ROOT
ATOM      1  C   UNL     1       3.263   3.829  19.107  0.00  0.00    +0.000 C 
ATOM      2  O   UNL     1       3.239   3.098  20.093  0.00  0.00    +0.000 OA
ATOM      3  N   UNL     1       2.643   5.083  19.074  0.00  0.00    +0.000 N 
ATOM      4  C   UNL     1       1.992   5.600  20.283  0.00  0.00    +0.000 C 
ATOM      5  C   UNL     1       2.364   7.070  20.556  0.00  0.00    +0.000 C 
ATOM      6  N   UNL     1       2.165   7.905  19.360  0.00  0.00    +0.000 N 
ATOM      7  C   UNL     1       2.816   7.408  18.130  0.00  0.00    +0.000 C 
ATOM      8  C   UNL     1       2.454   5.922  17.878  0.00  0.00    +0.000 C 
ENDROOT
BRANCH   6   9
ATOM      9  C   UNL     1       1.173   8.866  19.298  0.00  0.00    +0.000 A 
ATOM     10  C   UNL     1       0.573   9.363  20.467  0.00  0.00    +0.000 A 
ATOM     11  C   UNL     1      -0.465  10.303  20.424  0.00  0.00    +0.000 A 
ATOM     12  C   UNL     1      -0.925  10.777  19.200  0.00  0.00    +0.000 A 
ATOM     13  C   UNL     1      -0.347  10.309  18.027  0.00  0.00    +0.000 A 
ATOM     14  C   UNL     1       0.685   9.364  18.081  0.00  0.00    +0.000 A 
ENDBRANCH   6   9
BRANCH   1  15
ATOM     15  C   UNL     1       4.100   3.392  17.898  0.00  0.00    +0.000 C 
ATOM     16  O   UNL     1       3.707   2.365  17.339  0.00  0.00    +0.000 OA
BRANCH  15  26
ATOM     17  C   UNL     1       6.294   5.357  19.512  0.00  0.00    +0.000 C 
ATOM     18  C   UNL     1       6.167   4.952  18.087  0.00  0.00    +0.000 A 
ATOM     19  N   UNL     1       7.080   5.446  17.177  0.00  0.00    +0.000 N 
ATOM     20  C   UNL     1       6.809   5.001  15.914  0.00  0.00    +0.000 A 
ATOM     21  C   UNL     1       7.471   5.270  14.709  0.00  0.00    +0.000 A 
ATOM     22  C   UNL     1       6.969   4.685  13.544  0.00  0.00    +0.000 A 
ATOM     23  C   UNL     1       5.846   3.863  13.591  0.00  0.00    +0.000 A 
ATOM     24  C   UNL     1       5.200   3.604  14.807  0.00  0.00    +0.000 A 
ATOM     25  C   UNL     1       5.684   4.183  16.005  0.00  0.00    +0.000 A 
ATOM     26  C   UNL     1       5.268   4.145  17.391  0.00  0.00    +0.000 A 
ATOM     27  H   UNL     1       7.840   6.073  17.404  0.00  0.00    +0.000 HD
ENDBRANCH  15  26
ENDBRANCH   1  15
TORSDOF 3
ENDMDL
MODEL 7
REMARK VINA RESULT:      -7.3      1.865      2.600
REMARK  Name = 
REMARK  4 active torsions:
REMARK  status: ('A' for Active; 'I' for Inactive)
REMARK    1  A    between atoms: C_1  and  C_2
REMARK    2  A    between atoms: C_10  and  C_11
REMARK    3  A    between atoms: C_11  and  C_13
REMARK    4  A    between atoms: N_18  and  C_19
REMARK                            x       y       z     vdW  Elec       q    Type
REMARK                         _______ _______ _______ _____ _____    ______ ____
ROOT
ATOM      1  C   UNL     1       1.441  10.488  18.949  0.00  0.00    +0.000 C 
ATOM      2  O   UNL     1       1.990  11.032  17.994  0.00  0.00    +0.000 OA
ATOM      3  N   UNL     1       1.440   9.101  19.136  0.00  0.00    +0.000 N 
ATOM      4  C   UNL     1       2.181   8.245  18.203  0.00  0.00    +0.000 C 
ATOM      5  C   UNL     1       3.027   7.186  18.937  0.00  0.00    +0.000 C 
ATOM      6  N   UNL     1       2.222   6.448  19.925  0.00  0.00    +0.000 N 
ATOM      7  C   UNL     1       1.470   7.289  20.879  0.00  0.00    +0.000 C 
ATOM      8  C   UNL     1       0.643   8.364  20.131  0.00  0.00    +0.000 C 
ENDROOT
BRANCH   6   9
ATOM      9  C   UNL     1       1.909   5.111  19.758  0.00  0.00    +0.000 A 
ATOM     10  C   UNL     1       1.670   4.280  20.865  0.00  0.00    +0.000 A 
ATOM     11  C   UNL     1       1.397   2.913  20.718  0.00  0.00    +0.000 A 
ATOM     12  C   UNL     1       1.350   2.345  19.450  0.00  0.00    +0.000 A 
ATOM     13  C   UNL     1       1.577   3.143  18.336  0.00  0.00    +0.000 A 
ATOM     14  C   UNL     1       1.855   4.506  18.493  0.00  0.00    +0.000 A 
ENDBRANCH   6   9
BRANCH   1  15
ATOM     15  C   UNL     1       0.826  11.376  20.038  0.00  0.00    +0.000 C 
ATOM     16  O   UNL     1       1.606  11.720  20.930  0.00  0.00    +0.000 OA
BRANCH  15  26
ATOM     17  C   UNL     1      -0.772  13.546  22.042  0.00  0.00    +0.000 C 
ATOM     18  C   UNL     1      -1.217  12.745  20.872  0.00  0.00    +0.000 A 
ATOM     19  N   UNL     1      -2.534  12.839  20.470  0.00  0.00    +0.000 N 
ATOM     20  C   UNL     1      -2.785  12.024  19.402  0.00  0.00    +0.000 A 
ATOM     21  C   UNL     1      -3.979  11.808  18.701  0.00  0.00    +0.000 A 
ATOM     22  C   UNL     1      -3.959  10.898  17.642  0.00  0.00    +0.000 A 
ATOM     23  C   UNL     1      -2.784  10.232  17.302  0.00  0.00    +0.000 A 
ATOM     24  C   UNL     1      -1.599  10.464  18.014  0.00  0.00    +0.000 A 
ATOM     25  C   UNL     1      -1.588  11.380  19.094  0.00  0.00    +0.000 A 
ATOM     26  C   UNL     1      -0.580  11.836  20.027  0.00  0.00    +0.000 A 
ATOM     27  H   UNL     1      -3.234  13.417  20.915  0.00  0.00    +0.000 HD
ENDBRANCH  15  26
ENDBRANCH   1  15
TORSDOF 3
ENDMDL
MODEL 8
REMARK VINA RESULT:      -7.2      2.975      4.086
REMARK  Name = 
REMARK  4 active torsions:
REMARK  status: ('A' for Active; 'I' for Inactive)
REMARK    1  A    between atoms: C_1  and  C_2
REMARK    2  A    between atoms: C_10  and  C_11
REMARK    3  A    between atoms: C_11  and  C_13
REMARK    4  A    between atoms: N_18  and  C_19
REMARK                            x       y       z     vdW  Elec       q    Type
REMARK                         _______ _______ _______ _____ _____    ______ ____
ROOT
ATOM      1  C   UNL     1       0.263  10.352  20.359  0.00  0.00    +0.000 C 
ATOM      2  O   UNL     1      -0.246  10.217  21.469  0.00  0.00    +0.000 OA
ATOM      3  N   UNL     1       1.210   9.459  19.843  0.00  0.00    +0.000 N 
ATOM      4  C   UNL     1       1.570   8.263  20.612  0.00  0.00    +0.000 C 
ATOM      5  C   UNL     1       1.592   6.997  19.734  0.00  0.00    +0.000 C 
ATOM      6  N   UNL     1       2.400   7.201  18.520  0.00  0.00    +0.000 N 
ATOM      7  C   UNL     1       2.051   8.396  17.726  0.00  0.00    +0.000 C 
ATOM      8  C   UNL     1       2.009   9.659  18.622  0.00  0.00    +0.000 C 
ENDROOT
BRANCH   6   9
ATOM      9  C   UNL     1       3.602   6.544  18.325  0.00  0.00    +0.000 A 
ATOM     10  C   UNL     1       4.092   5.634  19.277  0.00  0.00    +0.000 A 
ATOM     11  C   UNL     1       5.329   4.995  19.119  0.00  0.00    +0.000 A 
ATOM     12  C   UNL     1       6.106   5.248  17.993  0.00  0.00    +0.000 A 
ATOM     13  C   UNL     1       5.644   6.139  17.033  0.00  0.00    +0.000 A 
ATOM     14  C   UNL     1       4.411   6.778  17.203  0.00  0.00    +0.000 A 
ENDBRANCH   6   9
BRANCH   1  15
ATOM     15  C   UNL     1      -0.241  11.488  19.461  0.00  0.00    +0.000 C 
ATOM     16  O   UNL     1       0.639  12.238  19.029  0.00  0.00    +0.000 OA
BRANCH  15  26
ATOM     17  C   UNL     1      -2.713  13.126  21.037  0.00  0.00    +0.000 C 
ATOM     18  C   UNL     1      -2.666  12.365  19.761  0.00  0.00    +0.000 A 
ATOM     19  N   UNL     1      -3.826  12.245  19.022  0.00  0.00    +0.000 N 
ATOM     20  C   UNL     1      -3.620  11.497  17.896  0.00  0.00    +0.000 A 
ATOM     21  C   UNL     1      -4.522  11.124  16.892  0.00  0.00    +0.000 A 
ATOM     22  C   UNL     1      -4.042  10.334  15.844  0.00  0.00    +0.000 A 
ATOM     23  C   UNL     1      -2.708   9.937  15.810  0.00  0.00    +0.000 A 
ATOM     24  C   UNL     1      -1.821  10.323  16.824  0.00  0.00    +0.000 A 
ATOM     25  C   UNL     1      -2.277  11.122  17.900  0.00  0.00    +0.000 A 
ATOM     26  C   UNL     1      -1.660  11.674  19.087  0.00  0.00    +0.000 A 
ATOM     27  H   UNL     1      -4.720  12.638  19.283  0.00  0.00    +0.000 HD
ENDBRANCH  15  26
ENDBRANCH   1  15
TORSDOF 3
ENDMDL
MODEL 9
REMARK VINA RESULT:      -7.2      2.359      4.227
REMARK  Name = 
REMARK  4 active torsions:
REMARK  status: ('A' for Active; 'I' for Inactive)
REMARK    1  A    between atoms: C_1  and  C_2
REMARK    2  A    between atoms: C_10  and  C_11
REMARK    3  A    between atoms: C_11  and  C_13
REMARK    4  A    between atoms: N_18  and  C_19
REMARK                            x       y       z     vdW  Elec       q    Type
REMARK                         _______ _______ _______ _____ _____    ______ ____
ROOT
ATOM      1  C   UNL     1       0.232   9.623  19.923  0.00  0.00    +0.000 C 
ATOM      2  O   UNL     1      -0.274   9.482  21.033  0.00  0.00    +0.000 OA
ATOM      3  N   UNL     1       1.343   8.886  19.494  0.00  0.00    +0.000 N 
ATOM      4  C   UNL     1       1.899   7.845  20.365  0.00  0.00    +0.000 C 
ATOM      5  C   UNL     1       2.182   6.540  19.596  0.00  0.00    +0.000 C 
ATOM      6  N   UNL     1       2.971   6.795  18.379  0.00  0.00    +0.000 N 
ATOM      7  C   UNL     1       2.427   7.836  17.483  0.00  0.00    +0.000 C 
ATOM      8  C   UNL     1       2.124   9.136  18.271  0.00  0.00    +0.000 C 
ENDROOT
BRANCH   6   9
ATOM      9  C   UNL     1       4.279   6.364  18.254  0.00  0.00    +0.000 A 
ATOM     10  C   UNL     1       4.846   5.490  19.197  0.00  0.00    +0.000 A 
ATOM     11  C   UNL     1       6.184   5.080  19.113  0.00  0.00    +0.000 A 
ATOM     12  C   UNL     1       6.987   5.531  18.072  0.00  0.00    +0.000 A 
ATOM     13  C   UNL     1       6.453   6.392  17.122  0.00  0.00    +0.000 A 
ATOM     14  C   UNL     1       5.118   6.803  17.218  0.00  0.00    +0.000 A 
ENDBRANCH   6   9
BRANCH   1  15
ATOM     15  C   UNL     1      -0.451  10.568  18.926  0.00  0.00    +0.000 C 
ATOM     16  O   UNL     1      -0.991  10.010  17.968  0.00  0.00    +0.000 OA
BRANCH  15  26
ATOM     17  C   UNL     1      -2.987  12.548  19.887  0.00  0.00    +0.000 C 
ATOM     18  C   UNL     1      -1.581  12.834  19.500  0.00  0.00    +0.000 A 
ATOM     19  N   UNL     1      -1.152  14.146  19.493  0.00  0.00    +0.000 N 
ATOM     20  C   UNL     1       0.151  14.239  19.091  0.00  0.00    +0.000 A 
ATOM     21  C   UNL     1       0.961  15.370  18.931  0.00  0.00    +0.000 A 
ATOM     22  C   UNL     1       2.272  15.178  18.489  0.00  0.00    +0.000 A 
ATOM     23  C   UNL     1       2.748  13.898  18.219  0.00  0.00    +0.000 A 
ATOM     24  C   UNL     1       1.923  12.778  18.388  0.00  0.00    +0.000 A 
ATOM     25  C   UNL     1       0.588  12.941  18.833  0.00  0.00    +0.000 A 
ATOM     26  C   UNL     1      -0.511  12.036  19.094  0.00  0.00    +0.000 A 
ATOM     27  H   UNL     1      -1.727  14.943  19.732  0.00  0.00    +0.000 HD
ENDBRANCH  15  26
ENDBRANCH   1  15
TORSDOF 3
ENDMDL
