MODEL 1
REMARK VINA RESULT:      -7.1      0.000      0.000
REMARK  Name = 
REMARK  7 active torsions:
REMARK  status: ('A' for Active; 'I' for Inactive)
REMARK    1  A    between atoms: C_1  and  C_2
REMARK    2  A    between atoms: C_6  and  C_7
REMARK    3  A    between atoms: C_7  and  C_8
REMARK    4  A    between atoms: C_7  and  N_9
REMARK    5  A    between atoms: C_10  and  C_12
REMARK    6  A    between atoms: C_12  and  C_13
REMARK    7  A    between atoms: C_13  and  C_14
REMARK                            x       y       z     vdW  Elec       q    Type
REMARK                         _______ _______ _______ _____ _____    ______ ____
ROOT
ATOM      1  N   UNL     1       5.064   3.793  16.747  0.00  0.00    +0.000 N 
ATOM      2  C   UNL     1       3.856   4.247  17.223  0.00  0.00    +0.000 C 
ATOM      3  O   UNL     1       3.578   5.435  17.347  0.00  0.00    +0.000 OA
ATOM      4  H   UNL     1       5.133   2.842  16.409  0.00  0.00    +0.000 HD
ENDROOT
BRANCH   1   5
ATOM      5  C   UNL     1       6.136   4.702  16.353  0.00  0.00    +0.000 C 
ATOM      6  C   UNL     1       7.344   4.473  17.268  0.00  0.00    +0.000 C 
BRANCH   5  12
ATOM      7  C   UNL     1       8.902   6.130  12.594  0.00  0.00    +0.000 C 
ATOM      8  C   UNL     1       7.824   5.213  13.087  0.00  0.00    +0.000 A 
ATOM      9  C   UNL     1       7.145   4.367  12.220  0.00  0.00    +0.000 A 
ATOM     10  C   UNL     1       6.125   3.568  12.729  0.00  0.00    +0.000 A 
ATOM     11  C   UNL     1       5.803   3.652  14.079  0.00  0.00    +0.000 A 
ATOM     12  C   UNL     1       6.510   4.537  14.888  0.00  0.00    +0.000 A 
ATOM     13  N   UNL     1       7.535   5.289  14.406  0.00  0.00    +0.000 NA
ENDBRANCH   5  12
ENDBRANCH   1   5
BRANCH   2  14
ATOM     14  C   UNL     1       2.906   3.145  17.636  0.00  0.00    +0.000 C 
BRANCH  14  15
ATOM     15  C   UNL     1       1.742   3.730  18.432  0.00  0.00    +0.000 C 
BRANCH  15  16
ATOM     16  C   UNL     1       1.859   3.499  19.896  0.00  0.00    +0.000 A 
ATOM     17  C   UNL     1       1.366   2.403  20.642  0.00  0.00    +0.000 A 
ATOM     18  N   UNL     1       1.612   2.518  21.948  0.00  0.00    +0.000 NA
ATOM     19  N   UNL     1       2.259   3.689  22.048  0.00  0.00    +0.000 N 
ATOM     20  C   UNL     1       2.440   4.312  20.847  0.00  0.00    +0.000 A 
ATOM     21  H   UNL     1       2.544   4.004  22.970  0.00  0.00    +0.000 HD
ENDBRANCH  15  16
ENDBRANCH  14  15
ENDBRANCH   2  14
TORSDOF 5
ENDMDL
MODEL 2
REMARK VINA RESULT:      -7.1      2.167      3.663
REMARK  Name = 
REMARK  7 active torsions:
REMARK  status: ('A' for Active; 'I' for Inactive)
REMARK    1  A    between atoms: C_1  and  C_2
REMARK    2  A    between atoms: C_6  and  C_7
REMARK    3  A    between atoms: C_7  and  C_8
REMARK    4  A    between atoms: C_7  and  N_9
REMARK    5  A    between atoms: C_10  and  C_12
REMARK    6  A    between atoms: C_12  and  C_13
REMARK    7  A    between atoms: C_13  and  C_14
REMARK                            x       y       z     vdW  Elec       q    Type
REMARK                         _______ _______ _______ _____ _____    ______ ____
ROOT
ATOM      1  N   UNL     1       2.608   5.588  18.745  0.00  0.00    +0.000 N 
ATOM      2  C   UNL     1       1.612   4.656  18.573  0.00  0.00    +0.000 C 
ATOM      3  O   UNL     1       1.224   4.271  17.475  0.00  0.00    +0.000 OA
ATOM      4  H   UNL     1       3.067   5.656  19.643  0.00  0.00    +0.000 HD
ENDROOT
BRANCH   1   5
ATOM      5  C   UNL     1       3.291   6.214  17.617  0.00  0.00    +0.000 C 
ATOM      6  C   UNL     1       3.253   7.735  17.793  0.00  0.00    +0.000 C 
BRANCH   5  12
ATOM      7  C   UNL     1       6.895   4.796  14.647  0.00  0.00    +0.000 C 
ATOM      8  C   UNL     1       6.444   5.028  16.057  0.00  0.00    +0.000 A 
ATOM      9  C   UNL     1       7.246   4.682  17.137  0.00  0.00    +0.000 A 
ATOM     10  C   UNL     1       6.755   4.883  18.424  0.00  0.00    +0.000 A 
ATOM     11  C   UNL     1       5.477   5.403  18.593  0.00  0.00    +0.000 A 
ATOM     12  C   UNL     1       4.718   5.708  17.466  0.00  0.00    +0.000 A 
ATOM     13  N   UNL     1       5.206   5.554  16.208  0.00  0.00    +0.000 NA
ENDBRANCH   5  12
ENDBRANCH   1   5
BRANCH   2  14
ATOM     14  C   UNL     1       0.989   4.178  19.866  0.00  0.00    +0.000 C 
BRANCH  14  15
ATOM     15  C   UNL     1       1.201   2.674  20.023  0.00  0.00    +0.000 C 
BRANCH  15  16
ATOM     16  C   UNL     1       2.624   2.266  19.881  0.00  0.00    +0.000 A 
ATOM     17  C   UNL     1       3.687   2.506  20.782  0.00  0.00    +0.000 A 
ATOM     18  N   UNL     1       4.853   2.035  20.338  0.00  0.00    +0.000 NA
ATOM     19  N   UNL     1       4.546   1.493  19.150  0.00  0.00    +0.000 N 
ATOM     20  C   UNL     1       3.222   1.598  18.833  0.00  0.00    +0.000 A 
ATOM     21  H   UNL     1       5.292   1.073  18.605  0.00  0.00    +0.000 HD
ENDBRANCH  15  16
ENDBRANCH  14  15
ENDBRANCH   2  14
TORSDOF 5
ENDMDL
MODEL 3
REMARK VINA RESULT:      -7.1      2.868      3.732
REMARK  Name = 
REMARK  7 active torsions:
REMARK  status: ('A' for Active; 'I' for Inactive)
REMARK    1  A    between atoms: C_1  and  C_2
REMARK    2  A    between atoms: C_6  and  C_7
REMARK    3  A    between atoms: C_7  and  C_8
REMARK    4  A    between atoms: C_7  and  N_9
REMARK    5  A    between atoms: C_10  and  C_12
REMARK    6  A    between atoms: C_12  and  C_13
REMARK    7  A    between atoms: C_13  and  C_14
REMARK                            x       y       z     vdW  Elec       q    Type
REMARK                         _______ _______ _______ _____ _____    ______ ____
ROOT
ATOM      1  N   UNL     1       2.455   5.417  18.669  0.00  0.00    +0.000 N 
ATOM      2  C   UNL     1       1.483   4.486  18.386  0.00  0.00    +0.000 C 
ATOM      3  O   UNL     1       1.046   4.281  17.258  0.00  0.00    +0.000 OA
ATOM      4  H   UNL     1       2.963   5.347  19.541  0.00  0.00    +0.000 HD
ENDROOT
BRANCH   1   5
ATOM      5  C   UNL     1       3.050   6.258  17.636  0.00  0.00    +0.000 C 
ATOM      6  C   UNL     1       2.899   7.728  18.043  0.00  0.00    +0.000 C 
BRANCH   5  12
ATOM      7  C   UNL     1       7.714   7.692  17.517  0.00  0.00    +0.000 C 
ATOM      8  C   UNL     1       6.736   6.574  17.320  0.00  0.00    +0.000 A 
ATOM      9  C   UNL     1       7.139   5.342  16.822  0.00  0.00    +0.000 A 
ATOM     10  C   UNL     1       6.177   4.356  16.622  0.00  0.00    +0.000 A 
ATOM     11  C   UNL     1       4.845   4.636  16.905  0.00  0.00    +0.000 A 
ATOM     12  C   UNL     1       4.507   5.899  17.381  0.00  0.00    +0.000 A 
ATOM     13  N   UNL     1       5.446   6.852  17.620  0.00  0.00    +0.000 NA
ENDBRANCH   5  12
ENDBRANCH   1   5
BRANCH   2  14
ATOM     14  C   UNL     1       0.952   3.763  19.604  0.00  0.00    +0.000 C 
BRANCH  14  15
ATOM     15  C   UNL     1       1.325   2.283  19.537  0.00  0.00    +0.000 C 
BRANCH  15  16
ATOM     16  C   UNL     1       2.786   2.042  19.666  0.00  0.00    +0.000 A 
ATOM     17  C   UNL     1       3.637   2.425  20.729  0.00  0.00    +0.000 A 
ATOM     18  N   UNL     1       4.909   2.084  20.518  0.00  0.00    +0.000 NA
ATOM     19  N   UNL     1       4.883   1.486  19.317  0.00  0.00    +0.000 N 
ATOM     20  C   UNL     1       3.635   1.428  18.768  0.00  0.00    +0.000 A 
ATOM     21  H   UNL     1       5.758   1.145  18.931  0.00  0.00    +0.000 HD
ENDBRANCH  15  16
ENDBRANCH  14  15
ENDBRANCH   2  14
TORSDOF 5
ENDMDL
MODEL 4
REMARK VINA RESULT:      -7.0      1.941      3.623
REMARK  Name = 
REMARK  7 active torsions:
REMARK  status: ('A' for Active; 'I' for Inactive)
REMARK    1  A    between atoms: C_1  and  C_2
REMARK    2  A    between atoms: C_6  and  C_7
REMARK    3  A    between atoms: C_7  and  C_8
REMARK    4  A    between atoms: C_7  and  N_9
REMARK    5  A    between atoms: C_10  and  C_12
REMARK    6  A    between atoms: C_12  and  C_13
REMARK    7  A    between atoms: C_13  and  C_14
REMARK                            x       y       z     vdW  Elec       q    Type
REMARK                         _______ _______ _______ _____ _____    ______ ____
ROOT
ATOM      1  N   UNL     1       4.380   4.239  16.551  0.00  0.00    +0.000 N 
ATOM      2  C   UNL     1       3.618   3.380  17.307  0.00  0.00    +0.000 C 
ATOM      3  O   UNL     1       4.073   2.397  17.884  0.00  0.00    +0.000 OA
ATOM      4  H   UNL     1       4.018   5.160  16.340  0.00  0.00    +0.000 HD
ENDROOT
BRANCH   1   5
ATOM      5  C   UNL     1       5.814   4.045  16.359  0.00  0.00    +0.000 C 
ATOM      6  C   UNL     1       6.121   4.046  14.858  0.00  0.00    +0.000 C 
BRANCH   5  12
ATOM      7  C   UNL     1       8.320   5.300  20.355  0.00  0.00    +0.000 C 
ATOM      8  C   UNL     1       7.829   5.706  18.998  0.00  0.00    +0.000 A 
ATOM      9  C   UNL     1       8.015   6.996  18.520  0.00  0.00    +0.000 A 
ATOM     10  C   UNL     1       7.500   7.324  17.269  0.00  0.00    +0.000 A 
ATOM     11  C   UNL     1       6.801   6.364  16.546  0.00  0.00    +0.000 A 
ATOM     12  C   UNL     1       6.632   5.097  17.095  0.00  0.00    +0.000 A 
ATOM     13  N   UNL     1       7.168   4.756  18.296  0.00  0.00    +0.000 NA
ENDBRANCH   5  12
ENDBRANCH   1   5
BRANCH   2  14
ATOM     14  C   UNL     1       2.145   3.721  17.327  0.00  0.00    +0.000 C 
BRANCH  14  15
ATOM     15  C   UNL     1       1.850   4.697  18.464  0.00  0.00    +0.000 C 
BRANCH  15  16
ATOM     16  C   UNL     1       1.707   4.031  19.786  0.00  0.00    +0.000 A 
ATOM     17  C   UNL     1       2.665   3.951  20.823  0.00  0.00    +0.000 A 
ATOM     18  N   UNL     1       2.231   3.249  21.870  0.00  0.00    +0.000 NA
ATOM     19  N   UNL     1       0.996   2.870  21.510  0.00  0.00    +0.000 N 
ATOM     20  C   UNL     1       0.631   3.320  20.274  0.00  0.00    +0.000 A 
ATOM     21  H   UNL     1       0.459   2.301  22.157  0.00  0.00    +0.000 HD
ENDBRANCH  15  16
ENDBRANCH  14  15
ENDBRANCH   2  14
TORSDOF 5
ENDMDL
MODEL 5
REMARK VINA RESULT:      -7.0      2.183      7.349
REMARK  Name = 
REMARK  7 active torsions:
REMARK  status: ('A' for Active; 'I' for Inactive)
REMARK    1  A    between atoms: C_1  and  C_2
REMARK    2  A    between atoms: C_6  and  C_7
REMARK    3  A    between atoms: C_7  and  C_8
REMARK    4  A    between atoms: C_7  and  N_9
REMARK    5  A    between atoms: C_10  and  C_12
REMARK    6  A    between atoms: C_12  and  C_13
REMARK    7  A    between atoms: C_13  and  C_14
REMARK                            x       y       z     vdW  Elec       q    Type
REMARK                         _______ _______ _______ _____ _____    ______ ____
ROOT
ATOM      1  N   UNL     1       5.721   4.567  16.977  0.00  0.00    +0.000 N 
ATOM      2  C   UNL     1       6.981   4.519  16.428  0.00  0.00    +0.000 C 
ATOM      3  O   UNL     1       7.983   4.192  17.055  0.00  0.00    +0.000 OA
ATOM      4  H   UNL     1       4.917   4.568  16.362  0.00  0.00    +0.000 HD
ENDROOT
BRANCH   1   5
ATOM      5  C   UNL     1       5.468   4.238  18.376  0.00  0.00    +0.000 C 
ATOM      6  C   UNL     1       6.019   5.362  19.259  0.00  0.00    +0.000 C 
BRANCH   5  12
ATOM      7  C   UNL     1       2.001   2.820  21.504  0.00  0.00    +0.000 C 
ATOM      8  C   UNL     1       2.328   3.317  20.129  0.00  0.00    +0.000 A 
ATOM      9  C   UNL     1       1.350   3.424  19.149  0.00  0.00    +0.000 A 
ATOM     10  C   UNL     1       1.723   3.853  17.878  0.00  0.00    +0.000 A 
ATOM     11  C   UNL     1       3.058   4.143  17.621  0.00  0.00    +0.000 A 
ATOM     12  C   UNL     1       3.990   3.994  18.644  0.00  0.00    +0.000 A 
ATOM     13  N   UNL     1       3.627   3.616  19.898  0.00  0.00    +0.000 NA
ENDBRANCH   5  12
ENDBRANCH   1   5
BRANCH   2  14
ATOM     14  C   UNL     1       7.037   4.959  14.982  0.00  0.00    +0.000 C 
BRANCH  14  15
ATOM     15  C   UNL     1       5.687   4.719  14.309  0.00  0.00    +0.000 C 
BRANCH  15  16
ATOM     16  C   UNL     1       5.767   3.796  13.147  0.00  0.00    +0.000 A 
ATOM     17  C   UNL     1       4.701   3.298  12.362  0.00  0.00    +0.000 A 
ATOM     18  N   UNL     1       5.112   2.458  11.411  0.00  0.00    +0.000 NA
ATOM     19  N   UNL     1       6.442   2.409  11.583  0.00  0.00    +0.000 N 
ATOM     20  C   UNL     1       6.885   3.198  12.604  0.00  0.00    +0.000 A 
ATOM     21  H   UNL     1       6.985   1.810  10.969  0.00  0.00    +0.000 HD
ENDBRANCH  15  16
ENDBRANCH  14  15
ENDBRANCH   2  14
TORSDOF 5
ENDMDL
MODEL 6
REMARK VINA RESULT:      -7.0      1.755      7.383
REMARK  Name = 
REMARK  7 active torsions:
REMARK  status: ('A' for Active; 'I' for Inactive)
REMARK    1  A    between atoms: C_1  and  C_2
REMARK    2  A    between atoms: C_6  and  C_7
REMARK    3  A    between atoms: C_7  and  C_8
REMARK    4  A    between atoms: C_7  and  N_9
REMARK    5  A    between atoms: C_10  and  C_12
REMARK    6  A    between atoms: C_12  and  C_13
REMARK    7  A    between atoms: C_13  and  C_14
REMARK                            x       y       z     vdW  Elec       q    Type
REMARK                         _______ _______ _______ _____ _____    ______ ____
ROOT
ATOM      1  N   UNL     1       4.850   5.331  17.712  0.00  0.00    +0.000 N 
ATOM      2  C   UNL     1       6.087   4.939  18.168  0.00  0.00    +0.000 C 
ATOM      3  O   UNL     1       6.418   4.974  19.348  0.00  0.00    +0.000 OA
ATOM      4  H   UNL     1       4.543   5.024  16.798  0.00  0.00    +0.000 HD
ENDROOT
BRANCH   1   5
ATOM      5  C   UNL     1       3.816   5.840  18.607  0.00  0.00    +0.000 C 
ATOM      6  C   UNL     1       3.192   7.094  17.987  0.00  0.00    +0.000 C 
BRANCH   5  12
ATOM      7  C   UNL     1       1.850   2.754  21.837  0.00  0.00    +0.000 C 
ATOM      8  C   UNL     1       1.816   3.309  20.446  0.00  0.00    +0.000 A 
ATOM      9  C   UNL     1       0.955   2.796  19.485  0.00  0.00    +0.000 A 
ATOM     10  C   UNL     1       0.999   3.326  18.199  0.00  0.00    +0.000 A 
ATOM     11  C   UNL     1       1.911   4.333  17.907  0.00  0.00    +0.000 A 
ATOM     12  C   UNL     1       2.761   4.786  18.912  0.00  0.00    +0.000 A 
ATOM     13  N   UNL     1       2.694   4.304  20.181  0.00  0.00    +0.000 NA
ENDBRANCH   5  12
ENDBRANCH   1   5
BRANCH   2  14
ATOM     14  C   UNL     1       7.035   4.504  17.073  0.00  0.00    +0.000 C 
BRANCH  14  15
ATOM     15  C   UNL     1       6.999   5.508  15.922  0.00  0.00    +0.000 C 
BRANCH  15  16
ATOM     16  C   UNL     1       6.791   4.870  14.595  0.00  0.00    +0.000 A 
ATOM     17  C   UNL     1       5.808   3.919  14.236  0.00  0.00    +0.000 A 
ATOM     18  N   UNL     1       5.916   3.521  12.968  0.00  0.00    +0.000 NA
ATOM     19  N   UNL     1       6.972   4.209  12.508  0.00  0.00    +0.000 N 
ATOM     20  C   UNL     1       7.526   5.038  13.440  0.00  0.00    +0.000 A 
ATOM     21  H   UNL     1       7.262   4.059  11.546  0.00  0.00    +0.000 HD
ENDBRANCH  15  16
ENDBRANCH  14  15
ENDBRANCH   2  14
TORSDOF 5
ENDMDL
MODEL 7
REMARK VINA RESULT:      -6.9      1.721      7.626
REMARK  Name = 
REMARK  7 active torsions:
REMARK  status: ('A' for Active; 'I' for Inactive)
REMARK    1  A    between atoms: C_1  and  C_2
REMARK    2  A    between atoms: C_6  and  C_7
REMARK    3  A    between atoms: C_7  and  C_8
REMARK    4  A    between atoms: C_7  and  N_9
REMARK    5  A    between atoms: C_10  and  C_12
REMARK    6  A    between atoms: C_12  and  C_13
REMARK    7  A    between atoms: C_13  and  C_14
REMARK                            x       y       z     vdW  Elec       q    Type
REMARK                         _______ _______ _______ _____ _____    ______ ____
ROOT
ATOM      1  N   UNL     1       4.727   5.222  17.581  0.00  0.00    +0.000 N 
ATOM      2  C   UNL     1       6.010   4.788  17.818  0.00  0.00    +0.000 C 
ATOM      3  O   UNL     1       6.522   4.757  18.932  0.00  0.00    +0.000 OA
ATOM      4  H   UNL     1       4.274   4.967  16.713  0.00  0.00    +0.000 HD
ENDROOT
BRANCH   1   5
ATOM      5  C   UNL     1       3.857   5.700  18.651  0.00  0.00    +0.000 C 
ATOM      6  C   UNL     1       3.266   7.054  18.246  0.00  0.00    +0.000 C 
BRANCH   5  12
ATOM      7  C   UNL     1       1.813   2.744  21.954  0.00  0.00    +0.000 C 
ATOM      8  C   UNL     1       1.783   3.279  20.554  0.00  0.00    +0.000 A 
ATOM      9  C   UNL     1       0.889   2.787  19.613  0.00  0.00    +0.000 A 
ATOM     10  C   UNL     1       0.936   3.296  18.318  0.00  0.00    +0.000 A 
ATOM     11  C   UNL     1       1.884   4.261  17.999  0.00  0.00    +0.000 A 
ATOM     12  C   UNL     1       2.765   4.694  18.986  0.00  0.00    +0.000 A 
ATOM     13  N   UNL     1       2.697   4.234  20.262  0.00  0.00    +0.000 NA
ENDBRANCH   5  12
ENDBRANCH   1   5
BRANCH   2  14
ATOM     14  C   UNL     1       6.766   4.396  16.568  0.00  0.00    +0.000 C 
BRANCH  14  15
ATOM     15  C   UNL     1       5.790   4.184  15.412  0.00  0.00    +0.000 C 
BRANCH  15  16
ATOM     16  C   UNL     1       6.439   4.262  14.077  0.00  0.00    +0.000 A 
ATOM     17  C   UNL     1       7.461   5.146  13.661  0.00  0.00    +0.000 A 
ATOM     18  N   UNL     1       7.800   4.976  12.383  0.00  0.00    +0.000 NA
ATOM     19  N   UNL     1       6.994   3.986  11.969  0.00  0.00    +0.000 N 
ATOM     20  C   UNL     1       6.166   3.518  12.948  0.00  0.00    +0.000 A 
ATOM     21  H   UNL     1       7.061   3.683  11.003  0.00  0.00    +0.000 HD
ENDBRANCH  15  16
ENDBRANCH  14  15
ENDBRANCH   2  14
TORSDOF 5
ENDMDL
MODEL 8
REMARK VINA RESULT:      -6.8      1.913      7.068
REMARK  Name = 
REMARK  7 active torsions:
REMARK  status: ('A' for Active; 'I' for Inactive)
REMARK    1  A    between atoms: C_1  and  C_2
REMARK    2  A    between atoms: C_6  and  C_7
REMARK    3  A    between atoms: C_7  and  C_8
REMARK    4  A    between atoms: C_7  and  N_9
REMARK    5  A    between atoms: C_10  and  C_12
REMARK    6  A    between atoms: C_12  and  C_13
REMARK    7  A    between atoms: C_13  and  C_14
REMARK                            x       y       z     vdW  Elec       q    Type
REMARK                         _______ _______ _______ _____ _____    ______ ____
ROOT
ATOM      1  N   UNL     1       4.648   6.204  18.056  0.00  0.00    +0.000 N 
ATOM      2  C   UNL     1       5.844   5.804  18.606  0.00  0.00    +0.000 C 
ATOM      3  O   UNL     1       5.963   5.415  19.763  0.00  0.00    +0.000 OA
ATOM      4  H   UNL     1       4.559   6.243  17.049  0.00  0.00    +0.000 HD
ENDROOT
BRANCH   1   5
ATOM      5  C   UNL     1       3.404   6.209  18.819  0.00  0.00    +0.000 C 
ATOM      6  C   UNL     1       2.450   7.240  18.209  0.00  0.00    +0.000 C 
BRANCH   5  12
ATOM      7  C   UNL     1       1.496   2.631  21.536  0.00  0.00    +0.000 C 
ATOM      8  C   UNL     1       1.857   3.114  20.164  0.00  0.00    +0.000 A 
ATOM      9  C   UNL     1       1.723   2.292  19.052  0.00  0.00    +0.000 A 
ATOM     10  C   UNL     1       2.114   2.783  17.810  0.00  0.00    +0.000 A 
ATOM     11  C   UNL     1       2.642   4.066  17.718  0.00  0.00    +0.000 A 
ATOM     12  C   UNL     1       2.768   4.827  18.875  0.00  0.00    +0.000 A 
ATOM     13  N   UNL     1       2.349   4.372  20.085  0.00  0.00    +0.000 NA
ENDBRANCH   5  12
ENDBRANCH   1   5
BRANCH   2  14
ATOM     14  C   UNL     1       7.024   5.935  17.669  0.00  0.00    +0.000 C 
BRANCH  14  15
ATOM     15  C   UNL     1       7.343   4.581  17.038  0.00  0.00    +0.000 C 
BRANCH  15  16
ATOM     16  C   UNL     1       6.775   4.424  15.673  0.00  0.00    +0.000 A 
ATOM     17  C   UNL     1       7.393   4.726  14.438  0.00  0.00    +0.000 A 
ATOM     18  N   UNL     1       6.594   4.501  13.394  0.00  0.00    +0.000 NA
ATOM     19  N   UNL     1       5.458   4.057  13.953  0.00  0.00    +0.000 N 
ATOM     20  C   UNL     1       5.517   3.984  15.314  0.00  0.00    +0.000 A 
ATOM     21  H   UNL     1       4.680   3.826  13.343  0.00  0.00    +0.000 HD
ENDBRANCH  15  16
ENDBRANCH  14  15
ENDBRANCH   2  14
TORSDOF 5
ENDMDL
MODEL 9
REMARK VINA RESULT:      -6.8      1.037      1.937
REMARK  Name = 
REMARK  7 active torsions:
REMARK  status: ('A' for Active; 'I' for Inactive)
REMARK    1  A    between atoms: C_1  and  C_2
REMARK    2  A    between atoms: C_6  and  C_7
REMARK    3  A    between atoms: C_7  and  C_8
REMARK    4  A    between atoms: C_7  and  N_9
REMARK    5  A    between atoms: C_10  and  C_12
REMARK    6  A    between atoms: C_12  and  C_13
REMARK    7  A    between atoms: C_13  and  C_14
REMARK                            x       y       z     vdW  Elec       q    Type
REMARK                         _______ _______ _______ _____ _____    ______ ____
ROOT
ATOM      1  N   UNL     1       5.007   4.532  16.450  0.00  0.00    +0.000 N 
ATOM      2  C   UNL     1       4.105   5.232  17.217  0.00  0.00    +0.000 C 
ATOM      3  O   UNL     1       4.289   6.381  17.602  0.00  0.00    +0.000 OA
ATOM      4  H   UNL     1       4.690   3.718  15.940  0.00  0.00    +0.000 HD
ENDROOT
BRANCH   1   5
ATOM      5  C   UNL     1       6.283   5.103  16.034  0.00  0.00    +0.000 C 
ATOM      6  C   UNL     1       7.394   4.544  16.929  0.00  0.00    +0.000 C 
BRANCH   5  12
ATOM      7  C   UNL     1       5.113   2.707  11.946  0.00  0.00    +0.000 C 
ATOM      8  C   UNL     1       6.020   3.701  12.607  0.00  0.00    +0.000 A 
ATOM      9  C   UNL     1       7.111   4.238  11.937  0.00  0.00    +0.000 A 
ATOM     10  C   UNL     1       7.940   5.126  12.617  0.00  0.00    +0.000 A 
ATOM     11  C   UNL     1       7.667   5.432  13.946  0.00  0.00    +0.000 A 
ATOM     12  C   UNL     1       6.569   4.841  14.563  0.00  0.00    +0.000 A 
ATOM     13  N   UNL     1       5.731   4.007  13.893  0.00  0.00    +0.000 NA
ENDBRANCH   5  12
ENDBRANCH   1   5
BRANCH   2  14
ATOM     14  C   UNL     1       2.873   4.439  17.594  0.00  0.00    +0.000 C 
BRANCH  14  15
ATOM     15  C   UNL     1       2.117   5.150  18.715  0.00  0.00    +0.000 C 
BRANCH  15  16
ATOM     16  C   UNL     1       1.811   4.263  19.868  0.00  0.00    +0.000 A 
ATOM     17  C   UNL     1       2.440   4.242  21.134  0.00  0.00    +0.000 A 
ATOM     18  N   UNL     1       1.949   3.297  21.937  0.00  0.00    +0.000 NA
ATOM     19  N   UNL     1       1.005   2.704  21.190  0.00  0.00    +0.000 N 
ATOM     20  C   UNL     1       0.878   3.251  19.946  0.00  0.00    +0.000 A 
ATOM     21  H   UNL     1       0.490   1.928  21.593  0.00  0.00    +0.000 HD
ENDBRANCH  15  16
ENDBRANCH  14  15
ENDBRANCH   2  14
TORSDOF 5
ENDMDL
