MODEL 1
REMARK VINA RESULT:      -9.0      0.000      0.000
REMARK  Name = 
REMARK  11 active torsions:
REMARK  status: ('A' for Active; 'I' for Inactive)
REMARK    1  A    between atoms: C_1  and  C_2
REMARK    2  A    between atoms: C_5  and  C_6
REMARK    3  A    between atoms: C_6  and  C_7
REMARK    4  A    between atoms: C_6  and  C_8
REMARK    5  A    between atoms: N_9  and  C_10
REMARK    6  A    between atoms: N_18  and  C_19
REMARK    7  A    between atoms: C_19  and  C_20
REMARK    8  A    between atoms: C_20  and  C_21
REMARK    9  A    between atoms: C_21  and  N_22
REMARK   10  A    between atoms: C_21  and  C_29
REMARK   11  A    between atoms: C_23  and  C_25
REMARK                            x       y       z     vdW  Elec       q    Type
REMARK                         _______ _______ _______ _____ _____    ______ ____
ROOT
ATOM      1  C   UNL     1       2.551   6.606  20.131  0.00  0.00    +0.000 C 
ATOM      2  C   UNL     1       1.419   6.023  20.912  0.00  0.00    +0.000 C 
ATOM      3  C   UNL     1       2.127   5.110  19.939  0.00  0.00    +0.000 C 
ATOM      4  C   UNL     1       2.573   3.858  20.687  0.00  0.00    +0.000 C 
ATOM      5  C   UNL     1       2.792   2.879  19.535  0.00  0.00    +0.000 C 
ATOM      6  C   UNL     1       1.450   2.486  18.880  0.00  0.00    +0.000 C 
ATOM      7  C   UNL     1       1.065   3.736  18.083  0.00  0.00    +0.000 C 
ATOM      8  C   UNL     1       2.174   4.714  18.443  0.00  0.00    +0.000 C 
ATOM      9  N   UNL     1       3.378   3.851  18.590  0.00  0.00    +0.000 NA
ENDROOT
BRANCH   1  15
ATOM     10  C   UNL     1       3.812   7.166  17.192  0.00  0.00    +0.000 C 
ATOM     11  C   UNL     1       2.792   7.936  17.932  0.00  0.00    +0.000 A 
ATOM     12  N   UNL     1       2.229   9.004  17.415  0.00  0.00    +0.000 NA
ATOM     13  N   UNL     1       1.309   9.473  18.299  0.00  0.00    +0.000 NA
ATOM     14  C   UNL     1       1.302   8.701  19.369  0.00  0.00    +0.000 A 
ATOM     15  N   UNL     1       2.248   7.701  19.190  0.00  0.00    +0.000 N 
BRANCH  14  16
ATOM     16  C   UNL     1       0.464   8.993  20.582  0.00  0.00    +0.000 C 
ATOM     17  C   UNL     1       1.364   9.545  21.707  0.00  0.00    +0.000 C 
ATOM     18  C   UNL     1      -0.628  10.027  20.323  0.00  0.00    +0.000 C 
ENDBRANCH  14  16
ENDBRANCH   1  15
BRANCH   9  19
ATOM     19  C   UNL     1       3.971   3.187  17.438  0.00  0.00    +0.000 C 
BRANCH  19  20
ATOM     20  C   UNL     1       4.356   4.060  16.245  0.00  0.00    +0.000 C 
BRANCH  20  21
ATOM     21  C   UNL     1       5.863   4.242  15.979  0.00  0.00    +0.000 C 
BRANCH  21  22
ATOM     22  C   UNL     1       6.308   4.237  14.520  0.00  0.00    +0.000 A 
ATOM     23  C   UNL     1       7.334   5.111  14.115  0.00  0.00    +0.000 A 
ATOM     24  C   UNL     1       7.774   5.155  12.791  0.00  0.00    +0.000 A 
ATOM     25  C   UNL     1       7.189   4.320  11.843  0.00  0.00    +0.000 A 
ATOM     26  C   UNL     1       6.156   3.459  12.219  0.00  0.00    +0.000 A 
ATOM     27  C   UNL     1       5.712   3.422  13.540  0.00  0.00    +0.000 A 
ENDBRANCH  21  22
BRANCH  21  28
ATOM     28  N   UNL     1       6.286   5.496  16.616  0.00  0.00    +0.000 N 
ATOM     29  C   UNL     1       6.862   5.528  17.868  0.00  0.00    +0.000 C 
ATOM     30  O   UNL     1       7.100   4.493  18.489  0.00  0.00    +0.000 OA
ATOM     31  H   UNL     1       6.311   6.333  16.053  0.00  0.00    +0.000 HD
BRANCH  29  32
ATOM     32  C   UNL     1       7.175   6.956  18.400  0.00  0.00    +0.000 C 
ATOM     33  C   UNL     1       8.569   7.179  19.057  0.00  0.00    +0.000 C 
ATOM     34  C   UNL     1       8.572   8.582  18.417  0.00  0.00    +0.000 C 
ATOM     35  C   UNL     1       7.616   8.016  17.351  0.00  0.00    +0.000 C 
ENDBRANCH  29  32
ENDBRANCH  21  28
ENDBRANCH  20  21
ENDBRANCH  19  20
ENDBRANCH   9  19
TORSDOF 8
ENDMDL
MODEL 2
REMARK VINA RESULT:      -8.5      2.841      6.597
REMARK  Name = 
REMARK  11 active torsions:
REMARK  status: ('A' for Active; 'I' for Inactive)
REMARK    1  A    between atoms: C_1  and  C_2
REMARK    2  A    between atoms: C_5  and  C_6
REMARK    3  A    between atoms: C_6  and  C_7
REMARK    4  A    between atoms: C_6  and  C_8
REMARK    5  A    between atoms: N_9  and  C_10
REMARK    6  A    between atoms: N_18  and  C_19
REMARK    7  A    between atoms: C_19  and  C_20
REMARK    8  A    between atoms: C_20  and  C_21
REMARK    9  A    between atoms: C_21  and  N_22
REMARK   10  A    between atoms: C_21  and  C_29
REMARK   11  A    between atoms: C_23  and  C_25
REMARK                            x       y       z     vdW  Elec       q    Type
REMARK                         _______ _______ _______ _____ _____    ______ ____
ROOT
ATOM      1  C   UNL     1      -1.220  12.482  19.418  0.00  0.00    +0.000 C 
ATOM      2  C   UNL     1      -0.908  12.984  20.791  0.00  0.00    +0.000 C 
ATOM      3  C   UNL     1      -0.298  11.663  20.385  0.00  0.00    +0.000 C 
ATOM      4  C   UNL     1       1.209  11.737  20.605  0.00  0.00    +0.000 C 
ATOM      5  C   UNL     1       1.583  10.257  20.640  0.00  0.00    +0.000 C 
ATOM      6  C   UNL     1       1.035   9.578  21.914  0.00  0.00    +0.000 C 
ATOM      7  C   UNL     1      -0.466   9.455  21.633  0.00  0.00    +0.000 C 
ATOM      8  C   UNL     1      -0.609  10.150  20.287  0.00  0.00    +0.000 C 
ATOM      9  N   UNL     1       0.657   9.818  19.576  0.00  0.00    +0.000 NA
ENDROOT
BRANCH   1  15
ATOM     10  C   UNL     1      -3.867  12.957  21.237  0.00  0.00    +0.000 C 
ATOM     11  C   UNL     1      -3.755  12.362  19.890  0.00  0.00    +0.000 A 
ATOM     12  N   UNL     1      -4.814  11.953  19.229  0.00  0.00    +0.000 NA
ATOM     13  N   UNL     1      -4.410  11.496  18.015  0.00  0.00    +0.000 NA
ATOM     14  C   UNL     1      -3.099  11.615  17.920  0.00  0.00    +0.000 A 
ATOM     15  N   UNL     1      -2.625  12.157  19.106  0.00  0.00    +0.000 N 
BRANCH  14  16
ATOM     16  C   UNL     1      -2.317  11.114  16.738  0.00  0.00    +0.000 C 
ATOM     17  C   UNL     1      -1.794   9.692  17.033  0.00  0.00    +0.000 C 
ATOM     18  C   UNL     1      -3.145  11.039  15.458  0.00  0.00    +0.000 C 
ENDBRANCH  14  16
ENDBRANCH   1  15
BRANCH   9  19
ATOM     19  C   UNL     1       0.943   8.456  19.146  0.00  0.00    +0.000 C 
BRANCH  19  20
ATOM     20  C   UNL     1       2.215   8.228  18.333  0.00  0.00    +0.000 C 
BRANCH  20  21
ATOM     21  C   UNL     1       3.062   6.995  18.704  0.00  0.00    +0.000 C 
BRANCH  21  22
ATOM     22  C   UNL     1       2.303   5.707  19.002  0.00  0.00    +0.000 A 
ATOM     23  C   UNL     1       2.005   5.381  20.338  0.00  0.00    +0.000 A 
ATOM     24  C   UNL     1       1.322   4.210  20.669  0.00  0.00    +0.000 A 
ATOM     25  C   UNL     1       0.922   3.337  19.660  0.00  0.00    +0.000 A 
ATOM     26  C   UNL     1       1.223   3.632  18.328  0.00  0.00    +0.000 A 
ATOM     27  C   UNL     1       1.913   4.797  18.000  0.00  0.00    +0.000 A 
ENDBRANCH  21  22
BRANCH  21  28
ATOM     28  N   UNL     1       4.019   6.760  17.615  0.00  0.00    +0.000 N 
ATOM     29  C   UNL     1       5.214   6.103  17.816  0.00  0.00    +0.000 C 
ATOM     30  O   UNL     1       5.509   5.631  18.914  0.00  0.00    +0.000 OA
ATOM     31  H   UNL     1       3.717   6.933  16.668  0.00  0.00    +0.000 HD
BRANCH  29  32
ATOM     32  C   UNL     1       6.123   6.014  16.556  0.00  0.00    +0.000 C 
ATOM     33  C   UNL     1       7.141   4.838  16.497  0.00  0.00    +0.000 C 
ATOM     34  C   UNL     1       6.865   4.764  14.981  0.00  0.00    +0.000 C 
ATOM     35  C   UNL     1       5.493   5.397  15.276  0.00  0.00    +0.000 C 
ENDBRANCH  29  32
ENDBRANCH  21  28
ENDBRANCH  20  21
ENDBRANCH  19  20
ENDBRANCH   9  19
TORSDOF 8
ENDMDL
MODEL 3
REMARK VINA RESULT:      -8.5      0.721      1.124
REMARK  Name = 
REMARK  11 active torsions:
REMARK  status: ('A' for Active; 'I' for Inactive)
REMARK    1  A    between atoms: C_1  and  C_2
REMARK    2  A    between atoms: C_5  and  C_6
REMARK    3  A    between atoms: C_6  and  C_7
REMARK    4  A    between atoms: C_6  and  C_8
REMARK    5  A    between atoms: N_9  and  C_10
REMARK    6  A    between atoms: N_18  and  C_19
REMARK    7  A    between atoms: C_19  and  C_20
REMARK    8  A    between atoms: C_20  and  C_21
REMARK    9  A    between atoms: C_21  and  N_22
REMARK   10  A    between atoms: C_21  and  C_29
REMARK   11  A    between atoms: C_23  and  C_25
REMARK                            x       y       z     vdW  Elec       q    Type
REMARK                         _______ _______ _______ _____ _____    ______ ____
ROOT
ATOM      1  C   UNL     1       2.614   6.711  20.085  0.00  0.00    +0.000 C 
ATOM      2  C   UNL     1       1.671   5.802  20.804  0.00  0.00    +0.000 C 
ATOM      3  C   UNL     1       2.357   5.252  19.575  0.00  0.00    +0.000 C 
ATOM      4  C   UNL     1       3.046   3.944  19.950  0.00  0.00    +0.000 C 
ATOM      5  C   UNL     1       3.236   3.299  18.578  0.00  0.00    +0.000 C 
ATOM      6  C   UNL     1       1.881   2.868  17.977  0.00  0.00    +0.000 C 
ATOM      7  C   UNL     1       1.246   4.195  17.548  0.00  0.00    +0.000 C 
ATOM      8  C   UNL     1       2.262   5.220  18.031  0.00  0.00    +0.000 C 
ATOM      9  N   UNL     1       3.573   4.538  17.849  0.00  0.00    +0.000 NA
ENDROOT
BRANCH   1  15
ATOM     10  C   UNL     1       3.289   8.018  17.191  0.00  0.00    +0.000 C 
ATOM     11  C   UNL     1       2.353   8.489  18.232  0.00  0.00    +0.000 A 
ATOM     12  N   UNL     1       1.621   9.566  18.061  0.00  0.00    +0.000 NA
ATOM     13  N   UNL     1       0.835   9.727  19.158  0.00  0.00    +0.000 NA
ATOM     14  C   UNL     1       1.080   8.754  20.014  0.00  0.00    +0.000 A 
ATOM     15  N   UNL     1       2.060   7.934  19.473  0.00  0.00    +0.000 N 
BRANCH  14  16
ATOM     16  C   UNL     1       0.446   8.685  21.375  0.00  0.00    +0.000 C 
ATOM     17  C   UNL     1       1.483   9.087  22.446  0.00  0.00    +0.000 C 
ATOM     18  C   UNL     1      -0.752   9.618  21.528  0.00  0.00    +0.000 C 
ENDBRANCH  14  16
ENDBRANCH   1  15
BRANCH   9  19
ATOM     19  C   UNL     1       4.092   4.251  16.518  0.00  0.00    +0.000 C 
BRANCH  19  20
ATOM     20  C   UNL     1       5.338   3.373  16.424  0.00  0.00    +0.000 C 
BRANCH  20  21
ATOM     21  C   UNL     1       6.620   4.045  15.896  0.00  0.00    +0.000 C 
BRANCH  21  22
ATOM     22  C   UNL     1       6.751   4.178  14.383  0.00  0.00    +0.000 A 
ATOM     23  C   UNL     1       6.010   3.316  13.553  0.00  0.00    +0.000 A 
ATOM     24  C   UNL     1       6.099   3.387  12.162  0.00  0.00    +0.000 A 
ATOM     25  C   UNL     1       6.939   4.329  11.573  0.00  0.00    +0.000 A 
ATOM     26  C   UNL     1       7.697   5.182  12.377  0.00  0.00    +0.000 A 
ATOM     27  C   UNL     1       7.614   5.104  13.767  0.00  0.00    +0.000 A 
ENDBRANCH  21  22
BRANCH  21  28
ATOM     28  N   UNL     1       6.723   5.373  16.515  0.00  0.00    +0.000 N 
ATOM     29  C   UNL     1       7.313   5.567  17.746  0.00  0.00    +0.000 C 
ATOM     30  O   UNL     1       7.835   4.637  18.359  0.00  0.00    +0.000 OA
ATOM     31  H   UNL     1       6.508   6.181  15.951  0.00  0.00    +0.000 HD
BRANCH  29  32
ATOM     32  C   UNL     1       7.261   7.033  18.264  0.00  0.00    +0.000 C 
ATOM     33  C   UNL     1       8.598   7.658  18.761  0.00  0.00    +0.000 C 
ATOM     34  C   UNL     1       8.124   8.992  18.151  0.00  0.00    +0.000 C 
ATOM     35  C   UNL     1       7.254   8.159  17.191  0.00  0.00    +0.000 C 
ENDBRANCH  29  32
ENDBRANCH  21  28
ENDBRANCH  20  21
ENDBRANCH  19  20
ENDBRANCH   9  19
TORSDOF 8
ENDMDL
MODEL 4
REMARK VINA RESULT:      -8.3      3.205      6.681
REMARK  Name = 
REMARK  11 active torsions:
REMARK  status: ('A' for Active; 'I' for Inactive)
REMARK    1  A    between atoms: C_1  and  C_2
REMARK    2  A    between atoms: C_5  and  C_6
REMARK    3  A    between atoms: C_6  and  C_7
REMARK    4  A    between atoms: C_6  and  C_8
REMARK    5  A    between atoms: N_9  and  C_10
REMARK    6  A    between atoms: N_18  and  C_19
REMARK    7  A    between atoms: C_19  and  C_20
REMARK    8  A    between atoms: C_20  and  C_21
REMARK    9  A    between atoms: C_21  and  N_22
REMARK   10  A    between atoms: C_21  and  C_29
REMARK   11  A    between atoms: C_23  and  C_25
REMARK                            x       y       z     vdW  Elec       q    Type
REMARK                         _______ _______ _______ _____ _____    ______ ____
ROOT
ATOM      1  C   UNL     1      -1.436  12.240  18.087  0.00  0.00    +0.000 C 
ATOM      2  C   UNL     1      -1.052  12.982  19.327  0.00  0.00    +0.000 C 
ATOM      3  C   UNL     1      -0.371  11.657  19.077  0.00  0.00    +0.000 C 
ATOM      4  C   UNL     1       1.138  11.869  19.134  0.00  0.00    +0.000 C 
ATOM      5  C   UNL     1       1.636  10.444  19.366  0.00  0.00    +0.000 C 
ATOM      6  C   UNL     1       1.257   9.949  20.779  0.00  0.00    +0.000 C 
ATOM      7  C   UNL     1      -0.247   9.679  20.669  0.00  0.00    +0.000 C 
ATOM      8  C   UNL     1      -0.561  10.130  19.250  0.00  0.00    +0.000 C 
ATOM      9  N   UNL     1       0.663   9.774  18.481  0.00  0.00    +0.000 NA
ENDROOT
BRANCH   1  15
ATOM     10  C   UNL     1      -3.900  12.651  20.162  0.00  0.00    +0.000 C 
ATOM     11  C   UNL     1      -3.882  11.951  18.861  0.00  0.00    +0.000 A 
ATOM     12  N   UNL     1      -4.964  11.398  18.364  0.00  0.00    +0.000 NA
ATOM     13  N   UNL     1      -4.656  10.871  17.150  0.00  0.00    +0.000 NA
ATOM     14  C   UNL     1      -3.380  11.090  16.893  0.00  0.00    +0.000 A 
ATOM     15  N   UNL     1      -2.831  11.772  17.969  0.00  0.00    +0.000 N 
BRANCH  14  16
ATOM     16  C   UNL     1      -2.690  10.554  15.670  0.00  0.00    +0.000 C 
ATOM     17  C   UNL     1      -1.974   9.232  16.022  0.00  0.00    +0.000 C 
ATOM     18  C   UNL     1      -3.648  10.261  14.518  0.00  0.00    +0.000 C 
ENDBRANCH  14  16
ENDBRANCH   1  15
BRANCH   9  19
ATOM     19  C   UNL     1       1.024   8.382  18.245  0.00  0.00    +0.000 C 
BRANCH  19  20
ATOM     20  C   UNL     1       2.511   8.042  18.186  0.00  0.00    +0.000 C 
BRANCH  20  21
ATOM     21  C   UNL     1       2.875   6.588  17.829  0.00  0.00    +0.000 C 
BRANCH  21  22
ATOM     22  C   UNL     1       4.353   6.285  17.610  0.00  0.00    +0.000 A 
ATOM     23  C   UNL     1       4.880   6.352  16.307  0.00  0.00    +0.000 A 
ATOM     24  C   UNL     1       6.223   6.075  16.047  0.00  0.00    +0.000 A 
ATOM     25  C   UNL     1       7.068   5.721  17.096  0.00  0.00    +0.000 A 
ATOM     26  C   UNL     1       6.562   5.630  18.394  0.00  0.00    +0.000 A 
ATOM     27  C   UNL     1       5.219   5.899  18.651  0.00  0.00    +0.000 A 
ENDBRANCH  21  22
BRANCH  21  28
ATOM     28  N   UNL     1       2.348   5.717  18.888  0.00  0.00    +0.000 N 
ATOM     29  C   UNL     1       1.602   4.591  18.611  0.00  0.00    +0.000 C 
ATOM     30  O   UNL     1       1.392   4.232  17.454  0.00  0.00    +0.000 OA
ATOM     31  H   UNL     1       2.682   5.855  19.830  0.00  0.00    +0.000 HD
BRANCH  29  32
ATOM     32  C   UNL     1       1.074   3.840  19.868  0.00  0.00    +0.000 C 
ATOM     33  C   UNL     1       1.500   2.352  20.036  0.00  0.00    +0.000 C 
ATOM     34  C   UNL     1       1.581   2.617  21.553  0.00  0.00    +0.000 C 
ATOM     35  C   UNL     1       1.822   4.098  21.207  0.00  0.00    +0.000 C 
ENDBRANCH  29  32
ENDBRANCH  21  28
ENDBRANCH  20  21
ENDBRANCH  19  20
ENDBRANCH   9  19
TORSDOF 8
ENDMDL
MODEL 5
REMARK VINA RESULT:      -8.2      2.979      6.551
REMARK  Name = 
REMARK  11 active torsions:
REMARK  status: ('A' for Active; 'I' for Inactive)
REMARK    1  A    between atoms: C_1  and  C_2
REMARK    2  A    between atoms: C_5  and  C_6
REMARK    3  A    between atoms: C_6  and  C_7
REMARK    4  A    between atoms: C_6  and  C_8
REMARK    5  A    between atoms: N_9  and  C_10
REMARK    6  A    between atoms: N_18  and  C_19
REMARK    7  A    between atoms: C_19  and  C_20
REMARK    8  A    between atoms: C_20  and  C_21
REMARK    9  A    between atoms: C_21  and  N_22
REMARK   10  A    between atoms: C_21  and  C_29
REMARK   11  A    between atoms: C_23  and  C_25
REMARK                            x       y       z     vdW  Elec       q    Type
REMARK                         _______ _______ _______ _____ _____    ______ ____
ROOT
ATOM      1  C   UNL     1      -1.364  12.451  19.392  0.00  0.00    +0.000 C 
ATOM      2  C   UNL     1      -1.047  12.750  20.821  0.00  0.00    +0.000 C 
ATOM      3  C   UNL     1      -0.390  11.535  20.209  0.00  0.00    +0.000 C 
ATOM      4  C   UNL     1       1.117  11.642  20.419  0.00  0.00    +0.000 C 
ATOM      5  C   UNL     1       1.553  10.191  20.221  0.00  0.00    +0.000 C 
ATOM      6  C   UNL     1       1.059   9.302  21.383  0.00  0.00    +0.000 C 
ATOM      7  C   UNL     1      -0.441   9.157  21.106  0.00  0.00    +0.000 C 
ATOM      8  C   UNL     1      -0.639  10.042  19.884  0.00  0.00    +0.000 C 
ATOM      9  N   UNL     1       0.626   9.880  19.115  0.00  0.00    +0.000 NA
ENDROOT
BRANCH   1  15
ATOM     10  C   UNL     1      -2.480  10.699  16.897  0.00  0.00    +0.000 C 
ATOM     11  C   UNL     1      -3.231  11.364  17.980  0.00  0.00    +0.000 A 
ATOM     12  N   UNL     1      -4.540  11.283  18.058  0.00  0.00    +0.000 NA
ATOM     13  N   UNL     1      -4.944  11.951  19.171  0.00  0.00    +0.000 NA
ATOM     14  C   UNL     1      -3.889  12.453  19.783  0.00  0.00    +0.000 A 
ATOM     15  N   UNL     1      -2.760  12.115  19.051  0.00  0.00    +0.000 N 
BRANCH  14  16
ATOM     16  C   UNL     1      -3.991  13.331  20.998  0.00  0.00    +0.000 C 
ATOM     17  C   UNL     1      -4.629  14.681  20.606  0.00  0.00    +0.000 C 
ATOM     18  C   UNL     1      -4.849  12.726  22.106  0.00  0.00    +0.000 C 
ENDBRANCH  14  16
ENDBRANCH   1  15
BRANCH   9  19
ATOM     19  C   UNL     1       0.960   8.614  18.477  0.00  0.00    +0.000 C 
BRANCH  19  20
ATOM     20  C   UNL     1       2.346   8.487  17.849  0.00  0.00    +0.000 C 
BRANCH  20  21
ATOM     21  C   UNL     1       3.195   7.277  18.284  0.00  0.00    +0.000 C 
BRANCH  21  22
ATOM     22  C   UNL     1       2.441   6.081  18.856  0.00  0.00    +0.000 A 
ATOM     23  C   UNL     1       2.016   5.059  17.985  0.00  0.00    +0.000 A 
ATOM     24  C   UNL     1       1.315   3.948  18.453  0.00  0.00    +0.000 A 
ATOM     25  C   UNL     1       1.023   3.837  19.810  0.00  0.00    +0.000 A 
ATOM     26  C   UNL     1       1.419   4.848  20.689  0.00  0.00    +0.000 A 
ATOM     27  C   UNL     1       2.112   5.963  20.219  0.00  0.00    +0.000 A 
ENDBRANCH  21  22
BRANCH  21  28
ATOM     28  N   UNL     1       3.993   6.846  17.128  0.00  0.00    +0.000 N 
ATOM     29  C   UNL     1       5.196   6.188  17.270  0.00  0.00    +0.000 C 
ATOM     30  O   UNL     1       5.630   5.879  18.380  0.00  0.00    +0.000 OA
ATOM     31  H   UNL     1       3.569   6.883  16.214  0.00  0.00    +0.000 HD
BRANCH  29  32
ATOM     32  C   UNL     1       5.925   5.878  15.931  0.00  0.00    +0.000 C 
ATOM     33  C   UNL     1       7.190   4.973  16.004  0.00  0.00    +0.000 C 
ATOM     34  C   UNL     1       6.746   4.359  14.661  0.00  0.00    +0.000 C 
ATOM     35  C   UNL     1       5.309   4.767  15.035  0.00  0.00    +0.000 C 
ENDBRANCH  29  32
ENDBRANCH  21  28
ENDBRANCH  20  21
ENDBRANCH  19  20
ENDBRANCH   9  19
TORSDOF 8
ENDMDL
MODEL 6
REMARK VINA RESULT:      -8.1      2.723      6.415
REMARK  Name = 
REMARK  11 active torsions:
REMARK  status: ('A' for Active; 'I' for Inactive)
REMARK    1  A    between atoms: C_1  and  C_2
REMARK    2  A    between atoms: C_5  and  C_6
REMARK    3  A    between atoms: C_6  and  C_7
REMARK    4  A    between atoms: C_6  and  C_8
REMARK    5  A    between atoms: N_9  and  C_10
REMARK    6  A    between atoms: N_18  and  C_19
REMARK    7  A    between atoms: C_19  and  C_20
REMARK    8  A    between atoms: C_20  and  C_21
REMARK    9  A    between atoms: C_21  and  N_22
REMARK   10  A    between atoms: C_21  and  C_29
REMARK   11  A    between atoms: C_23  and  C_25
REMARK                            x       y       z     vdW  Elec       q    Type
REMARK                         _______ _______ _______ _____ _____    ______ ____
ROOT
ATOM      1  C   UNL     1      -0.948  12.073  19.537  0.00  0.00    +0.000 C 
ATOM      2  C   UNL     1      -0.883  12.708  20.888  0.00  0.00    +0.000 C 
ATOM      3  C   UNL     1      -0.223  11.359  20.728  0.00  0.00    +0.000 C 
ATOM      4  C   UNL     1       1.220  11.466  21.208  0.00  0.00    +0.000 C 
ATOM      5  C   UNL     1       1.567   9.999  21.454  0.00  0.00    +0.000 C 
ATOM      6  C   UNL     1       0.792   9.443  22.669  0.00  0.00    +0.000 C 
ATOM      7  C   UNL     1      -0.635   9.282  22.135  0.00  0.00    +0.000 C 
ATOM      8  C   UNL     1      -0.526   9.841  20.723  0.00  0.00    +0.000 C 
ATOM      9  N   UNL     1       0.844   9.452  20.289  0.00  0.00    +0.000 NA
ENDROOT
BRANCH   1  15
ATOM     10  C   UNL     1      -1.689   9.957  17.188  0.00  0.00    +0.000 C 
ATOM     11  C   UNL     1      -2.588  10.800  18.003  0.00  0.00    +0.000 A 
ATOM     12  N   UNL     1      -3.892  10.753  17.858  0.00  0.00    +0.000 NA
ATOM     13  N   UNL     1      -4.454  11.598  18.762  0.00  0.00    +0.000 NA
ATOM     14  C   UNL     1      -3.500  12.177  19.466  0.00  0.00    +0.000 A 
ATOM     15  N   UNL     1      -2.277  11.707  19.009  0.00  0.00    +0.000 N 
BRANCH  14  16
ATOM     16  C   UNL     1      -3.773  13.242  20.491  0.00  0.00    +0.000 C 
ATOM     17  C   UNL     1      -5.017  14.053  20.071  0.00  0.00    +0.000 C 
ATOM     18  C   UNL     1      -4.045  12.679  21.884  0.00  0.00    +0.000 C 
ENDBRANCH  14  16
ENDBRANCH   1  15
BRANCH   9  19
ATOM     19  C   UNL     1       1.189   8.056  20.051  0.00  0.00    +0.000 C 
BRANCH  19  20
ATOM     20  C   UNL     1       2.172   7.758  18.922  0.00  0.00    +0.000 C 
BRANCH  20  21
ATOM     21  C   UNL     1       3.026   6.484  19.067  0.00  0.00    +0.000 C 
BRANCH  21  22
ATOM     22  C   UNL     1       2.278   5.184  19.342  0.00  0.00    +0.000 A 
ATOM     23  C   UNL     1       2.195   4.710  20.665  0.00  0.00    +0.000 A 
ATOM     24  C   UNL     1       1.531   3.522  20.973  0.00  0.00    +0.000 A 
ATOM     25  C   UNL     1       0.935   2.781  19.955  0.00  0.00    +0.000 A 
ATOM     26  C   UNL     1       1.022   3.224  18.633  0.00  0.00    +0.000 A 
ATOM     27  C   UNL     1       1.693   4.406  18.326  0.00  0.00    +0.000 A 
ENDBRANCH  21  22
BRANCH  21  28
ATOM     28  N   UNL     1       3.831   6.337  17.846  0.00  0.00    +0.000 N 
ATOM     29  C   UNL     1       5.090   5.776  17.858  0.00  0.00    +0.000 C 
ATOM     30  O   UNL     1       5.577   5.319  18.891  0.00  0.00    +0.000 OA
ATOM     31  H   UNL     1       3.382   6.496  16.957  0.00  0.00    +0.000 HD
BRANCH  29  32
ATOM     32  C   UNL     1       5.810   5.774  16.479  0.00  0.00    +0.000 C 
ATOM     33  C   UNL     1       7.156   4.998  16.382  0.00  0.00    +0.000 C 
ATOM     34  C   UNL     1       6.737   4.583  14.957  0.00  0.00    +0.000 C 
ATOM     35  C   UNL     1       5.278   4.778  15.409  0.00  0.00    +0.000 C 
ENDBRANCH  29  32
ENDBRANCH  21  28
ENDBRANCH  20  21
ENDBRANCH  19  20
ENDBRANCH   9  19
TORSDOF 8
ENDMDL
MODEL 7
REMARK VINA RESULT:      -8.1      2.985      6.619
REMARK  Name = 
REMARK  11 active torsions:
REMARK  status: ('A' for Active; 'I' for Inactive)
REMARK    1  A    between atoms: C_1  and  C_2
REMARK    2  A    between atoms: C_5  and  C_6
REMARK    3  A    between atoms: C_6  and  C_7
REMARK    4  A    between atoms: C_6  and  C_8
REMARK    5  A    between atoms: N_9  and  C_10
REMARK    6  A    between atoms: N_18  and  C_19
REMARK    7  A    between atoms: C_19  and  C_20
REMARK    8  A    between atoms: C_20  and  C_21
REMARK    9  A    between atoms: C_21  and  N_22
REMARK   10  A    between atoms: C_21  and  C_29
REMARK   11  A    between atoms: C_23  and  C_25
REMARK                            x       y       z     vdW  Elec       q    Type
REMARK                         _______ _______ _______ _____ _____    ______ ____
ROOT
ATOM      1  C   UNL     1      -1.498  12.203  18.088  0.00  0.00    +0.000 C 
ATOM      2  C   UNL     1      -1.120  13.201  19.134  0.00  0.00    +0.000 C 
ATOM      3  C   UNL     1      -0.409  11.868  19.164  0.00  0.00    +0.000 C 
ATOM      4  C   UNL     1       1.095  12.120  19.152  0.00  0.00    +0.000 C 
ATOM      5  C   UNL     1       1.628  10.789  19.677  0.00  0.00    +0.000 C 
ATOM      6  C   UNL     1       1.275  10.601  21.169  0.00  0.00    +0.000 C 
ATOM      7  C   UNL     1      -0.223  10.281  21.141  0.00  0.00    +0.000 C 
ATOM      8  C   UNL     1      -0.562  10.411  19.662  0.00  0.00    +0.000 C 
ATOM      9  N   UNL     1       0.663   9.924  18.970  0.00  0.00    +0.000 NA
ENDROOT
BRANCH   1  15
ATOM     10  C   UNL     1      -2.855  10.000  16.126  0.00  0.00    +0.000 C 
ATOM     11  C   UNL     1      -3.457  10.747  17.249  0.00  0.00    +0.000 A 
ATOM     12  N   UNL     1      -4.706  10.556  17.609  0.00  0.00    +0.000 NA
ATOM     13  N   UNL     1      -4.965  11.343  18.687  0.00  0.00    +0.000 NA
ATOM     14  C   UNL     1      -3.880  12.028  18.996  0.00  0.00    +0.000 A 
ATOM     15  N   UNL     1      -2.882  11.691  18.093  0.00  0.00    +0.000 N 
BRANCH  14  16
ATOM     16  C   UNL     1      -3.851  13.065  20.083  0.00  0.00    +0.000 C 
ATOM     17  C   UNL     1      -5.250  13.702  20.224  0.00  0.00    +0.000 C 
ATOM     18  C   UNL     1      -3.470  12.494  21.447  0.00  0.00    +0.000 C 
ENDBRANCH  14  16
ENDBRANCH   1  15
BRANCH   9  19
ATOM     19  C   UNL     1       1.055   8.522  19.033  0.00  0.00    +0.000 C 
BRANCH  19  20
ATOM     20  C   UNL     1       2.183   8.065  18.111  0.00  0.00    +0.000 C 
BRANCH  20  21
ATOM     21  C   UNL     1       3.019   6.861  18.585  0.00  0.00    +0.000 C 
BRANCH  21  22
ATOM     22  C   UNL     1       2.252   5.595  18.952  0.00  0.00    +0.000 A 
ATOM     23  C   UNL     1       1.915   5.365  20.299  0.00  0.00    +0.000 A 
ATOM     24  C   UNL     1       1.223   4.219  20.693  0.00  0.00    +0.000 A 
ATOM     25  C   UNL     1       0.854   3.276  19.738  0.00  0.00    +0.000 A 
ATOM     26  C   UNL     1       1.194   3.475  18.398  0.00  0.00    +0.000 A 
ATOM     27  C   UNL     1       1.893   4.615  18.007  0.00  0.00    +0.000 A 
ENDBRANCH  21  22
BRANCH  21  28
ATOM     28  N   UNL     1       4.002   6.552  17.538  0.00  0.00    +0.000 N 
ATOM     29  C   UNL     1       5.230   5.994  17.823  0.00  0.00    +0.000 C 
ATOM     30  O   UNL     1       5.537   5.675  18.971  0.00  0.00    +0.000 OA
ATOM     31  H   UNL     1       3.703   6.593  16.575  0.00  0.00    +0.000 HD
BRANCH  29  32
ATOM     32  C   UNL     1       6.158   5.808  16.588  0.00  0.00    +0.000 C 
ATOM     33  C   UNL     1       6.494   4.347  16.166  0.00  0.00    +0.000 C 
ATOM     34  C   UNL     1       6.435   4.827  14.702  0.00  0.00    +0.000 C 
ATOM     35  C   UNL     1       5.500   5.951  15.186  0.00  0.00    +0.000 C 
ENDBRANCH  29  32
ENDBRANCH  21  28
ENDBRANCH  20  21
ENDBRANCH  19  20
ENDBRANCH   9  19
TORSDOF 8
ENDMDL
MODEL 8
REMARK VINA RESULT:      -8.0      2.902      6.631
REMARK  Name = 
REMARK  11 active torsions:
REMARK  status: ('A' for Active; 'I' for Inactive)
REMARK    1  A    between atoms: C_1  and  C_2
REMARK    2  A    between atoms: C_5  and  C_6
REMARK    3  A    between atoms: C_6  and  C_7
REMARK    4  A    between atoms: C_6  and  C_8
REMARK    5  A    between atoms: N_9  and  C_10
REMARK    6  A    between atoms: N_18  and  C_19
REMARK    7  A    between atoms: C_19  and  C_20
REMARK    8  A    between atoms: C_20  and  C_21
REMARK    9  A    between atoms: C_21  and  N_22
REMARK   10  A    between atoms: C_21  and  C_29
REMARK   11  A    between atoms: C_23  and  C_25
REMARK                            x       y       z     vdW  Elec       q    Type
REMARK                         _______ _______ _______ _____ _____    ______ ____
ROOT
ATOM      1  C   UNL     1      -1.050  12.368  19.695  0.00  0.00    +0.000 C 
ATOM      2  C   UNL     1      -0.796  12.836  21.092  0.00  0.00    +0.000 C 
ATOM      3  C   UNL     1      -0.173  11.522  20.681  0.00  0.00    +0.000 C 
ATOM      4  C   UNL     1       1.324  11.586  20.966  0.00  0.00    +0.000 C 
ATOM      5  C   UNL     1       1.692  10.103  20.982  0.00  0.00    +0.000 C 
ATOM      6  C   UNL     1       1.088   9.397  22.216  0.00  0.00    +0.000 C 
ATOM      7  C   UNL     1      -0.399   9.286  21.868  0.00  0.00    +0.000 C 
ATOM      8  C   UNL     1      -0.483  10.013  20.533  0.00  0.00    +0.000 C 
ATOM      9  N   UNL     1       0.811   9.694  19.870  0.00  0.00    +0.000 NA
ENDROOT
BRANCH   1  15
ATOM     10  C   UNL     1      -3.773  12.821  21.405  0.00  0.00    +0.000 C 
ATOM     11  C   UNL     1      -3.604  12.251  20.053  0.00  0.00    +0.000 A 
ATOM     12  N   UNL     1      -4.634  11.860  19.339  0.00  0.00    +0.000 NA
ATOM     13  N   UNL     1      -4.179  11.424  18.135  0.00  0.00    +0.000 NA
ATOM     14  C   UNL     1      -2.865  11.537  18.100  0.00  0.00    +0.000 A 
ATOM     15  N   UNL     1      -2.441  12.055  19.316  0.00  0.00    +0.000 N 
BRANCH  14  16
ATOM     16  C   UNL     1      -2.034  11.056  16.944  0.00  0.00    +0.000 C 
ATOM     17  C   UNL     1      -1.541   9.621  17.229  0.00  0.00    +0.000 C 
ATOM     18  C   UNL     1      -2.801  11.021  15.625  0.00  0.00    +0.000 C 
ENDBRANCH  14  16
ENDBRANCH   1  15
BRANCH   9  19
ATOM     19  C   UNL     1       1.111   8.341  19.420  0.00  0.00    +0.000 C 
BRANCH  19  20
ATOM     20  C   UNL     1       2.267   8.168  18.437  0.00  0.00    +0.000 C 
BRANCH  20  21
ATOM     21  C   UNL     1       2.662   6.722  18.080  0.00  0.00    +0.000 C 
BRANCH  21  22
ATOM     22  C   UNL     1       4.140   6.460  17.811  0.00  0.00    +0.000 A 
ATOM     23  C   UNL     1       4.882   5.706  18.740  0.00  0.00    +0.000 A 
ATOM     24  C   UNL     1       6.239   5.445  18.549  0.00  0.00    +0.000 A 
ATOM     25  C   UNL     1       6.883   5.938  17.417  0.00  0.00    +0.000 A 
ATOM     26  C   UNL     1       6.170   6.704  16.492  0.00  0.00    +0.000 A 
ATOM     27  C   UNL     1       4.817   6.972  16.688  0.00  0.00    +0.000 A 
ENDBRANCH  21  22
BRANCH  21  28
ATOM     28  N   UNL     1       2.199   5.846  19.165  0.00  0.00    +0.000 N 
ATOM     29  C   UNL     1       1.489   4.689  18.924  0.00  0.00    +0.000 C 
ATOM     30  O   UNL     1       1.259   4.307  17.778  0.00  0.00    +0.000 OA
ATOM     31  H   UNL     1       2.556   6.008  20.095  0.00  0.00    +0.000 HD
BRANCH  29  32
ATOM     32  C   UNL     1       1.027   3.936  20.205  0.00  0.00    +0.000 C 
ATOM     33  C   UNL     1       1.252   2.396  20.243  0.00  0.00    +0.000 C 
ATOM     34  C   UNL     1       1.567   2.546  21.744  0.00  0.00    +0.000 C 
ATOM     35  C   UNL     1       1.972   4.000  21.438  0.00  0.00    +0.000 C 
ENDBRANCH  29  32
ENDBRANCH  21  28
ENDBRANCH  20  21
ENDBRANCH  19  20
ENDBRANCH   9  19
TORSDOF 8
ENDMDL
MODEL 9
REMARK VINA RESULT:      -8.0      1.096      3.788
REMARK  Name = 
REMARK  11 active torsions:
REMARK  status: ('A' for Active; 'I' for Inactive)
REMARK    1  A    between atoms: C_1  and  C_2
REMARK    2  A    between atoms: C_5  and  C_6
REMARK    3  A    between atoms: C_6  and  C_7
REMARK    4  A    between atoms: C_6  and  C_8
REMARK    5  A    between atoms: N_9  and  C_10
REMARK    6  A    between atoms: N_18  and  C_19
REMARK    7  A    between atoms: C_19  and  C_20
REMARK    8  A    between atoms: C_20  and  C_21
REMARK    9  A    between atoms: C_21  and  N_22
REMARK   10  A    between atoms: C_21  and  C_29
REMARK   11  A    between atoms: C_23  and  C_25
REMARK                            x       y       z     vdW  Elec       q    Type
REMARK                         _______ _______ _______ _____ _____    ______ ____
ROOT
ATOM      1  C   UNL     1       2.265   6.933  20.428  0.00  0.00    +0.000 C 
ATOM      2  C   UNL     1       1.070   6.337  21.099  0.00  0.00    +0.000 C 
ATOM      3  C   UNL     1       1.947   5.404  20.296  0.00  0.00    +0.000 C 
ATOM      4  C   UNL     1       2.354   4.236  21.187  0.00  0.00    +0.000 C 
ATOM      5  C   UNL     1       2.774   3.196  20.149  0.00  0.00    +0.000 C 
ATOM      6  C   UNL     1       1.552   2.679  19.360  0.00  0.00    +0.000 C 
ATOM      7  C   UNL     1       1.212   3.846  18.428  0.00  0.00    +0.000 C 
ATOM      8  C   UNL     1       2.212   4.912  18.853  0.00  0.00    +0.000 C 
ATOM      9  N   UNL     1       3.429   4.136  19.218  0.00  0.00    +0.000 NA
ENDROOT
BRANCH   1  15
ATOM     10  C   UNL     1       3.650   7.172  17.502  0.00  0.00    +0.000 C 
ATOM     11  C   UNL     1       2.629   8.039  18.124  0.00  0.00    +0.000 A 
ATOM     12  N   UNL     1       2.121   9.069  17.487  0.00  0.00    +0.000 NA
ATOM     13  N   UNL     1       1.186   9.647  18.285  0.00  0.00    +0.000 NA
ATOM     14  C   UNL     1       1.114   8.981  19.422  0.00  0.00    +0.000 A 
ATOM     15  N   UNL     1       2.032   7.942  19.376  0.00  0.00    +0.000 N 
BRANCH  14  16
ATOM     16  C   UNL     1       0.242   9.413  20.568  0.00  0.00    +0.000 C 
ATOM     17  C   UNL     1       1.130   9.839  21.757  0.00  0.00    +0.000 C 
ATOM     18  C   UNL     1      -0.658  10.596  20.225  0.00  0.00    +0.000 C 
ENDBRANCH  14  16
ENDBRANCH   1  15
BRANCH   9  19
ATOM     19  C   UNL     1       4.203   3.433  18.204  0.00  0.00    +0.000 C 
BRANCH  19  20
ATOM     20  C   UNL     1       5.675   3.813  18.054  0.00  0.00    +0.000 C 
BRANCH  20  21
ATOM     21  C   UNL     1       5.998   4.950  17.065  0.00  0.00    +0.000 C 
BRANCH  21  22
ATOM     22  C   UNL     1       6.899   6.068  17.577  0.00  0.00    +0.000 A 
ATOM     23  C   UNL     1       7.639   5.865  18.757  0.00  0.00    +0.000 A 
ATOM     24  C   UNL     1       8.471   6.858  19.276  0.00  0.00    +0.000 A 
ATOM     25  C   UNL     1       8.579   8.080  18.618  0.00  0.00    +0.000 A 
ATOM     26  C   UNL     1       7.840   8.310  17.455  0.00  0.00    +0.000 A 
ATOM     27  C   UNL     1       7.001   7.321  16.943  0.00  0.00    +0.000 A 
ENDBRANCH  21  22
BRANCH  21  28
ATOM     28  N   UNL     1       6.595   4.349  15.865  0.00  0.00    +0.000 N 
ATOM     29  C   UNL     1       6.114   4.604  14.598  0.00  0.00    +0.000 C 
ATOM     30  O   UNL     1       5.192   5.396  14.411  0.00  0.00    +0.000 OA
ATOM     31  H   UNL     1       7.481   3.876  15.958  0.00  0.00    +0.000 HD
BRANCH  29  32
ATOM     32  C   UNL     1       6.835   3.819  13.464  0.00  0.00    +0.000 C 
ATOM     33  C   UNL     1       5.940   3.193  12.354  0.00  0.00    +0.000 C 
ATOM     34  C   UNL     1       7.054   3.548  11.349  0.00  0.00    +0.000 C 
ATOM     35  C   UNL     1       7.478   4.661  12.325  0.00  0.00    +0.000 C 
ENDBRANCH  29  32
ENDBRANCH  21  28
ENDBRANCH  20  21
ENDBRANCH  19  20
ENDBRANCH   9  19
TORSDOF 8
ENDMDL
