MODEL 1
REMARK VINA RESULT:      -7.2      0.000      0.000
REMARK  Name = 
REMARK  7 active torsions:
REMARK  status: ('A' for Active; 'I' for Inactive)
REMARK    1  A    between atoms: C_1  and  O_2
REMARK    2  A    between atoms: O_2  and  C_3
REMARK    3  A    between atoms: C_3  and  C_4
REMARK    4  A    between atoms: C_4  and  N_5
REMARK    5  A    between atoms: C_13  and  C_14
REMARK    6  A    between atoms: C_14  and  N_15
REMARK    7  A    between atoms: N_18  and  C_19
REMARK                            x       y       z     vdW  Elec       q    Type
REMARK                         _______ _______ _______ _____ _____    ______ ____
ROOT
ATOM      1  N   UNL     1       3.725   5.938  19.302  0.00  0.00    +0.000 N 
ATOM      2  C   UNL     1       3.760   5.516  17.994  0.00  0.00    +0.000 C 
ATOM      3  O   UNL     1       2.777   5.020  17.452  0.00  0.00    +0.000 OA
ATOM      4  N   UNL     1       4.971   5.688  17.333  0.00  0.00    +0.000 N 
ATOM      5  C   UNL     1       5.038   5.343  15.912  0.00  0.00    +0.000 C 
ATOM      6  C   UNL     1       5.951   4.144  15.660  0.00  0.00    +0.000 C 
ATOM      7  C   UNL     1       7.316   4.293  16.334  0.00  0.00    +0.000 C 
ATOM      8  C   UNL     1       7.151   4.661  17.808  0.00  0.00    +0.000 C 
ATOM      9  C   UNL     1       6.277   5.916  17.992  0.00  0.00    +0.000 C 
ATOM     10  H   UNL     1       4.275   6.765  19.498  0.00  0.00    +0.000 HD
ENDROOT
BRANCH   1  11
ATOM     11  C   UNL     1       2.459   5.880  20.026  0.00  0.00    +0.000 C 
BRANCH  11  12
ATOM     12  C   UNL     1       2.324   4.632  20.900  0.00  0.00    +0.000 C 
BRANCH  12  14
ATOM     13  C   UNL     1       1.603   2.619  19.901  0.00  0.00    +0.000 C 
ATOM     14  O   UNL     1       1.198   3.860  20.468  0.00  0.00    +0.000 OA
ENDBRANCH  12  14
ENDBRANCH  11  12
ENDBRANCH   1  11
BRANCH   9  15
ATOM     15  C   UNL     1       6.980   7.197  17.456  0.00  0.00    +0.000 C 
BRANCH  15  16
ATOM     16  N   UNL     1       8.057   7.678  18.307  0.00  0.00    +0.000 N 
ATOM     17  C   UNL     1       8.311   9.026  18.350  0.00  0.00    +0.000 C 
ATOM     18  O   UNL     1       7.623   9.816  17.713  0.00  0.00    +0.000 OA
ATOM     19  N   UNL     1       9.358   9.354  19.177  0.00  0.00    +0.000 N 
ATOM     20  H   UNL     1       8.799   7.040  18.550  0.00  0.00    +0.000 HD
ATOM     21  H   UNL     1      10.021   8.626  19.394  0.00  0.00    +0.000 HD
BRANCH  19  22
ATOM     22  C   UNL     1       9.749  10.685  19.448  0.00  0.00    +0.000 A 
ATOM     23  C   UNL     1      10.431  11.467  18.510  0.00  0.00    +0.000 A 
ATOM     24  C   UNL     1      10.897  12.737  18.840  0.00  0.00    +0.000 A 
ATOM     25  C   UNL     1      10.664  13.250  20.111  0.00  0.00    +0.000 A 
ATOM     26  C   UNL     1       9.934  12.503  21.036  0.00  0.00    +0.000 A 
ATOM     27  C   UNL     1       9.462  11.229  20.702  0.00  0.00    +0.000 A 
ENDBRANCH  19  22
ENDBRANCH  15  16
ENDBRANCH   9  15
TORSDOF 6
ENDMDL
MODEL 2
REMARK VINA RESULT:      -7.1      0.619      1.167
REMARK  Name = 
REMARK  7 active torsions:
REMARK  status: ('A' for Active; 'I' for Inactive)
REMARK    1  A    between atoms: C_1  and  O_2
REMARK    2  A    between atoms: O_2  and  C_3
REMARK    3  A    between atoms: C_3  and  C_4
REMARK    4  A    between atoms: C_4  and  N_5
REMARK    5  A    between atoms: C_13  and  C_14
REMARK    6  A    between atoms: C_14  and  N_15
REMARK    7  A    between atoms: N_18  and  C_19
REMARK                            x       y       z     vdW  Elec       q    Type
REMARK                         _______ _______ _______ _____ _____    ______ ____
ROOT
ATOM      1  N   UNL     1       4.147   5.167  19.253  0.00  0.00    +0.000 N 
ATOM      2  C   UNL     1       4.014   5.044  17.890  0.00  0.00    +0.000 C 
ATOM      3  O   UNL     1       2.997   4.583  17.382  0.00  0.00    +0.000 OA
ATOM      4  N   UNL     1       5.098   5.476  17.133  0.00  0.00    +0.000 N 
ATOM      5  C   UNL     1       4.974   5.456  15.675  0.00  0.00    +0.000 C 
ATOM      6  C   UNL     1       5.918   4.438  15.037  0.00  0.00    +0.000 C 
ATOM      7  C   UNL     1       7.355   4.572  15.543  0.00  0.00    +0.000 C 
ATOM      8  C   UNL     1       7.389   4.592  17.071  0.00  0.00    +0.000 C 
ATOM      9  C   UNL     1       6.469   5.683  17.650  0.00  0.00    +0.000 C 
ATOM     10  H   UNL     1       4.663   5.981  19.559  0.00  0.00    +0.000 HD
ENDROOT
BRANCH   1  11
ATOM     11  C   UNL     1       3.011   4.827  20.104  0.00  0.00    +0.000 C 
BRANCH  11  12
ATOM     12  C   UNL     1       3.033   3.374  20.584  0.00  0.00    +0.000 C 
BRANCH  12  14
ATOM     13  C   UNL     1       0.939   2.927  19.591  0.00  0.00    +0.000 C 
ATOM     14  O   UNL     1       1.693   2.917  20.798  0.00  0.00    +0.000 OA
ENDBRANCH  12  14
ENDBRANCH  11  12
ENDBRANCH   1  11
BRANCH   9  15
ATOM     15  C   UNL     1       6.996   7.114  17.335  0.00  0.00    +0.000 C 
BRANCH  15  16
ATOM     16  N   UNL     1       8.019   7.582  18.258  0.00  0.00    +0.000 N 
ATOM     17  C   UNL     1       8.276   8.928  18.327  0.00  0.00    +0.000 C 
ATOM     18  O   UNL     1       7.635   9.727  17.654  0.00  0.00    +0.000 OA
ATOM     19  N   UNL     1       9.270   9.243  19.223  0.00  0.00    +0.000 N 
ATOM     20  H   UNL     1       8.740   6.938  18.543  0.00  0.00    +0.000 HD
ATOM     21  H   UNL     1       9.913   8.510  19.476  0.00  0.00    +0.000 HD
BRANCH  19  22
ATOM     22  C   UNL     1       9.650  10.570  19.529  0.00  0.00    +0.000 A 
ATOM     23  C   UNL     1       9.365  11.159  20.766  0.00  0.00    +0.000 A 
ATOM     24  C   UNL     1       9.657  12.500  21.003  0.00  0.00    +0.000 A 
ATOM     25  C   UNL     1      10.260  13.262  20.010  0.00  0.00    +0.000 A 
ATOM     26  C   UNL     1      10.602  12.670  18.794  0.00  0.00    +0.000 A 
ATOM     27  C   UNL     1      10.313  11.322  18.558  0.00  0.00    +0.000 A 
ENDBRANCH  19  22
ENDBRANCH  15  16
ENDBRANCH   9  15
TORSDOF 6
ENDMDL
MODEL 3
REMARK VINA RESULT:      -6.9      4.290      7.705
REMARK  Name = 
REMARK  7 active torsions:
REMARK  status: ('A' for Active; 'I' for Inactive)
REMARK    1  A    between atoms: C_1  and  O_2
REMARK    2  A    between atoms: O_2  and  C_3
REMARK    3  A    between atoms: C_3  and  C_4
REMARK    4  A    between atoms: C_4  and  N_5
REMARK    5  A    between atoms: C_13  and  C_14
REMARK    6  A    between atoms: C_14  and  N_15
REMARK    7  A    between atoms: N_18  and  C_19
REMARK                            x       y       z     vdW  Elec       q    Type
REMARK                         _______ _______ _______ _____ _____    ______ ____
ROOT
ATOM      1  N   UNL     1       5.225   5.844  18.592  0.00  0.00    +0.000 N 
ATOM      2  C   UNL     1       4.952   4.597  19.102  0.00  0.00    +0.000 C 
ATOM      3  O   UNL     1       5.793   3.703  19.099  0.00  0.00    +0.000 OA
ATOM      4  N   UNL     1       3.674   4.419  19.619  0.00  0.00    +0.000 N 
ATOM      5  C   UNL     1       3.359   3.141  20.260  0.00  0.00    +0.000 C 
ATOM      6  C   UNL     1       2.317   2.350  19.471  0.00  0.00    +0.000 C 
ATOM      7  C   UNL     1       1.091   3.189  19.111  0.00  0.00    +0.000 C 
ATOM      8  C   UNL     1       1.512   4.505  18.456  0.00  0.00    +0.000 C 
ATOM      9  C   UNL     1       2.510   5.287  19.331  0.00  0.00    +0.000 C 
ATOM     10  H   UNL     1       4.786   6.611  19.085  0.00  0.00    +0.000 HD
ENDROOT
BRANCH   1  11
ATOM     11  C   UNL     1       6.577   6.133  18.125  0.00  0.00    +0.000 C 
BRANCH  11  12
ATOM     12  C   UNL     1       6.731   5.997  16.609  0.00  0.00    +0.000 C 
BRANCH  12  14
ATOM     13  C   UNL     1       6.553   4.008  15.351  0.00  0.00    +0.000 C 
ATOM     14  O   UNL     1       7.330   4.735  16.296  0.00  0.00    +0.000 OA
ENDBRANCH  12  14
ENDBRANCH  11  12
ENDBRANCH   1  11
BRANCH   9  15
ATOM     15  C   UNL     1       1.847   5.818  20.635  0.00  0.00    +0.000 C 
BRANCH  15  16
ATOM     16  N   UNL     1       1.951   7.259  20.805  0.00  0.00    +0.000 N 
ATOM     17  C   UNL     1       0.805   7.979  21.032  0.00  0.00    +0.000 C 
ATOM     18  O   UNL     1      -0.282   7.419  21.126  0.00  0.00    +0.000 OA
ATOM     19  N   UNL     1       1.030   9.329  21.160  0.00  0.00    +0.000 N 
ATOM     20  H   UNL     1       2.748   7.733  20.409  0.00  0.00    +0.000 HD
ATOM     21  H   UNL     1       1.884   9.694  20.768  0.00  0.00    +0.000 HD
BRANCH  19  22
ATOM     22  C   UNL     1       0.017  10.260  21.483  0.00  0.00    +0.000 A 
ATOM     23  C   UNL     1      -0.494  11.161  20.542  0.00  0.00    +0.000 A 
ATOM     24  C   UNL     1      -1.415  12.137  20.913  0.00  0.00    +0.000 A 
ATOM     25  C   UNL     1      -1.854  12.208  22.230  0.00  0.00    +0.000 A 
ATOM     26  C   UNL     1      -1.396  11.278  23.164  0.00  0.00    +0.000 A 
ATOM     27  C   UNL     1      -0.475  10.295  22.789  0.00  0.00    +0.000 A 
ENDBRANCH  19  22
ENDBRANCH  15  16
ENDBRANCH   9  15
TORSDOF 6
ENDMDL
MODEL 4
REMARK VINA RESULT:      -6.9      4.075      7.757
REMARK  Name = 
REMARK  7 active torsions:
REMARK  status: ('A' for Active; 'I' for Inactive)
REMARK    1  A    between atoms: C_1  and  O_2
REMARK    2  A    between atoms: O_2  and  C_3
REMARK    3  A    between atoms: C_3  and  C_4
REMARK    4  A    between atoms: C_4  and  N_5
REMARK    5  A    between atoms: C_13  and  C_14
REMARK    6  A    between atoms: C_14  and  N_15
REMARK    7  A    between atoms: N_18  and  C_19
REMARK                            x       y       z     vdW  Elec       q    Type
REMARK                         _______ _______ _______ _____ _____    ______ ____
ROOT
ATOM      1  N   UNL     1       5.381   5.730  18.838  0.00  0.00    +0.000 N 
ATOM      2  C   UNL     1       4.949   4.484  19.226  0.00  0.00    +0.000 C 
ATOM      3  O   UNL     1       5.702   3.516  19.236  0.00  0.00    +0.000 OA
ATOM      4  N   UNL     1       3.614   4.397  19.608  0.00  0.00    +0.000 N 
ATOM      5  C   UNL     1       3.124   3.117  20.120  0.00  0.00    +0.000 C 
ATOM      6  C   UNL     1       2.099   2.482  19.182  0.00  0.00    +0.000 C 
ATOM      7  C   UNL     1       0.995   3.458  18.773  0.00  0.00    +0.000 C 
ATOM      8  C   UNL     1       1.595   4.766  18.259  0.00  0.00    +0.000 C 
ATOM      9  C   UNL     1       2.568   5.390  19.278  0.00  0.00    +0.000 C 
ATOM     10  H   UNL     1       4.966   6.502  19.342  0.00  0.00    +0.000 HD
ENDROOT
BRANCH   1  11
ATOM     11  C   UNL     1       6.794   5.916  18.521  0.00  0.00    +0.000 C 
BRANCH  11  12
ATOM     12  C   UNL     1       7.021   6.667  17.207  0.00  0.00    +0.000 C 
BRANCH  12  14
ATOM     13  C   UNL     1       6.908   4.726  15.869  0.00  0.00    +0.000 C 
ATOM     14  O   UNL     1       6.332   5.998  16.145  0.00  0.00    +0.000 OA
ENDBRANCH  12  14
ENDBRANCH  11  12
ENDBRANCH   1  11
BRANCH   9  15
ATOM     15  C   UNL     1       1.828   5.897  20.551  0.00  0.00    +0.000 C 
BRANCH  15  16
ATOM     16  N   UNL     1       1.954   7.329  20.774  0.00  0.00    +0.000 N 
ATOM     17  C   UNL     1       0.818   8.058  21.027  0.00  0.00    +0.000 C 
ATOM     18  O   UNL     1      -0.277   7.511  21.099  0.00  0.00    +0.000 OA
ATOM     19  N   UNL     1       1.064   9.398  21.206  0.00  0.00    +0.000 N 
ATOM     20  H   UNL     1       2.758   7.806  20.397  0.00  0.00    +0.000 HD
ATOM     21  H   UNL     1       1.923   9.764  20.829  0.00  0.00    +0.000 HD
BRANCH  19  22
ATOM     22  C   UNL     1       0.065  10.331  21.563  0.00  0.00    +0.000 A 
ATOM     23  C   UNL     1      -0.439  10.423  22.865  0.00  0.00    +0.000 A 
ATOM     24  C   UNL     1      -1.496  11.278  23.165  0.00  0.00    +0.000 A 
ATOM     25  C   UNL     1      -2.048  12.072  22.165  0.00  0.00    +0.000 A 
ATOM     26  C   UNL     1      -1.516  12.032  20.876  0.00  0.00    +0.000 A 
ATOM     27  C   UNL     1      -0.451  11.176  20.577  0.00  0.00    +0.000 A 
ENDBRANCH  19  22
ENDBRANCH  15  16
ENDBRANCH   9  15
TORSDOF 6
ENDMDL
MODEL 5
REMARK VINA RESULT:      -6.8      4.515      6.139
REMARK  Name = 
REMARK  7 active torsions:
REMARK  status: ('A' for Active; 'I' for Inactive)
REMARK    1  A    between atoms: C_1  and  O_2
REMARK    2  A    between atoms: O_2  and  C_3
REMARK    3  A    between atoms: C_3  and  C_4
REMARK    4  A    between atoms: C_4  and  N_5
REMARK    5  A    between atoms: C_13  and  C_14
REMARK    6  A    between atoms: C_14  and  N_15
REMARK    7  A    between atoms: N_18  and  C_19
REMARK                            x       y       z     vdW  Elec       q    Type
REMARK                         _______ _______ _______ _____ _____    ______ ____
ROOT
ATOM      1  N   UNL     1       3.586   3.708  19.817  0.00  0.00    +0.000 N 
ATOM      2  C   UNL     1       3.947   3.411  18.525  0.00  0.00    +0.000 C 
ATOM      3  O   UNL     1       3.949   2.257  18.107  0.00  0.00    +0.000 OA
ATOM      4  N   UNL     1       4.303   4.495  17.729  0.00  0.00    +0.000 N 
ATOM      5  C   UNL     1       4.605   4.247  16.319  0.00  0.00    +0.000 C 
ATOM      6  C   UNL     1       6.075   4.511  15.996  0.00  0.00    +0.000 C 
ATOM      7  C   UNL     1       6.554   5.869  16.511  0.00  0.00    +0.000 C 
ATOM      8  C   UNL     1       6.191   6.046  17.985  0.00  0.00    +0.000 C 
ATOM      9  C   UNL     1       4.685   5.832  18.234  0.00  0.00    +0.000 C 
ATOM     10  H   UNL     1       3.088   4.582  19.931  0.00  0.00    +0.000 HD
ENDROOT
BRANCH   1  11
ATOM     11  C   UNL     1       3.105   2.633  20.678  0.00  0.00    +0.000 C 
BRANCH  11  12
ATOM     12  C   UNL     1       1.639   2.797  21.083  0.00  0.00    +0.000 C 
BRANCH  12  14
ATOM     13  C   UNL     1       0.552   2.346  19.037  0.00  0.00    +0.000 C 
ATOM     14  O   UNL     1       0.896   3.346  19.989  0.00  0.00    +0.000 OA
ENDBRANCH  12  14
ENDBRANCH  11  12
ENDBRANCH   1  11
BRANCH   9  15
ATOM     15  C   UNL     1       3.825   6.961  17.592  0.00  0.00    +0.000 C 
BRANCH  15  16
ATOM     16  N   UNL     1       2.795   7.490  18.472  0.00  0.00    +0.000 N 
ATOM     17  C   UNL     1       2.196   8.680  18.143  0.00  0.00    +0.000 C 
ATOM     18  O   UNL     1       2.495   9.271  17.111  0.00  0.00    +0.000 OA
ATOM     19  N   UNL     1       1.252   9.081  19.058  0.00  0.00    +0.000 N 
ATOM     20  H   UNL     1       2.791   7.199  19.437  0.00  0.00    +0.000 HD
ATOM     21  H   UNL     1       1.313   8.692  19.985  0.00  0.00    +0.000 HD
BRANCH  19  22
ATOM     22  C   UNL     1       0.444  10.229  18.890  0.00  0.00    +0.000 A 
ATOM     23  C   UNL     1      -0.833  10.164  18.321  0.00  0.00    +0.000 A 
ATOM     24  C   UNL     1      -1.564  11.323  18.071  0.00  0.00    +0.000 A 
ATOM     25  C   UNL     1      -1.033  12.562  18.410  0.00  0.00    +0.000 A 
ATOM     26  C   UNL     1       0.214  12.635  19.031  0.00  0.00    +0.000 A 
ATOM     27  C   UNL     1       0.946  11.470  19.287  0.00  0.00    +0.000 A 
ENDBRANCH  19  22
ENDBRANCH  15  16
ENDBRANCH   9  15
TORSDOF 6
ENDMDL
MODEL 6
REMARK VINA RESULT:      -6.8      3.193      8.761
REMARK  Name = 
REMARK  7 active torsions:
REMARK  status: ('A' for Active; 'I' for Inactive)
REMARK    1  A    between atoms: C_1  and  O_2
REMARK    2  A    between atoms: O_2  and  C_3
REMARK    3  A    between atoms: C_3  and  C_4
REMARK    4  A    between atoms: C_4  and  N_5
REMARK    5  A    between atoms: C_13  and  C_14
REMARK    6  A    between atoms: C_14  and  N_15
REMARK    7  A    between atoms: N_18  and  C_19
REMARK                            x       y       z     vdW  Elec       q    Type
REMARK                         _______ _______ _______ _____ _____    ______ ____
ROOT
ATOM      1  N   UNL     1       7.862  13.881  18.065  0.00  0.00    +0.000 N 
ATOM      2  C   UNL     1       8.680  13.782  19.165  0.00  0.00    +0.000 C 
ATOM      3  O   UNL     1       8.780  14.698  19.976  0.00  0.00    +0.000 OA
ATOM      4  N   UNL     1       9.376  12.586  19.299  0.00  0.00    +0.000 N 
ATOM      5  C   UNL     1      10.188  12.390  20.500  0.00  0.00    +0.000 C 
ATOM      6  C   UNL     1      11.680  12.332  20.176  0.00  0.00    +0.000 C 
ATOM      7  C   UNL     1      11.997  11.359  19.040  0.00  0.00    +0.000 C 
ATOM      8  C   UNL     1      11.100  11.630  17.832  0.00  0.00    +0.000 C 
ATOM      9  C   UNL     1       9.607  11.609  18.212  0.00  0.00    +0.000 C 
ATOM     10  H   UNL     1       7.408  13.018  17.792  0.00  0.00    +0.000 HD
ENDROOT
BRANCH   1  11
ATOM     11  C   UNL     1       7.025  15.067  17.914  0.00  0.00    +0.000 C 
BRANCH  11  12
ATOM     12  C   UNL     1       5.661  14.930  18.593  0.00  0.00    +0.000 C 
BRANCH  12  14
ATOM     13  C   UNL     1       3.507  15.375  17.738  0.00  0.00    +0.000 C 
ATOM     14  O   UNL     1       4.674  14.569  17.621  0.00  0.00    +0.000 OA
ENDBRANCH  12  14
ENDBRANCH  11  12
ENDBRANCH   1  11
BRANCH   9  15
ATOM     15  C   UNL     1       9.128  10.181  18.606  0.00  0.00    +0.000 C 
BRANCH  15  16
ATOM     16  N   UNL     1       8.061   9.663  17.764  0.00  0.00    +0.000 N 
ATOM     17  C   UNL     1       7.770   8.323  17.819  0.00  0.00    +0.000 C 
ATOM     18  O   UNL     1       8.371   7.580  18.587  0.00  0.00    +0.000 OA
ATOM     19  N   UNL     1       6.755   7.954  16.970  0.00  0.00    +0.000 N 
ATOM     20  H   UNL     1       7.813  10.176  16.933  0.00  0.00    +0.000 HD
ATOM     21  H   UNL     1       6.558   8.565  16.193  0.00  0.00    +0.000 HD
BRANCH  19  22
ATOM     22  C   UNL     1       6.223   6.646  16.914  0.00  0.00    +0.000 A 
ATOM     23  C   UNL     1       5.009   6.308  17.522  0.00  0.00    +0.000 A 
ATOM     24  C   UNL     1       4.561   4.990  17.542  0.00  0.00    +0.000 A 
ATOM     25  C   UNL     1       5.314   3.995  16.930  0.00  0.00    +0.000 A 
ATOM     26  C   UNL     1       6.497   4.328  16.270  0.00  0.00    +0.000 A 
ATOM     27  C   UNL     1       6.944   5.653  16.246  0.00  0.00    +0.000 A 
ENDBRANCH  19  22
ENDBRANCH  15  16
ENDBRANCH   9  15
TORSDOF 6
ENDMDL
MODEL 7
REMARK VINA RESULT:      -6.8      4.466      6.949
REMARK  Name = 
REMARK  7 active torsions:
REMARK  status: ('A' for Active; 'I' for Inactive)
REMARK    1  A    between atoms: C_1  and  O_2
REMARK    2  A    between atoms: O_2  and  C_3
REMARK    3  A    between atoms: C_3  and  C_4
REMARK    4  A    between atoms: C_4  and  N_5
REMARK    5  A    between atoms: C_13  and  C_14
REMARK    6  A    between atoms: C_14  and  N_15
REMARK    7  A    between atoms: N_18  and  C_19
REMARK                            x       y       z     vdW  Elec       q    Type
REMARK                         _______ _______ _______ _____ _____    ______ ____
ROOT
ATOM      1  N   UNL     1       5.694   5.772  17.889  0.00  0.00    +0.000 N 
ATOM      2  C   UNL     1       5.210   4.978  18.900  0.00  0.00    +0.000 C 
ATOM      3  O   UNL     1       5.929   4.179  19.491  0.00  0.00    +0.000 OA
ATOM      4  N   UNL     1       3.863   5.141  19.209  0.00  0.00    +0.000 N 
ATOM      5  C   UNL     1       3.317   4.390  20.339  0.00  0.00    +0.000 C 
ATOM      6  C   UNL     1       2.296   3.346  19.889  0.00  0.00    +0.000 C 
ATOM      7  C   UNL     1       1.236   3.928  18.952  0.00  0.00    +0.000 C 
ATOM      8  C   UNL     1       1.894   4.700  17.809  0.00  0.00    +0.000 C 
ATOM      9  C   UNL     1       2.860   5.781  18.329  0.00  0.00    +0.000 C 
ATOM     10  H   UNL     1       5.293   6.700  17.845  0.00  0.00    +0.000 HD
ENDROOT
BRANCH   1  11
ATOM     11  C   UNL     1       7.120   5.726  17.580  0.00  0.00    +0.000 C 
BRANCH  11  12
ATOM     12  C   UNL     1       7.469   4.696  16.503  0.00  0.00    +0.000 C 
BRANCH  12  14
ATOM     13  C   UNL     1       6.696   4.738  14.273  0.00  0.00    +0.000 C 
ATOM     14  O   UNL     1       7.559   5.343  15.229  0.00  0.00    +0.000 OA
ENDBRANCH  12  14
ENDBRANCH  11  12
ENDBRANCH   1  11
BRANCH   9  15
ATOM     15  C   UNL     1       2.106   6.934  19.054  0.00  0.00    +0.000 C 
BRANCH  15  16
ATOM     16  N   UNL     1       2.049   8.172  18.292  0.00  0.00    +0.000 N 
ATOM     17  C   UNL     1       1.531   9.292  18.894  0.00  0.00    +0.000 C 
ATOM     18  O   UNL     1       1.156   9.263  20.061  0.00  0.00    +0.000 OA
ATOM     19  N   UNL     1       1.518  10.392  18.070  0.00  0.00    +0.000 N 
ATOM     20  H   UNL     1       2.039   8.117  17.286  0.00  0.00    +0.000 HD
ATOM     21  H   UNL     1       1.558  10.225  17.077  0.00  0.00    +0.000 HD
BRANCH  19  22
ATOM     22  C   UNL     1       1.112  11.677  18.494  0.00  0.00    +0.000 A 
ATOM     23  C   UNL     1      -0.237  12.027  18.622  0.00  0.00    +0.000 A 
ATOM     24  C   UNL     1      -0.610  13.331  18.940  0.00  0.00    +0.000 A 
ATOM     25  C   UNL     1       0.366  14.296  19.156  0.00  0.00    +0.000 A 
ATOM     26  C   UNL     1       1.715  13.945  19.088  0.00  0.00    +0.000 A 
ATOM     27  C   UNL     1       2.089  12.635  18.774  0.00  0.00    +0.000 A 
ENDBRANCH  19  22
ENDBRANCH  15  16
ENDBRANCH   9  15
TORSDOF 6
ENDMDL
MODEL 8
REMARK VINA RESULT:      -6.7      4.331      6.873
REMARK  Name = 
REMARK  7 active torsions:
REMARK  status: ('A' for Active; 'I' for Inactive)
REMARK    1  A    between atoms: C_1  and  O_2
REMARK    2  A    between atoms: O_2  and  C_3
REMARK    3  A    between atoms: C_3  and  C_4
REMARK    4  A    between atoms: C_4  and  N_5
REMARK    5  A    between atoms: C_13  and  C_14
REMARK    6  A    between atoms: C_14  and  N_15
REMARK    7  A    between atoms: N_18  and  C_19
REMARK                            x       y       z     vdW  Elec       q    Type
REMARK                         _______ _______ _______ _____ _____    ______ ____
ROOT
ATOM      1  N   UNL     1       5.684   5.858  17.675  0.00  0.00    +0.000 N 
ATOM      2  C   UNL     1       5.235   5.121  18.744  0.00  0.00    +0.000 C 
ATOM      3  O   UNL     1       5.990   4.400  19.390  0.00  0.00    +0.000 OA
ATOM      4  N   UNL     1       3.884   5.248  19.046  0.00  0.00    +0.000 N 
ATOM      5  C   UNL     1       3.372   4.560  20.232  0.00  0.00    +0.000 C 
ATOM      6  C   UNL     1       2.396   3.443  19.865  0.00  0.00    +0.000 C 
ATOM      7  C   UNL     1       1.312   3.907  18.892  0.00  0.00    +0.000 C 
ATOM      8  C   UNL     1       1.933   4.620  17.692  0.00  0.00    +0.000 C 
ATOM      9  C   UNL     1       2.852   5.778  18.126  0.00  0.00    +0.000 C 
ATOM     10  H   UNL     1       5.242   6.762  17.564  0.00  0.00    +0.000 HD
ENDROOT
BRANCH   1  11
ATOM     11  C   UNL     1       7.110   5.851  17.363  0.00  0.00    +0.000 C 
BRANCH  11  12
ATOM     12  C   UNL     1       7.879   6.986  18.042  0.00  0.00    +0.000 C 
BRANCH  12  14
ATOM     13  C   UNL     1       8.260   9.315  17.993  0.00  0.00    +0.000 C 
ATOM     14  O   UNL     1       7.672   8.206  17.321  0.00  0.00    +0.000 OA
ENDBRANCH  12  14
ENDBRANCH  11  12
ENDBRANCH   1  11
BRANCH   9  15
ATOM     15  C   UNL     1       2.050   6.947  18.767  0.00  0.00    +0.000 C 
BRANCH  15  16
ATOM     16  N   UNL     1       2.167   8.207  18.048  0.00  0.00    +0.000 N 
ATOM     17  C   UNL     1       1.682   9.348  18.636  0.00  0.00    +0.000 C 
ATOM     18  O   UNL     1       1.191   9.317  19.760  0.00  0.00    +0.000 OA
ATOM     19  N   UNL     1       1.838  10.467  17.855  0.00  0.00    +0.000 N 
ATOM     20  H   UNL     1       2.253   8.181  17.044  0.00  0.00    +0.000 HD
ATOM     21  H   UNL     1       1.964  10.326  16.865  0.00  0.00    +0.000 HD
BRANCH  19  22
ATOM     22  C   UNL     1       1.495  11.770  18.283  0.00  0.00    +0.000 A 
ATOM     23  C   UNL     1       0.195  12.105  18.679  0.00  0.00    +0.000 A 
ATOM     24  C   UNL     1      -0.140  13.419  18.995  0.00  0.00    +0.000 A 
ATOM     25  C   UNL     1       0.832  14.412  18.941  0.00  0.00    +0.000 A 
ATOM     26  C   UNL     1       2.144  14.080  18.604  0.00  0.00    +0.000 A 
ATOM     27  C   UNL     1       2.481  12.759  18.292  0.00  0.00    +0.000 A 
ENDBRANCH  19  22
ENDBRANCH  15  16
ENDBRANCH   9  15
TORSDOF 6
ENDMDL
MODEL 9
REMARK VINA RESULT:      -6.6      4.574      7.102
REMARK  Name = 
REMARK  7 active torsions:
REMARK  status: ('A' for Active; 'I' for Inactive)
REMARK    1  A    between atoms: C_1  and  O_2
REMARK    2  A    between atoms: O_2  and  C_3
REMARK    3  A    between atoms: C_3  and  C_4
REMARK    4  A    between atoms: C_4  and  N_5
REMARK    5  A    between atoms: C_13  and  C_14
REMARK    6  A    between atoms: C_14  and  N_15
REMARK    7  A    between atoms: N_18  and  C_19
REMARK                            x       y       z     vdW  Elec       q    Type
REMARK                         _______ _______ _______ _____ _____    ______ ____
ROOT
ATOM      1  N   UNL     1       5.678   5.740  17.474  0.00  0.00    +0.000 N 
ATOM      2  C   UNL     1       5.297   4.935  18.521  0.00  0.00    +0.000 C 
ATOM      3  O   UNL     1       6.064   4.111  19.011  0.00  0.00    +0.000 OA
ATOM      4  N   UNL     1       3.999   5.116  18.986  0.00  0.00    +0.000 N 
ATOM      5  C   UNL     1       3.572   4.353  20.159  0.00  0.00    +0.000 C 
ATOM      6  C   UNL     1       2.485   3.337  19.812  0.00  0.00    +0.000 C 
ATOM      7  C   UNL     1       1.336   3.955  19.014  0.00  0.00    +0.000 C 
ATOM      8  C   UNL     1       1.873   4.738  17.816  0.00  0.00    +0.000 C 
ATOM      9  C   UNL     1       2.914   5.792  18.239  0.00  0.00    +0.000 C 
ATOM     10  H   UNL     1       5.293   6.676  17.494  0.00  0.00    +0.000 HD
ENDROOT
BRANCH   1  11
ATOM     11  C   UNL     1       7.057   5.674  17.002  0.00  0.00    +0.000 C 
BRANCH  11  12
ATOM     12  C   UNL     1       7.270   4.620  15.913  0.00  0.00    +0.000 C 
BRANCH  12  14
ATOM     13  C   UNL     1       6.369   4.174  13.778  0.00  0.00    +0.000 C 
ATOM     14  O   UNL     1       6.917   5.167  14.638  0.00  0.00    +0.000 OA
ENDBRANCH  12  14
ENDBRANCH  11  12
ENDBRANCH   1  11
BRANCH   9  15
ATOM     15  C   UNL     1       2.272   6.943  19.067  0.00  0.00    +0.000 C 
BRANCH  15  16
ATOM     16  N   UNL     1       2.048   8.162  18.306  0.00  0.00    +0.000 N 
ATOM     17  C   UNL     1       1.448   9.227  18.930  0.00  0.00    +0.000 C 
ATOM     18  O   UNL     1       1.139   9.169  20.115  0.00  0.00    +0.000 OA
ATOM     19  N   UNL     1       1.279  10.313  18.105  0.00  0.00    +0.000 N 
ATOM     20  H   UNL     1       1.991   8.098  17.301  0.00  0.00    +0.000 HD
ATOM     21  H   UNL     1       1.285  10.143  17.112  0.00  0.00    +0.000 HD
BRANCH  19  22
ATOM     22  C   UNL     1       0.764  11.553  18.546  0.00  0.00    +0.000 A 
ATOM     23  C   UNL     1       1.595  12.618  18.912  0.00  0.00    +0.000 A 
ATOM     24  C   UNL     1       1.065  13.790  19.442  0.00  0.00    +0.000 A 
ATOM     25  C   UNL     1      -0.312  13.921  19.591  0.00  0.00    +0.000 A 
ATOM     26  C   UNL     1      -1.154  12.889  19.175  0.00  0.00    +0.000 A 
ATOM     27  C   UNL     1      -0.620  11.714  18.637  0.00  0.00    +0.000 A 
ENDBRANCH  19  22
ENDBRANCH  15  16
ENDBRANCH   9  15
TORSDOF 6
ENDMDL
