MODEL 1
REMARK VINA RESULT:      -6.3      0.000      0.000
REMARK  Name = 
REMARK  2 active torsions:
REMARK  status: ('A' for Active; 'I' for Inactive)
REMARK    1  A    between atoms: C_1  and  C_2
REMARK    2  A    between atoms: C_5  and  C_6
REMARK                            x       y       z     vdW  Elec       q    Type
REMARK                         _______ _______ _______ _____ _____    ______ ____
ROOT
ATOM      1  C   UNL     1       5.365   4.221  18.410  0.00  0.00    +0.000 C 
ATOM      2  O   UNL     1       5.765   3.180  18.934  0.00  0.00    +0.000 OA
ATOM      3  N   UNL     1       4.330   4.957  19.027  0.00  0.00    +0.000 N 
ATOM      4  C   UNL     1       3.877   4.529  20.357  0.00  0.00    +0.000 C 
ATOM      5  C   UNL     1       2.349   4.490  20.625  0.00  0.00    +0.000 C 
ATOM      6  C   UNL     1       2.045   3.568  21.823  0.00  0.00    +0.000 C 
ATOM      7  C   UNL     1       1.176   2.449  21.257  0.00  0.00    +0.000 C 
ATOM      8  C   UNL     1       1.415   2.520  19.762  0.00  0.00    +0.000 C 
ATOM      9  N   UNL     1       1.456   3.967  19.579  0.00  0.00    +0.000 NA
ATOM     10  C   UNL     1       1.707   4.370  18.204  0.00  0.00    +0.000 C 
ATOM     11  C   UNL     1       2.264   5.768  18.071  0.00  0.00    +0.000 A 
ATOM     12  C   UNL     1       1.491   6.814  17.551  0.00  0.00    +0.000 A 
ATOM     13  C   UNL     1       2.054   8.076  17.362  0.00  0.00    +0.000 A 
ATOM     14  C   UNL     1       3.391   8.304  17.695  0.00  0.00    +0.000 A 
ATOM     15  C   UNL     1       4.164   7.281  18.251  0.00  0.00    +0.000 A 
ATOM     16  C   UNL     1       3.602   6.016  18.438  0.00  0.00    +0.000 A 
ENDROOT
BRANCH   1  21
ATOM     17  C   UNL     1       6.870   4.799  13.408  0.00  0.00    +0.000 C 
ATOM     18  C   UNL     1       6.666   4.965  14.870  0.00  0.00    +0.000 A 
ATOM     19  N   UNL     1       7.351   5.799  15.618  0.00  0.00    +0.000 NA
ATOM     20  C   UNL     1       6.938   5.683  16.933  0.00  0.00    +0.000 A 
ATOM     21  C   UNL     1       5.986   4.714  17.188  0.00  0.00    +0.000 A 
ATOM     22  S   UNL     1       5.489   4.030  15.689  0.00  0.00    +0.000 S 
ENDBRANCH   1  21
TORSDOF 1
ENDMDL
MODEL 2
REMARK VINA RESULT:      -6.1      8.155     11.062
REMARK  Name = 
REMARK  2 active torsions:
REMARK  status: ('A' for Active; 'I' for Inactive)
REMARK    1  A    between atoms: C_1  and  C_2
REMARK    2  A    between atoms: C_5  and  C_6
REMARK                            x       y       z     vdW  Elec       q    Type
REMARK                         _______ _______ _______ _____ _____    ______ ____
ROOT
ATOM      1  C   UNL     1      -1.662  13.891  21.165  0.00  0.00    +0.000 C 
ATOM      2  O   UNL     1      -1.560  15.043  20.742  0.00  0.00    +0.000 OA
ATOM      3  N   UNL     1      -0.495  13.135  21.415  0.00  0.00    +0.000 N 
ATOM      4  C   UNL     1       0.803  13.814  21.306  0.00  0.00    +0.000 C 
ATOM      5  C   UNL     1       1.951  13.070  20.573  0.00  0.00    +0.000 C 
ATOM      6  C   UNL     1       3.023  14.077  20.110  0.00  0.00    +0.000 C 
ATOM      7  C   UNL     1       3.044  13.969  18.588  0.00  0.00    +0.000 C 
ATOM      8  C   UNL     1       1.726  13.301  18.251  0.00  0.00    +0.000 C 
ATOM      9  N   UNL     1       1.645  12.331  19.337  0.00  0.00    +0.000 NA
ATOM     10  C   UNL     1       0.434  11.525  19.307  0.00  0.00    +0.000 C 
ATOM     11  C   UNL     1       0.073  10.918  20.642  0.00  0.00    +0.000 A 
ATOM     12  C   UNL     1       0.204   9.543  20.875  0.00  0.00    +0.000 A 
ATOM     13  C   UNL     1      -0.214   8.995  22.088  0.00  0.00    +0.000 A 
ATOM     14  C   UNL     1      -0.760   9.815  23.077  0.00  0.00    +0.000 A 
ATOM     15  C   UNL     1      -0.862  11.194  22.873  0.00  0.00    +0.000 A 
ATOM     16  C   UNL     1      -0.446  11.743  21.658  0.00  0.00    +0.000 A 
ENDROOT
BRANCH   1  21
ATOM     17  C   UNL     1      -6.499  11.896  20.668  0.00  0.00    +0.000 C 
ATOM     18  C   UNL     1      -5.206  12.403  21.196  0.00  0.00    +0.000 A 
ATOM     19  N   UNL     1      -4.976  12.644  22.467  0.00  0.00    +0.000 NA
ATOM     20  C   UNL     1      -3.691  13.135  22.615  0.00  0.00    +0.000 A 
ATOM     21  C   UNL     1      -2.974  13.327  21.450  0.00  0.00    +0.000 A 
ATOM     22  S   UNL     1      -3.904  12.723  20.133  0.00  0.00    +0.000 S 
ENDBRANCH   1  21
TORSDOF 1
ENDMDL
MODEL 3
REMARK VINA RESULT:      -6.1      9.418     12.145
REMARK  Name = 
REMARK  2 active torsions:
REMARK  status: ('A' for Active; 'I' for Inactive)
REMARK    1  A    between atoms: C_1  and  C_2
REMARK    2  A    between atoms: C_5  and  C_6
REMARK                            x       y       z     vdW  Elec       q    Type
REMARK                         _______ _______ _______ _____ _____    ______ ____
ROOT
ATOM      1  C   UNL     1       9.136  14.751  21.698  0.00  0.00    +0.000 C 
ATOM      2  O   UNL     1       9.371  15.912  22.034  0.00  0.00    +0.000 OA
ATOM      3  N   UNL     1       9.937  14.136  20.710  0.00  0.00    +0.000 N 
ATOM      4  C   UNL     1      11.121  14.863  20.232  0.00  0.00    +0.000 C 
ATOM      5  C   UNL     1      11.394  14.879  18.705  0.00  0.00    +0.000 C 
ATOM      6  C   UNL     1      12.322  16.057  18.345  0.00  0.00    +0.000 C 
ATOM      7  C   UNL     1      11.503  16.941  17.410  0.00  0.00    +0.000 C 
ATOM      8  C   UNL     1      10.072  16.504  17.653  0.00  0.00    +0.000 C 
ATOM      9  N   UNL     1      10.263  15.064  17.781  0.00  0.00    +0.000 NA
ATOM     10  C   UNL     1       9.033  14.338  18.057  0.00  0.00    +0.000 C 
ATOM     11  C   UNL     1       9.253  12.988  18.698  0.00  0.00    +0.000 A 
ATOM     12  C   UNL     1       9.028  11.800  17.990  0.00  0.00    +0.000 A 
ATOM     13  C   UNL     1       9.158  10.568  18.629  0.00  0.00    +0.000 A 
ATOM     14  C   UNL     1       9.518  10.511  19.977  0.00  0.00    +0.000 A 
ATOM     15  C   UNL     1       9.782  11.686  20.686  0.00  0.00    +0.000 A 
ATOM     16  C   UNL     1       9.649  12.921  20.048  0.00  0.00    +0.000 A 
ENDROOT
BRANCH   1  21
ATOM     17  C   UNL     1       6.478  11.460  24.818  0.00  0.00    +0.000 C 
ATOM     18  C   UNL     1       6.863  12.474  23.802  0.00  0.00    +0.000 A 
ATOM     19  N   UNL     1       6.043  12.952  22.894  0.00  0.00    +0.000 NA
ATOM     20  C   UNL     1       6.722  13.849  22.089  0.00  0.00    +0.000 A 
ATOM     21  C   UNL     1       8.071  13.999  22.348  0.00  0.00    +0.000 A 
ATOM     22  S   UNL     1       8.460  13.087  23.755  0.00  0.00    +0.000 S 
ENDBRANCH   1  21
TORSDOF 1
ENDMDL
MODEL 4
REMARK VINA RESULT:      -6.0      8.421     11.321
REMARK  Name = 
REMARK  2 active torsions:
REMARK  status: ('A' for Active; 'I' for Inactive)
REMARK    1  A    between atoms: C_1  and  C_2
REMARK    2  A    between atoms: C_5  and  C_6
REMARK                            x       y       z     vdW  Elec       q    Type
REMARK                         _______ _______ _______ _____ _____    ______ ____
ROOT
ATOM      1  C   UNL     1      -1.587  14.063  21.280  0.00  0.00    +0.000 C 
ATOM      2  O   UNL     1      -1.444  15.209  20.851  0.00  0.00    +0.000 OA
ATOM      3  N   UNL     1      -0.450  13.248  21.480  0.00  0.00    +0.000 N 
ATOM      4  C   UNL     1       0.875  13.859  21.314  0.00  0.00    +0.000 C 
ATOM      5  C   UNL     1       1.950  13.059  20.533  0.00  0.00    +0.000 C 
ATOM      6  C   UNL     1       3.052  14.009  20.023  0.00  0.00    +0.000 C 
ATOM      7  C   UNL     1       3.001  13.901  18.501  0.00  0.00    +0.000 C 
ATOM      8  C   UNL     1       1.637  13.302  18.222  0.00  0.00    +0.000 C 
ATOM      9  N   UNL     1       1.554  12.337  19.313  0.00  0.00    +0.000 NA
ATOM     10  C   UNL     1       0.304  11.594  19.336  0.00  0.00    +0.000 C 
ATOM     11  C   UNL     1      -0.030  11.005  20.687  0.00  0.00    +0.000 A 
ATOM     12  C   UNL     1       0.040   9.625  20.916  0.00  0.00    +0.000 A 
ATOM     13  C   UNL     1      -0.352   9.098  22.147  0.00  0.00    +0.000 A 
ATOM     14  C   UNL     1      -0.812   9.945  23.157  0.00  0.00    +0.000 A 
ATOM     15  C   UNL     1      -0.852  11.327  22.956  0.00  0.00    +0.000 A 
ATOM     16  C   UNL     1      -0.462  11.855  21.724  0.00  0.00    +0.000 A 
ENDROOT
BRANCH   1  21
ATOM     17  C   UNL     1      -5.988  12.846  23.881  0.00  0.00    +0.000 C 
ATOM     18  C   UNL     1      -4.939  13.017  22.843  0.00  0.00    +0.000 A 
ATOM     19  N   UNL     1      -4.966  12.433  21.667  0.00  0.00    +0.000 NA
ATOM     20  C   UNL     1      -3.830  12.775  20.957  0.00  0.00    +0.000 A 
ATOM     21  C   UNL     1      -2.912  13.566  21.622  0.00  0.00    +0.000 A 
ATOM     22  S   UNL     1      -3.582  14.014  23.143  0.00  0.00    +0.000 S 
ENDBRANCH   1  21
TORSDOF 1
ENDMDL
MODEL 5
REMARK VINA RESULT:      -5.8      8.962     11.691
REMARK  Name = 
REMARK  2 active torsions:
REMARK  status: ('A' for Active; 'I' for Inactive)
REMARK    1  A    between atoms: C_1  and  C_2
REMARK    2  A    between atoms: C_5  and  C_6
REMARK                            x       y       z     vdW  Elec       q    Type
REMARK                         _______ _______ _______ _____ _____    ______ ____
ROOT
ATOM      1  C   UNL     1       9.901  13.754  21.571  0.00  0.00    +0.000 C 
ATOM      2  O   UNL     1      10.367  14.801  22.023  0.00  0.00    +0.000 OA
ATOM      3  N   UNL     1      10.332  13.287  20.309  0.00  0.00    +0.000 N 
ATOM      4  C   UNL     1      11.440  13.995  19.654  0.00  0.00    +0.000 C 
ATOM      5  C   UNL     1      11.312  14.296  18.137  0.00  0.00    +0.000 C 
ATOM      6  C   UNL     1      12.266  15.441  17.742  0.00  0.00    +0.000 C 
ATOM      7  C   UNL     1      11.361  16.561  17.237  0.00  0.00    +0.000 C 
ATOM      8  C   UNL     1       9.995  16.204  17.788  0.00  0.00    +0.000 C 
ATOM      9  N   UNL     1      10.017  14.756  17.609  0.00  0.00    +0.000 NA
ATOM     10  C   UNL     1       8.813  14.094  18.086  0.00  0.00    +0.000 C 
ATOM     11  C   UNL     1       9.007  12.629  18.399  0.00  0.00    +0.000 A 
ATOM     12  C   UNL     1       8.452  11.631  17.588  0.00  0.00    +0.000 A 
ATOM     13  C   UNL     1       8.575  10.288  17.944  0.00  0.00    +0.000 A 
ATOM     14  C   UNL     1       9.257   9.932  19.109  0.00  0.00    +0.000 A 
ATOM     15  C   UNL     1       9.849  10.913  19.909  0.00  0.00    +0.000 A 
ATOM     16  C   UNL     1       9.723  12.258  19.554  0.00  0.00    +0.000 A 
ENDROOT
BRANCH   1  21
ATOM     17  C   UNL     1       5.593  12.187  24.141  0.00  0.00    +0.000 C 
ATOM     18  C   UNL     1       6.944  12.272  23.530  0.00  0.00    +0.000 A 
ATOM     19  N   UNL     1       7.916  11.424  23.776  0.00  0.00    +0.000 NA
ATOM     20  C   UNL     1       9.046  11.804  23.075  0.00  0.00    +0.000 A 
ATOM     21  C   UNL     1       8.947  12.977  22.351  0.00  0.00    +0.000 A 
ATOM     22  S   UNL     1       7.322  13.536  22.440  0.00  0.00    +0.000 S 
ENDBRANCH   1  21
TORSDOF 1
ENDMDL
MODEL 6
REMARK VINA RESULT:      -5.7      7.794      9.926
REMARK  Name = 
REMARK  2 active torsions:
REMARK  status: ('A' for Active; 'I' for Inactive)
REMARK    1  A    between atoms: C_1  and  C_2
REMARK    2  A    between atoms: C_5  and  C_6
REMARK                            x       y       z     vdW  Elec       q    Type
REMARK                         _______ _______ _______ _____ _____    ______ ____
ROOT
ATOM      1  C   UNL     1       0.115  13.422  21.040  0.00  0.00    +0.000 C 
ATOM      2  O   UNL     1       1.222  13.340  21.575  0.00  0.00    +0.000 OA
ATOM      3  N   UNL     1      -0.707  12.275  20.961  0.00  0.00    +0.000 N 
ATOM      4  C   UNL     1      -0.267  11.062  21.663  0.00  0.00    +0.000 C 
ATOM      5  C   UNL     1      -0.396   9.707  20.918  0.00  0.00    +0.000 C 
ATOM      6  C   UNL     1       0.544   8.662  21.553  0.00  0.00    +0.000 C 
ATOM      7  C   UNL     1       1.521   8.277  20.446  0.00  0.00    +0.000 C 
ATOM      8  C   UNL     1       1.401   9.407  19.443  0.00  0.00    +0.000 C 
ATOM      9  N   UNL     1      -0.037   9.641  19.492  0.00  0.00    +0.000 NA
ATOM     10  C   UNL     1      -0.479  10.725  18.628  0.00  0.00    +0.000 C 
ATOM     11  C   UNL     1      -1.806  11.324  19.031  0.00  0.00    +0.000 A 
ATOM     12  C   UNL     1      -2.961  11.115  18.268  0.00  0.00    +0.000 A 
ATOM     13  C   UNL     1      -4.155  11.746  18.615  0.00  0.00    +0.000 A 
ATOM     14  C   UNL     1      -4.205  12.586  19.729  0.00  0.00    +0.000 A 
ATOM     15  C   UNL     1      -3.071  12.775  20.523  0.00  0.00    +0.000 A 
ATOM     16  C   UNL     1      -1.874  12.145  20.174  0.00  0.00    +0.000 A 
ENDROOT
BRANCH   1  21
ATOM     17  C   UNL     1      -0.757  17.630  18.015  0.00  0.00    +0.000 C 
ATOM     18  C   UNL     1      -0.756  16.634  19.118  0.00  0.00    +0.000 A 
ATOM     19  N   UNL     1      -1.253  16.861  20.312  0.00  0.00    +0.000 NA
ATOM     20  C   UNL     1      -1.062  15.746  21.108  0.00  0.00    +0.000 A 
ATOM     21  C   UNL     1      -0.364  14.701  20.534  0.00  0.00    +0.000 A 
ATOM     22  S   UNL     1      -0.069  15.085  18.883  0.00  0.00    +0.000 S 
ENDBRANCH   1  21
TORSDOF 1
ENDMDL
MODEL 7
REMARK VINA RESULT:      -5.5      8.630     10.561
REMARK  Name = 
REMARK  2 active torsions:
REMARK  status: ('A' for Active; 'I' for Inactive)
REMARK    1  A    between atoms: C_1  and  C_2
REMARK    2  A    between atoms: C_5  and  C_6
REMARK                            x       y       z     vdW  Elec       q    Type
REMARK                         _______ _______ _______ _____ _____    ______ ____
ROOT
ATOM      1  C   UNL     1      -0.884  14.154  20.291  0.00  0.00    +0.000 C 
ATOM      2  O   UNL     1      -1.453  15.217  20.037  0.00  0.00    +0.000 OA
ATOM      3  N   UNL     1      -1.648  13.031  20.678  0.00  0.00    +0.000 N 
ATOM      4  C   UNL     1      -3.112  13.136  20.611  0.00  0.00    +0.000 C 
ATOM      5  C   UNL     1      -3.934  12.575  21.802  0.00  0.00    +0.000 C 
ATOM      6  C   UNL     1      -5.342  13.204  21.816  0.00  0.00    +0.000 C 
ATOM      7  C   UNL     1      -5.430  13.963  23.137  0.00  0.00    +0.000 C 
ATOM      8  C   UNL     1      -3.984  14.122  23.564  0.00  0.00    +0.000 C 
ATOM      9  N   UNL     1      -3.458  12.819  23.173  0.00  0.00    +0.000 NA
ATOM     10  C   UNL     1      -2.035  12.665  23.438  0.00  0.00    +0.000 C 
ATOM     11  C   UNL     1      -1.372  11.595  22.602  0.00  0.00    +0.000 A 
ATOM     12  C   UNL     1      -0.945  10.388  23.169  0.00  0.00    +0.000 A 
ATOM     13  C   UNL     1      -0.262   9.452  22.394  0.00  0.00    +0.000 A 
ATOM     14  C   UNL     1      -0.005   9.711  21.046  0.00  0.00    +0.000 A 
ATOM     15  C   UNL     1      -0.458  10.894  20.457  0.00  0.00    +0.000 A 
ATOM     16  C   UNL     1      -1.139  11.834  21.233  0.00  0.00    +0.000 A 
ENDROOT
BRANCH   1  21
ATOM     17  C   UNL     1       4.296  14.482  21.117  0.00  0.00    +0.000 C 
ATOM     18  C   UNL     1       2.951  14.201  20.553  0.00  0.00    +0.000 A 
ATOM     19  N   UNL     1       2.743  13.765  19.331  0.00  0.00    +0.000 NA
ATOM     20  C   UNL     1       1.383  13.639  19.113  0.00  0.00    +0.000 A 
ATOM     21  C   UNL     1       0.561  14.042  20.148  0.00  0.00    +0.000 A 
ATOM     22  S   UNL     1       1.547  14.453  21.498  0.00  0.00    +0.000 S 
ENDBRANCH   1  21
TORSDOF 1
ENDMDL
MODEL 8
REMARK VINA RESULT:      -5.5      8.902     11.510
REMARK  Name = 
REMARK  2 active torsions:
REMARK  status: ('A' for Active; 'I' for Inactive)
REMARK    1  A    between atoms: C_1  and  C_2
REMARK    2  A    between atoms: C_5  and  C_6
REMARK                            x       y       z     vdW  Elec       q    Type
REMARK                         _______ _______ _______ _____ _____    ______ ____
ROOT
ATOM      1  C   UNL     1      -0.433  13.726  22.306  0.00  0.00    +0.000 C 
ATOM      2  O   UNL     1       0.105  14.589  23.001  0.00  0.00    +0.000 OA
ATOM      3  N   UNL     1       0.240  13.231  21.166  0.00  0.00    +0.000 N 
ATOM      4  C   UNL     1       1.628  13.660  20.944  0.00  0.00    +0.000 C 
ATOM      5  C   UNL     1       2.040  14.064  19.504  0.00  0.00    +0.000 C 
ATOM      6  C   UNL     1       3.308  14.941  19.543  0.00  0.00    +0.000 C 
ATOM      7  C   UNL     1       2.886  16.283  18.953  0.00  0.00    +0.000 C 
ATOM      8  C   UNL     1       1.373  16.266  19.049  0.00  0.00    +0.000 C 
ATOM      9  N   UNL     1       1.111  14.874  18.699  0.00  0.00    +0.000 NA
ATOM     10  C   UNL     1      -0.300  14.524  18.729  0.00  0.00    +0.000 C 
ATOM     11  C   UNL     1      -0.558  13.044  18.893  0.00  0.00    +0.000 A 
ATOM     12  C   UNL     1      -1.057  12.271  17.837  0.00  0.00    +0.000 A 
ATOM     13  C   UNL     1      -1.364  10.925  18.038  0.00  0.00    +0.000 A 
ATOM     14  C   UNL     1      -1.170  10.341  19.292  0.00  0.00    +0.000 A 
ATOM     15  C   UNL     1      -0.637  11.090  20.344  0.00  0.00    +0.000 A 
ATOM     16  C   UNL     1      -0.332  12.439  20.145  0.00  0.00    +0.000 A 
ENDROOT
BRANCH   1  21
ATOM     17  C   UNL     1      -5.594  13.102  23.076  0.00  0.00    +0.000 C 
ATOM     18  C   UNL     1      -4.121  12.915  23.023  0.00  0.00    +0.000 A 
ATOM     19  N   UNL     1      -3.480  11.948  23.639  0.00  0.00    +0.000 NA
ATOM     20  C   UNL     1      -2.122  12.079  23.413  0.00  0.00    +0.000 A 
ATOM     21  C   UNL     1      -1.732  13.184  22.681  0.00  0.00    +0.000 A 
ATOM     22  S   UNL     1      -3.144  14.001  22.133  0.00  0.00    +0.000 S 
ENDBRANCH   1  21
TORSDOF 1
ENDMDL
MODEL 9
REMARK VINA RESULT:      -5.4      7.651      9.750
REMARK  Name = 
REMARK  2 active torsions:
REMARK  status: ('A' for Active; 'I' for Inactive)
REMARK    1  A    between atoms: C_1  and  C_2
REMARK    2  A    between atoms: C_5  and  C_6
REMARK                            x       y       z     vdW  Elec       q    Type
REMARK                         _______ _______ _______ _____ _____    ______ ____
ROOT
ATOM      1  C   UNL     1       0.297  13.219  20.818  0.00  0.00    +0.000 C 
ATOM      2  O   UNL     1       1.363  13.153  21.433  0.00  0.00    +0.000 OA
ATOM      3  N   UNL     1      -0.559  12.095  20.787  0.00  0.00    +0.000 N 
ATOM      4  C   UNL     1      -0.211  10.939  21.623  0.00  0.00    +0.000 C 
ATOM      5  C   UNL     1      -0.341   9.526  20.996  0.00  0.00    +0.000 C 
ATOM      6  C   UNL     1       0.517   8.515  21.785  0.00  0.00    +0.000 C 
ATOM      7  C   UNL     1       1.549   8.001  20.786  0.00  0.00    +0.000 C 
ATOM      8  C   UNL     1       1.537   9.037  19.680  0.00  0.00    +0.000 C 
ATOM      9  N   UNL     1       0.107   9.318  19.609  0.00  0.00    +0.000 NA
ATOM     10  C   UNL     1      -0.237  10.331  18.623  0.00  0.00    +0.000 C 
ATOM     11  C   UNL     1      -1.565  11.005  18.880  0.00  0.00    +0.000 A 
ATOM     12  C   UNL     1      -2.675  10.761  18.062  0.00  0.00    +0.000 A 
ATOM     13  C   UNL     1      -3.865  11.458  18.269  0.00  0.00    +0.000 A 
ATOM     14  C   UNL     1      -3.957  12.399  19.297  0.00  0.00    +0.000 A 
ATOM     15  C   UNL     1      -2.870  12.624  20.146  0.00  0.00    +0.000 A 
ATOM     16  C   UNL     1      -1.677  11.929  19.937  0.00  0.00    +0.000 A 
ENDROOT
BRANCH   1  21
ATOM     17  C   UNL     1      -1.972  17.837  19.748  0.00  0.00    +0.000 C 
ATOM     18  C   UNL     1      -1.157  16.595  19.696  0.00  0.00    +0.000 A 
ATOM     19  N   UNL     1      -0.526  16.174  18.624  0.00  0.00    +0.000 NA
ATOM     20  C   UNL     1       0.107  14.977  18.904  0.00  0.00    +0.000 A 
ATOM     21  C   UNL     1      -0.101  14.460  20.168  0.00  0.00    +0.000 A 
ATOM     22  S   UNL     1      -1.005  15.604  21.083  0.00  0.00    +0.000 S 
ENDBRANCH   1  21
TORSDOF 1
ENDMDL
