MODEL 1
REMARK VINA RESULT:      -7.9      0.000      0.000
REMARK  Name = 
REMARK  11 active torsions:
REMARK  status: ('A' for Active; 'I' for Inactive)
REMARK    1  A    between atoms: C_6  and  C_7
REMARK    2  A    between atoms: C_10  and  O_11
REMARK    3  A    between atoms: C_12  and  C_13
REMARK    4  A    between atoms: C_12  and  C_14
REMARK    5  A    between atoms: C_14  and  O_15
REMARK    6  A    between atoms: C_16  and  C_17
REMARK    7  A    between atoms: C_17  and  C_18
REMARK    8  A    between atoms: C_18  and  S_19
REMARK    9  A    between atoms: C_18  and  C_27
REMARK   10  A    between atoms: S_19  and  C_20
REMARK   11  A    between atoms: C_23  and  C_24
REMARK                            x       y       z     vdW  Elec       q    Type
REMARK                         _______ _______ _______ _____ _____    ______ ____
ROOT
ATOM      1  C   UNL     1       3.739   7.326  16.725  0.00  0.00    +0.000 C 
ATOM      2  C   UNL     1       3.894   6.807  17.959  0.00  0.00    +0.000 C 
ATOM      3  C   UNL     1       5.147   6.042  18.292  0.00  0.00    +0.000 C 
ATOM      4  C   UNL     1       4.833   4.575  18.594  0.00  0.00    +0.000 C 
ATOM      5  C   UNL     1       3.664   4.379  19.588  0.00  0.00    +0.000 C 
ATOM      6  C   UNL     1       2.387   5.261  19.244  0.00  0.00    +0.000 C 
ATOM      7  C   UNL     1       1.696   4.837  17.923  0.00  0.00    +0.000 C 
ATOM      8  C   UNL     1       1.398   5.125  20.423  0.00  0.00    +0.000 C 
ATOM      9  C   UNL     1       1.152   3.736  20.986  0.00  0.00    +0.000 C 
ATOM     10  C   UNL     1       2.406   2.904  21.216  0.00  0.00    +0.000 C 
ATOM     11  C   UNL     1       3.361   2.867  19.988  0.00  0.00    +0.000 C 
ATOM     12  C   UNL     1       4.672   2.161  20.432  0.00  0.00    +0.000 C 
ATOM     13  C   UNL     1       2.830   6.787  19.082  0.00  0.00    +0.000 C 
ENDROOT
BRANCH  10  14
ATOM     14  O   UNL     1       2.015   1.588  21.616  0.00  0.00    +0.000 OA
ATOM     15  H   UNL     1       1.075   1.464  21.400  0.00  0.00    +0.000 HD
ENDBRANCH  10  14
BRANCH  11  16
ATOM     16  C   UNL     1       2.757   1.933  18.906  0.00  0.00    +0.000 C 
BRANCH  16  17
ATOM     17  O   UNL     1       3.736   1.115  18.288  0.00  0.00    +0.000 OA
ATOM     18  H   UNL     1       3.276   0.553  17.641  0.00  0.00    +0.000 HD
ENDBRANCH  16  17
ENDBRANCH  11  16
BRANCH  13  19
ATOM     19  C   UNL     1       1.716   7.854  18.805  0.00  0.00    +0.000 C 
BRANCH  19  20
ATOM     20  C   UNL     1       1.717   9.291  19.404  0.00  0.00    +0.000 C 
BRANCH  20  21
ATOM     21  C   UNL     1       0.863   9.379  20.642  0.00  0.00    +0.000 C 
ATOM     22  C   UNL     1       0.107   8.463  21.254  0.00  0.00    +0.000 C 
ATOM     23  C   UNL     1      -0.416   8.962  22.533  0.00  0.00    +0.000 C 
ATOM     24  O   UNL     1       0.088  10.289  22.619  0.00  0.00    +0.000 OA
ATOM     25  C   UNL     1       0.879  10.546  21.548  0.00  0.00    +0.000 C 
ATOM     26  O   UNL     1       1.529  11.561  21.376  0.00  0.00    +0.000 OA
ENDBRANCH  20  21
BRANCH  20  27
ATOM     27  S   UNL     1       1.383  10.652  18.202  0.00  0.00    +0.000 S 
BRANCH  27  28
ATOM     28  C   UNL     1      -0.391  10.721  18.181  0.00  0.00    +0.000 A 
ATOM     29  C   UNL     1      -1.145   9.748  17.515  0.00  0.00    +0.000 A 
ATOM     30  C   UNL     1      -2.538   9.857  17.458  0.00  0.00    +0.000 A 
ATOM     31  C   UNL     1      -3.186  10.933  18.075  0.00  0.00    +0.000 A 
ATOM     32  C   UNL     1      -4.662  11.148  17.926  0.00  0.00    +0.000 C 
ATOM     33  C   UNL     1      -2.428  11.863  18.797  0.00  0.00    +0.000 A 
ATOM     34  C   UNL     1      -1.043  11.750  18.856  0.00  0.00    +0.000 A 
ENDBRANCH  27  28
ENDBRANCH  20  27
ENDBRANCH  19  20
ENDBRANCH  13  19
TORSDOF 8
ENDMDL
MODEL 2
REMARK VINA RESULT:      -7.8      2.393      3.950
REMARK  Name = 
REMARK  11 active torsions:
REMARK  status: ('A' for Active; 'I' for Inactive)
REMARK    1  A    between atoms: C_6  and  C_7
REMARK    2  A    between atoms: C_10  and  O_11
REMARK    3  A    between atoms: C_12  and  C_13
REMARK    4  A    between atoms: C_12  and  C_14
REMARK    5  A    between atoms: C_14  and  O_15
REMARK    6  A    between atoms: C_16  and  C_17
REMARK    7  A    between atoms: C_17  and  C_18
REMARK    8  A    between atoms: C_18  and  S_19
REMARK    9  A    between atoms: C_18  and  C_27
REMARK   10  A    between atoms: S_19  and  C_20
REMARK   11  A    between atoms: C_23  and  C_24
REMARK                            x       y       z     vdW  Elec       q    Type
REMARK                         _______ _______ _______ _____ _____    ______ ____
ROOT
ATOM      1  C   UNL     1       1.423   4.165  20.198  0.00  0.00    +0.000 C 
ATOM      2  C   UNL     1       1.818   4.703  19.027  0.00  0.00    +0.000 C 
ATOM      3  C   UNL     1       1.801   3.862  17.778  0.00  0.00    +0.000 C 
ATOM      4  C   UNL     1       3.217   3.656  17.234  0.00  0.00    +0.000 C 
ATOM      5  C   UNL     1       4.043   4.960  17.133  0.00  0.00    +0.000 C 
ATOM      6  C   UNL     1       3.974   5.856  18.444  0.00  0.00    +0.000 C 
ATOM      7  C   UNL     1       4.658   5.193  19.666  0.00  0.00    +0.000 C 
ATOM      8  C   UNL     1       4.658   7.203  18.122  0.00  0.00    +0.000 C 
ATOM      9  C   UNL     1       5.980   7.166  17.375  0.00  0.00    +0.000 C 
ATOM     10  C   UNL     1       6.015   6.226  16.178  0.00  0.00    +0.000 C 
ATOM     11  C   UNL     1       5.493   4.796  16.495  0.00  0.00    +0.000 C 
ATOM     12  C   UNL     1       5.399   4.019  15.152  0.00  0.00    +0.000 C 
ATOM     13  C   UNL     1       2.443   6.105  18.831  0.00  0.00    +0.000 C 
ENDROOT
BRANCH  10  14
ATOM     14  O   UNL     1       7.348   6.195  15.660  0.00  0.00    +0.000 OA
ATOM     15  H   UNL     1       7.580   5.274  15.452  0.00  0.00    +0.000 HD
ENDBRANCH  10  14
BRANCH  11  16
ATOM     16  C   UNL     1       6.568   4.034  17.314  0.00  0.00    +0.000 C 
BRANCH  16  17
ATOM     17  O   UNL     1       7.838   4.043  16.685  0.00  0.00    +0.000 OA
ATOM     18  H   UNL     1       7.712   3.722  15.775  0.00  0.00    +0.000 HD
ENDBRANCH  16  17
ENDBRANCH  11  16
BRANCH  13  19
ATOM     19  C   UNL     1       2.134   7.024  20.061  0.00  0.00    +0.000 C 
BRANCH  19  20
ATOM     20  C   UNL     1       1.716   8.520  19.948  0.00  0.00    +0.000 C 
BRANCH  20  21
ATOM     21  C   UNL     1       0.882   8.955  21.124  0.00  0.00    +0.000 C 
ATOM     22  C   UNL     1      -0.428   8.846  21.360  0.00  0.00    +0.000 C 
ATOM     23  C   UNL     1      -0.768   9.267  22.726  0.00  0.00    +0.000 C 
ATOM     24  O   UNL     1       0.477   9.663  23.287  0.00  0.00    +0.000 OA
ATOM     25  C   UNL     1       1.470   9.448  22.387  0.00  0.00    +0.000 C 
ATOM     26  O   UNL     1       2.659   9.600  22.598  0.00  0.00    +0.000 OA
ENDBRANCH  20  21
BRANCH  20  27
ATOM     27  S   UNL     1       0.989   9.020  18.327  0.00  0.00    +0.000 S 
BRANCH  27  28
ATOM     28  C   UNL     1       0.651  10.745  18.571  0.00  0.00    +0.000 A 
ATOM     29  C   UNL     1      -0.663  11.227  18.606  0.00  0.00    +0.000 A 
ATOM     30  C   UNL     1      -0.904  12.599  18.736  0.00  0.00    +0.000 A 
ATOM     31  C   UNL     1       0.166  13.494  18.844  0.00  0.00    +0.000 A 
ATOM     32  C   UNL     1      -0.053  14.978  18.859  0.00  0.00    +0.000 C 
ATOM     33  C   UNL     1       1.473  12.995  18.878  0.00  0.00    +0.000 A 
ATOM     34  C   UNL     1       1.711  11.630  18.753  0.00  0.00    +0.000 A 
ENDBRANCH  27  28
ENDBRANCH  20  27
ENDBRANCH  19  20
ENDBRANCH  13  19
TORSDOF 8
ENDMDL
MODEL 3
REMARK VINA RESULT:      -7.5      2.498      4.098
REMARK  Name = 
REMARK  11 active torsions:
REMARK  status: ('A' for Active; 'I' for Inactive)
REMARK    1  A    between atoms: C_6  and  C_7
REMARK    2  A    between atoms: C_10  and  O_11
REMARK    3  A    between atoms: C_12  and  C_13
REMARK    4  A    between atoms: C_12  and  C_14
REMARK    5  A    between atoms: C_14  and  O_15
REMARK    6  A    between atoms: C_16  and  C_17
REMARK    7  A    between atoms: C_17  and  C_18
REMARK    8  A    between atoms: C_18  and  S_19
REMARK    9  A    between atoms: C_18  and  C_27
REMARK   10  A    between atoms: S_19  and  C_20
REMARK   11  A    between atoms: C_23  and  C_24
REMARK                            x       y       z     vdW  Elec       q    Type
REMARK                         _______ _______ _______ _____ _____    ______ ____
ROOT
ATOM      1  C   UNL     1       1.583   4.065  20.710  0.00  0.00    +0.000 C 
ATOM      2  C   UNL     1       1.759   4.539  19.461  0.00  0.00    +0.000 C 
ATOM      3  C   UNL     1       1.632   3.605  18.286  0.00  0.00    +0.000 C 
ATOM      4  C   UNL     1       2.967   3.462  17.551  0.00  0.00    +0.000 C 
ATOM      5  C   UNL     1       3.657   4.812  17.242  0.00  0.00    +0.000 C 
ATOM      6  C   UNL     1       3.703   5.798  18.488  0.00  0.00    +0.000 C 
ATOM      7  C   UNL     1       4.609   5.284  19.634  0.00  0.00    +0.000 C 
ATOM      8  C   UNL     1       4.218   7.163  17.979  0.00  0.00    +0.000 C 
ATOM      9  C   UNL     1       5.417   7.166  17.046  0.00  0.00    +0.000 C 
ATOM     10  C   UNL     1       5.358   6.141  15.921  0.00  0.00    +0.000 C 
ATOM     11  C   UNL     1       5.009   4.705  16.406  0.00  0.00    +0.000 C 
ATOM     12  C   UNL     1       4.788   3.823  15.146  0.00  0.00    +0.000 C 
ATOM     13  C   UNL     1       2.229   5.963  19.082  0.00  0.00    +0.000 C 
ENDROOT
BRANCH  10  14
ATOM     14  O   UNL     1       6.600   6.169  15.213  0.00  0.00    +0.000 OA
ATOM     15  H   UNL     1       7.093   6.964  15.480  0.00  0.00    +0.000 HD
ENDBRANCH  10  14
BRANCH  11  16
ATOM     16  C   UNL     1       6.251   4.091  17.103  0.00  0.00    +0.000 C 
BRANCH  16  17
ATOM     17  O   UNL     1       7.272   3.742  16.185  0.00  0.00    +0.000 OA
ATOM     18  H   UNL     1       7.534   2.824  16.377  0.00  0.00    +0.000 HD
ENDBRANCH  16  17
ENDBRANCH  11  16
BRANCH  13  19
ATOM     19  C   UNL     1       2.024   6.949  20.282  0.00  0.00    +0.000 C 
BRANCH  19  20
ATOM     20  C   UNL     1       1.671   8.457  20.120  0.00  0.00    +0.000 C 
BRANCH  20  21
ATOM     21  C   UNL     1       0.856   8.966  21.280  0.00  0.00    +0.000 C 
ATOM     22  C   UNL     1      -0.462   8.966  21.493  0.00  0.00    +0.000 C 
ATOM     23  C   UNL     1      -0.790   9.421  22.852  0.00  0.00    +0.000 C 
ATOM     24  O   UNL     1       0.475   9.716  23.432  0.00  0.00    +0.000 OA
ATOM     25  C   UNL     1       1.461   9.416  22.551  0.00  0.00    +0.000 C 
ATOM     26  O   UNL     1       2.655   9.471  22.781  0.00  0.00    +0.000 OA
ENDBRANCH  20  21
BRANCH  20  27
ATOM     27  S   UNL     1       0.967   8.936  18.482  0.00  0.00    +0.000 S 
BRANCH  27  28
ATOM     28  C   UNL     1       1.129  10.703  18.494  0.00  0.00    +0.000 A 
ATOM     29  C   UNL     1       2.334  11.322  18.142  0.00  0.00    +0.000 A 
ATOM     30  C   UNL     1       2.458  12.713  18.220  0.00  0.00    +0.000 A 
ATOM     31  C   UNL     1       1.374  13.494  18.638  0.00  0.00    +0.000 A 
ATOM     32  C   UNL     1       1.511  14.971  18.853  0.00  0.00    +0.000 C 
ATOM     33  C   UNL     1       0.154  12.871  18.921  0.00  0.00    +0.000 A 
ATOM     34  C   UNL     1       0.031  11.488  18.839  0.00  0.00    +0.000 A 
ENDBRANCH  27  28
ENDBRANCH  20  27
ENDBRANCH  19  20
ENDBRANCH  13  19
TORSDOF 8
ENDMDL
MODEL 4
REMARK VINA RESULT:      -7.5      2.313      3.864
REMARK  Name = 
REMARK  11 active torsions:
REMARK  status: ('A' for Active; 'I' for Inactive)
REMARK    1  A    between atoms: C_6  and  C_7
REMARK    2  A    between atoms: C_10  and  O_11
REMARK    3  A    between atoms: C_12  and  C_13
REMARK    4  A    between atoms: C_12  and  C_14
REMARK    5  A    between atoms: C_14  and  O_15
REMARK    6  A    between atoms: C_16  and  C_17
REMARK    7  A    between atoms: C_17  and  C_18
REMARK    8  A    between atoms: C_18  and  S_19
REMARK    9  A    between atoms: C_18  and  C_27
REMARK   10  A    between atoms: S_19  and  C_20
REMARK   11  A    between atoms: C_23  and  C_24
REMARK                            x       y       z     vdW  Elec       q    Type
REMARK                         _______ _______ _______ _____ _____    ______ ____
ROOT
ATOM      1  C   UNL     1       1.424   3.657  19.919  0.00  0.00    +0.000 C 
ATOM      2  C   UNL     1       1.859   4.282  18.807  0.00  0.00    +0.000 C 
ATOM      3  C   UNL     1       2.050   3.496  17.537  0.00  0.00    +0.000 C 
ATOM      4  C   UNL     1       3.523   3.469  17.123  0.00  0.00    +0.000 C 
ATOM      5  C   UNL     1       4.201   4.859  17.138  0.00  0.00    +0.000 C 
ATOM      6  C   UNL     1       3.913   5.688  18.464  0.00  0.00    +0.000 C 
ATOM      7  C   UNL     1       4.555   5.057  19.724  0.00  0.00    +0.000 C 
ATOM      8  C   UNL     1       4.466   7.114  18.247  0.00  0.00    +0.000 C 
ATOM      9  C   UNL     1       5.846   7.254  17.627  0.00  0.00    +0.000 C 
ATOM     10  C   UNL     1       6.095   6.372  16.411  0.00  0.00    +0.000 C 
ATOM     11  C   UNL     1       5.712   4.882  16.635  0.00  0.00    +0.000 C 
ATOM     12  C   UNL     1       5.828   4.154  15.266  0.00  0.00    +0.000 C 
ATOM     13  C   UNL     1       2.336   5.751  18.712  0.00  0.00    +0.000 C 
ENDROOT
BRANCH  10  14
ATOM     14  O   UNL     1       7.463   6.510  16.020  0.00  0.00    +0.000 OA
ATOM     15  H   UNL     1       7.711   7.449  16.077  0.00  0.00    +0.000 HD
ENDBRANCH  10  14
BRANCH  11  16
ATOM     16  C   UNL     1       6.789   4.212  17.529  0.00  0.00    +0.000 C 
BRANCH  16  17
ATOM     17  O   UNL     1       8.025   4.045  16.857  0.00  0.00    +0.000 OA
ATOM     18  H   UNL     1       8.719   4.412  17.432  0.00  0.00    +0.000 HD
ENDBRANCH  16  17
ENDBRANCH  11  16
BRANCH  13  19
ATOM     19  C   UNL     1       1.815   6.581  19.935  0.00  0.00    +0.000 C 
BRANCH  19  20
ATOM     20  C   UNL     1       1.824   8.136  20.001  0.00  0.00    +0.000 C 
BRANCH  20  21
ATOM     21  C   UNL     1       0.956   8.652  21.118  0.00  0.00    +0.000 C 
ATOM     22  C   UNL     1      -0.328   8.426  21.407  0.00  0.00    +0.000 C 
ATOM     23  C   UNL     1      -0.703   9.017  22.699  0.00  0.00    +0.000 C 
ATOM     24  O   UNL     1       0.490   9.644  23.152  0.00  0.00    +0.000 OA
ATOM     25  C   UNL     1       1.492   9.408  22.269  0.00  0.00    +0.000 C 
ATOM     26  O   UNL     1       2.656   9.734  22.416  0.00  0.00    +0.000 OA
ENDBRANCH  20  21
BRANCH  20  27
ATOM     27  S   UNL     1       1.521   9.000  18.397  0.00  0.00    +0.000 S 
BRANCH  27  28
ATOM     28  C   UNL     1       0.612  10.439  18.900  0.00  0.00    +0.000 A 
ATOM     29  C   UNL     1       1.266  11.565  19.413  0.00  0.00    +0.000 A 
ATOM     30  C   UNL     1       0.525  12.664  19.862  0.00  0.00    +0.000 A 
ATOM     31  C   UNL     1      -0.873  12.646  19.790  0.00  0.00    +0.000 A 
ATOM     32  C   UNL     1      -1.700  13.751  20.376  0.00  0.00    +0.000 C 
ATOM     33  C   UNL     1      -1.513  11.544  19.211  0.00  0.00    +0.000 A 
ATOM     34  C   UNL     1      -0.774  10.455  18.761  0.00  0.00    +0.000 A 
ENDBRANCH  27  28
ENDBRANCH  20  27
ENDBRANCH  19  20
ENDBRANCH  13  19
TORSDOF 8
ENDMDL
MODEL 5
REMARK VINA RESULT:      -7.3      2.100      3.513
REMARK  Name = 
REMARK  11 active torsions:
REMARK  status: ('A' for Active; 'I' for Inactive)
REMARK    1  A    between atoms: C_6  and  C_7
REMARK    2  A    between atoms: C_10  and  O_11
REMARK    3  A    between atoms: C_12  and  C_13
REMARK    4  A    between atoms: C_12  and  C_14
REMARK    5  A    between atoms: C_14  and  O_15
REMARK    6  A    between atoms: C_16  and  C_17
REMARK    7  A    between atoms: C_17  and  C_18
REMARK    8  A    between atoms: C_18  and  S_19
REMARK    9  A    between atoms: C_18  and  C_27
REMARK   10  A    between atoms: S_19  and  C_20
REMARK   11  A    between atoms: C_23  and  C_24
REMARK                            x       y       z     vdW  Elec       q    Type
REMARK                         _______ _______ _______ _____ _____    ______ ____
ROOT
ATOM      1  C   UNL     1       1.283   4.457  20.043  0.00  0.00    +0.000 C 
ATOM      2  C   UNL     1       1.751   4.941  18.876  0.00  0.00    +0.000 C 
ATOM      3  C   UNL     1       1.776   4.054  17.659  0.00  0.00    +0.000 C 
ATOM      4  C   UNL     1       3.212   3.794  17.198  0.00  0.00    +0.000 C 
ATOM      5  C   UNL     1       4.075   5.073  17.092  0.00  0.00    +0.000 C 
ATOM      6  C   UNL     1       3.962   6.019  18.364  0.00  0.00    +0.000 C 
ATOM      7  C   UNL     1       4.566   5.387  19.644  0.00  0.00    +0.000 C 
ATOM      8  C   UNL     1       4.697   7.336  18.029  0.00  0.00    +0.000 C 
ATOM      9  C   UNL     1       6.054   7.239  17.354  0.00  0.00    +0.000 C 
ATOM     10  C   UNL     1       6.126   6.254  16.195  0.00  0.00    +0.000 C 
ATOM     11  C   UNL     1       5.551   4.850  16.536  0.00  0.00    +0.000 C 
ATOM     12  C   UNL     1       5.505   4.026  15.219  0.00  0.00    +0.000 C 
ATOM     13  C   UNL     1       2.421   6.319  18.661  0.00  0.00    +0.000 C 
ENDROOT
BRANCH  10  14
ATOM     14  O   UNL     1       7.482   6.172  15.748  0.00  0.00    +0.000 OA
ATOM     15  H   UNL     1       7.542   5.488  15.059  0.00  0.00    +0.000 HD
ENDBRANCH  10  14
BRANCH  11  16
ATOM     16  C   UNL     1       6.563   4.094  17.438  0.00  0.00    +0.000 C 
BRANCH  16  17
ATOM     17  O   UNL     1       7.865   4.055  16.878  0.00  0.00    +0.000 OA
ATOM     18  H   UNL     1       7.907   3.275  16.298  0.00  0.00    +0.000 HD
ENDBRANCH  16  17
ENDBRANCH  11  16
BRANCH  13  19
ATOM     19  C   UNL     1       2.073   7.291  19.840  0.00  0.00    +0.000 C 
BRANCH  19  20
ATOM     20  C   UNL     1       1.825   8.818  19.665  0.00  0.00    +0.000 C 
BRANCH  20  21
ATOM     21  C   UNL     1       0.859   9.346  20.694  0.00  0.00    +0.000 C 
ATOM     22  C   UNL     1      -0.148   8.752  21.339  0.00  0.00    +0.000 C 
ATOM     23  C   UNL     1      -0.709   9.622  22.381  0.00  0.00    +0.000 C 
ATOM     24  O   UNL     1       0.056  10.817  22.284  0.00  0.00    +0.000 OA
ATOM     25  C   UNL     1       1.013  10.669  21.334  0.00  0.00    +0.000 C 
ATOM     26  O   UNL     1       1.884  11.479  21.076  0.00  0.00    +0.000 OA
ENDBRANCH  20  21
BRANCH  20  27
ATOM     27  S   UNL     1       1.417   9.364  17.949  0.00  0.00    +0.000 S 
BRANCH  27  28
ATOM     28  C   UNL     1      -0.191  10.090  18.147  0.00  0.00    +0.000 A 
ATOM     29  C   UNL     1      -1.354   9.349  17.907  0.00  0.00    +0.000 A 
ATOM     30  C   UNL     1      -2.609   9.960  18.008  0.00  0.00    +0.000 A 
ATOM     31  C   UNL     1      -2.707  11.311  18.361  0.00  0.00    +0.000 A 
ATOM     32  C   UNL     1      -4.025  12.026  18.355  0.00  0.00    +0.000 C 
ATOM     33  C   UNL     1      -1.542  12.023  18.666  0.00  0.00    +0.000 A 
ATOM     34  C   UNL     1      -0.296  11.413  18.570  0.00  0.00    +0.000 A 
ENDBRANCH  27  28
ENDBRANCH  20  27
ENDBRANCH  19  20
ENDBRANCH  13  19
TORSDOF 8
ENDMDL
MODEL 6
REMARK VINA RESULT:      -7.3      2.310      8.116
REMARK  Name = 
REMARK  11 active torsions:
REMARK  status: ('A' for Active; 'I' for Inactive)
REMARK    1  A    between atoms: C_6  and  C_7
REMARK    2  A    between atoms: C_10  and  O_11
REMARK    3  A    between atoms: C_12  and  C_13
REMARK    4  A    between atoms: C_12  and  C_14
REMARK    5  A    between atoms: C_14  and  O_15
REMARK    6  A    between atoms: C_16  and  C_17
REMARK    7  A    between atoms: C_17  and  C_18
REMARK    8  A    between atoms: C_18  and  S_19
REMARK    9  A    between atoms: C_18  and  C_27
REMARK   10  A    between atoms: S_19  and  C_20
REMARK   11  A    between atoms: C_23  and  C_24
REMARK                            x       y       z     vdW  Elec       q    Type
REMARK                         _______ _______ _______ _____ _____    ______ ____
ROOT
ATOM      1  C   UNL     1       2.585   8.862  17.907  0.00  0.00    +0.000 C 
ATOM      2  C   UNL     1       1.370   8.876  18.489  0.00  0.00    +0.000 C 
ATOM      3  C   UNL     1       0.246   9.644  17.844  0.00  0.00    +0.000 C 
ATOM      4  C   UNL     1      -0.208  10.805  18.733  0.00  0.00    +0.000 C 
ATOM      5  C   UNL     1      -0.451  10.404  20.207  0.00  0.00    +0.000 C 
ATOM      6  C   UNL     1       0.724   9.531  20.827  0.00  0.00    +0.000 C 
ATOM      7  C   UNL     1       2.050  10.317  20.973  0.00  0.00    +0.000 C 
ATOM      8  C   UNL     1       0.250   9.033  22.211  0.00  0.00    +0.000 C 
ATOM      9  C   UNL     1      -0.431  10.033  23.129  0.00  0.00    +0.000 C 
ATOM     10  C   UNL     1      -1.489  10.901  22.461  0.00  0.00    +0.000 C 
ATOM     11  C   UNL     1      -1.002  11.569  21.143  0.00  0.00    +0.000 C 
ATOM     12  C   UNL     1      -2.231  12.250  20.478  0.00  0.00    +0.000 C 
ATOM     13  C   UNL     1       1.011   8.283  19.872  0.00  0.00    +0.000 C 
ENDROOT
BRANCH  10  14
ATOM     14  O   UNL     1      -1.944  11.874  23.406  0.00  0.00    +0.000 OA
ATOM     15  H   UNL     1      -2.632  12.418  22.985  0.00  0.00    +0.000 HD
ENDBRANCH  10  14
BRANCH  11  16
ATOM     16  C   UNL     1      -0.045  12.739  21.492  0.00  0.00    +0.000 C 
BRANCH  16  17
ATOM     17  O   UNL     1      -0.740  13.921  21.850  0.00  0.00    +0.000 OA
ATOM     18  H   UNL     1      -1.358  14.125  21.126  0.00  0.00    +0.000 HD
ENDBRANCH  16  17
ENDBRANCH  11  16
BRANCH  13  19
ATOM     19  C   UNL     1       2.093   7.243  20.323  0.00  0.00    +0.000 C 
BRANCH  19  20
ATOM     20  C   UNL     1       2.661   6.122  19.403  0.00  0.00    +0.000 C 
BRANCH  20  21
ATOM     21  C   UNL     1       1.985   4.800  19.654  0.00  0.00    +0.000 C 
ATOM     22  C   UNL     1       1.674   4.175  20.793  0.00  0.00    +0.000 C 
ATOM     23  C   UNL     1       0.864   2.975  20.546  0.00  0.00    +0.000 C 
ATOM     24  O   UNL     1       0.736   2.928  19.130  0.00  0.00    +0.000 OA
ATOM     25  C   UNL     1       1.344   4.010  18.583  0.00  0.00    +0.000 C 
ATOM     26  O   UNL     1       1.331   4.305  17.402  0.00  0.00    +0.000 OA
ENDBRANCH  20  21
BRANCH  20  27
ATOM     27  S   UNL     1       4.502   5.991  19.358  0.00  0.00    +0.000 S 
BRANCH  27  28
ATOM     28  C   UNL     1       4.807   5.406  17.710  0.00  0.00    +0.000 A 
ATOM     29  C   UNL     1       4.845   4.037  17.423  0.00  0.00    +0.000 A 
ATOM     30  C   UNL     1       5.150   3.598  16.130  0.00  0.00    +0.000 A 
ATOM     31  C   UNL     1       5.405   4.527  15.114  0.00  0.00    +0.000 A 
ATOM     32  C   UNL     1       5.857   4.092  13.752  0.00  0.00    +0.000 C 
ATOM     33  C   UNL     1       5.296   5.893  15.395  0.00  0.00    +0.000 A 
ATOM     34  C   UNL     1       4.989   6.328  16.681  0.00  0.00    +0.000 A 
ENDBRANCH  27  28
ENDBRANCH  20  27
ENDBRANCH  19  20
ENDBRANCH  13  19
TORSDOF 8
ENDMDL
MODEL 7
REMARK VINA RESULT:      -7.2      2.318      4.051
REMARK  Name = 
REMARK  11 active torsions:
REMARK  status: ('A' for Active; 'I' for Inactive)
REMARK    1  A    between atoms: C_6  and  C_7
REMARK    2  A    between atoms: C_10  and  O_11
REMARK    3  A    between atoms: C_12  and  C_13
REMARK    4  A    between atoms: C_12  and  C_14
REMARK    5  A    between atoms: C_14  and  O_15
REMARK    6  A    between atoms: C_16  and  C_17
REMARK    7  A    between atoms: C_17  and  C_18
REMARK    8  A    between atoms: C_18  and  S_19
REMARK    9  A    between atoms: C_18  and  C_27
REMARK   10  A    between atoms: S_19  and  C_20
REMARK   11  A    between atoms: C_23  and  C_24
REMARK                            x       y       z     vdW  Elec       q    Type
REMARK                         _______ _______ _______ _____ _____    ______ ____
ROOT
ATOM      1  C   UNL     1       1.417   4.162  20.129  0.00  0.00    +0.000 C 
ATOM      2  C   UNL     1       1.829   4.692  18.961  0.00  0.00    +0.000 C 
ATOM      3  C   UNL     1       1.848   3.838  17.721  0.00  0.00    +0.000 C 
ATOM      4  C   UNL     1       3.277   3.643  17.209  0.00  0.00    +0.000 C 
ATOM      5  C   UNL     1       4.089   4.955  17.109  0.00  0.00    +0.000 C 
ATOM      6  C   UNL     1       3.982   5.865  18.409  0.00  0.00    +0.000 C 
ATOM      7  C   UNL     1       4.649   5.224  19.652  0.00  0.00    +0.000 C 
ATOM      8  C   UNL     1       4.657   7.216  18.085  0.00  0.00    +0.000 C 
ATOM      9  C   UNL     1       5.995   7.187  17.366  0.00  0.00    +0.000 C 
ATOM     10  C   UNL     1       6.066   6.234  16.180  0.00  0.00    +0.000 C 
ATOM     11  C   UNL     1       5.554   4.802  16.503  0.00  0.00    +0.000 C 
ATOM     12  C   UNL     1       5.497   4.009  15.167  0.00  0.00    +0.000 C 
ATOM     13  C   UNL     1       2.442   6.099  18.761  0.00  0.00    +0.000 C 
ENDROOT
BRANCH  10  14
ATOM     14  O   UNL     1       7.409   6.214  15.690  0.00  0.00    +0.000 OA
ATOM     15  H   UNL     1       7.514   6.930  15.040  0.00  0.00    +0.000 HD
ENDBRANCH  10  14
BRANCH  11  16
ATOM     16  C   UNL     1       6.621   4.062  17.353  0.00  0.00    +0.000 C 
BRANCH  16  17
ATOM     17  O   UNL     1       7.894   4.043  16.730  0.00  0.00    +0.000 OA
ATOM     18  H   UNL     1       8.270   3.156  16.867  0.00  0.00    +0.000 HD
ENDBRANCH  16  17
ENDBRANCH  11  16
BRANCH  13  19
ATOM     19  C   UNL     1       2.096   7.028  19.975  0.00  0.00    +0.000 C 
BRANCH  19  20
ATOM     20  C   UNL     1       1.735   8.537  19.842  0.00  0.00    +0.000 C 
BRANCH  20  21
ATOM     21  C   UNL     1       0.969   9.034  21.039  0.00  0.00    +0.000 C 
ATOM     22  C   UNL     1       1.103  10.145  21.769  0.00  0.00    +0.000 C 
ATOM     23  C   UNL     1       0.013  10.285  22.744  0.00  0.00    +0.000 C 
ATOM     24  O   UNL     1      -0.785   9.126  22.541  0.00  0.00    +0.000 OA
ATOM     25  C   UNL     1      -0.276   8.397  21.517  0.00  0.00    +0.000 C 
ATOM     26  O   UNL     1      -0.783   7.398  21.040  0.00  0.00    +0.000 OA
ENDBRANCH  20  21
BRANCH  20  27
ATOM     27  S   UNL     1       0.963   9.030  18.239  0.00  0.00    +0.000 S 
BRANCH  27  28
ATOM     28  C   UNL     1       0.622  10.754  18.489  0.00  0.00    +0.000 A 
ATOM     29  C   UNL     1      -0.688  11.213  18.668  0.00  0.00    +0.000 A 
ATOM     30  C   UNL     1      -0.940  12.583  18.800  0.00  0.00    +0.000 A 
ATOM     31  C   UNL     1       0.117  13.499  18.766  0.00  0.00    +0.000 A 
ATOM     32  C   UNL     1      -0.128  14.978  18.778  0.00  0.00    +0.000 C 
ATOM     33  C   UNL     1       1.429  13.024  18.656  0.00  0.00    +0.000 A 
ATOM     34  C   UNL     1       1.678  11.661  18.529  0.00  0.00    +0.000 A 
ENDBRANCH  27  28
ENDBRANCH  20  27
ENDBRANCH  19  20
ENDBRANCH  13  19
TORSDOF 8
ENDMDL
MODEL 8
REMARK VINA RESULT:      -7.1      2.235      8.111
REMARK  Name = 
REMARK  11 active torsions:
REMARK  status: ('A' for Active; 'I' for Inactive)
REMARK    1  A    between atoms: C_6  and  C_7
REMARK    2  A    between atoms: C_10  and  O_11
REMARK    3  A    between atoms: C_12  and  C_13
REMARK    4  A    between atoms: C_12  and  C_14
REMARK    5  A    between atoms: C_14  and  O_15
REMARK    6  A    between atoms: C_16  and  C_17
REMARK    7  A    between atoms: C_17  and  C_18
REMARK    8  A    between atoms: C_18  and  S_19
REMARK    9  A    between atoms: C_18  and  C_27
REMARK   10  A    between atoms: S_19  and  C_20
REMARK   11  A    between atoms: C_23  and  C_24
REMARK                            x       y       z     vdW  Elec       q    Type
REMARK                         _______ _______ _______ _____ _____    ______ ____
ROOT
ATOM      1  C   UNL     1       2.566   8.810  17.846  0.00  0.00    +0.000 C 
ATOM      2  C   UNL     1       1.353   8.847  18.432  0.00  0.00    +0.000 C 
ATOM      3  C   UNL     1       0.255   9.674  17.817  0.00  0.00    +0.000 C 
ATOM      4  C   UNL     1      -0.156  10.819  18.746  0.00  0.00    +0.000 C 
ATOM      5  C   UNL     1      -0.410  10.378  20.206  0.00  0.00    +0.000 C 
ATOM      6  C   UNL     1       0.735   9.444  20.793  0.00  0.00    +0.000 C 
ATOM      7  C   UNL     1       2.088  10.179  20.961  0.00  0.00    +0.000 C 
ATOM      8  C   UNL     1       0.247   8.917  22.160  0.00  0.00    +0.000 C 
ATOM      9  C   UNL     1      -0.397   9.908  23.114  0.00  0.00    +0.000 C 
ATOM     10  C   UNL     1      -1.425  10.835  22.480  0.00  0.00    +0.000 C 
ATOM     11  C   UNL     1      -0.919  11.529  21.183  0.00  0.00    +0.000 C 
ATOM     12  C   UNL     1      -2.124  12.274  20.546  0.00  0.00    +0.000 C 
ATOM     13  C   UNL     1       0.977   8.220  19.795  0.00  0.00    +0.000 C 
ENDROOT
BRANCH  10  14
ATOM     14  O   UNL     1      -1.844  11.791  23.458  0.00  0.00    +0.000 OA
ATOM     15  H   UNL     1      -2.299  11.321  24.177  0.00  0.00    +0.000 HD
ENDBRANCH  10  14
BRANCH  11  16
ATOM     16  C   UNL     1       0.079  12.653  21.568  0.00  0.00    +0.000 C 
BRANCH  16  17
ATOM     17  O   UNL     1      -0.572  13.826  22.024  0.00  0.00    +0.000 OA
ATOM     18  H   UNL     1      -0.080  14.149  22.798  0.00  0.00    +0.000 HD
ENDBRANCH  16  17
ENDBRANCH  11  16
BRANCH  13  19
ATOM     19  C   UNL     1       2.022   7.129  20.208  0.00  0.00    +0.000 C 
BRANCH  19  20
ATOM     20  C   UNL     1       2.610   6.071  19.228  0.00  0.00    +0.000 C 
BRANCH  20  21
ATOM     21  C   UNL     1       1.862   4.766  19.304  0.00  0.00    +0.000 C 
ATOM     22  C   UNL     1       1.325   4.004  18.346  0.00  0.00    +0.000 C 
ATOM     23  C   UNL     1       0.838   2.726  18.883  0.00  0.00    +0.000 C 
ATOM     24  O   UNL     1       1.119   2.805  20.274  0.00  0.00    +0.000 OA
ATOM     25  C   UNL     1       1.761   3.969  20.544  0.00  0.00    +0.000 C 
ATOM     26  O   UNL     1       2.216   4.291  21.626  0.00  0.00    +0.000 OA
ENDBRANCH  20  21
BRANCH  20  27
ATOM     27  S   UNL     1       4.442   5.855  19.300  0.00  0.00    +0.000 S 
BRANCH  27  28
ATOM     28  C   UNL     1       4.831   5.307  17.656  0.00  0.00    +0.000 A 
ATOM     29  C   UNL     1       4.979   3.947  17.363  0.00  0.00    +0.000 A 
ATOM     30  C   UNL     1       5.347   3.542  16.075  0.00  0.00    +0.000 A 
ATOM     31  C   UNL     1       5.558   4.495  15.072  0.00  0.00    +0.000 A 
ATOM     32  C   UNL     1       6.075   4.106  13.719  0.00  0.00    +0.000 C 
ATOM     33  C   UNL     1       5.340   5.848  15.358  0.00  0.00    +0.000 A 
ATOM     34  C   UNL     1       4.969   6.248  16.638  0.00  0.00    +0.000 A 
ENDBRANCH  27  28
ENDBRANCH  20  27
ENDBRANCH  19  20
ENDBRANCH  13  19
TORSDOF 8
ENDMDL
MODEL 9
REMARK VINA RESULT:      -6.8      2.100      3.068
REMARK  Name = 
REMARK  11 active torsions:
REMARK  status: ('A' for Active; 'I' for Inactive)
REMARK    1  A    between atoms: C_6  and  C_7
REMARK    2  A    between atoms: C_10  and  O_11
REMARK    3  A    between atoms: C_12  and  C_13
REMARK    4  A    between atoms: C_12  and  C_14
REMARK    5  A    between atoms: C_14  and  O_15
REMARK    6  A    between atoms: C_16  and  C_17
REMARK    7  A    between atoms: C_17  and  C_18
REMARK    8  A    between atoms: C_18  and  S_19
REMARK    9  A    between atoms: C_18  and  C_27
REMARK   10  A    between atoms: S_19  and  C_20
REMARK   11  A    between atoms: C_23  and  C_24
REMARK                            x       y       z     vdW  Elec       q    Type
REMARK                         _______ _______ _______ _____ _____    ______ ____
ROOT
ATOM      1  C   UNL     1       4.125   7.113  16.478  0.00  0.00    +0.000 C 
ATOM      2  C   UNL     1       4.183   6.683  17.753  0.00  0.00    +0.000 C 
ATOM      3  C   UNL     1       5.378   5.896  18.220  0.00  0.00    +0.000 C 
ATOM      4  C   UNL     1       4.979   4.470  18.609  0.00  0.00    +0.000 C 
ATOM      5  C   UNL     1       3.746   4.398  19.539  0.00  0.00    +0.000 C 
ATOM      6  C   UNL     1       2.533   5.303  19.052  0.00  0.00    +0.000 C 
ATOM      7  C   UNL     1       1.904   4.808  17.725  0.00  0.00    +0.000 C 
ATOM      8  C   UNL     1       1.471   5.298  20.174  0.00  0.00    +0.000 C 
ATOM      9  C   UNL     1       1.128   3.967  20.820  0.00  0.00    +0.000 C 
ATOM     10  C   UNL     1       2.328   3.105  21.189  0.00  0.00    +0.000 C 
ATOM     11  C   UNL     1       3.351   2.935  20.030  0.00  0.00    +0.000 C 
ATOM     12  C   UNL     1       4.600   2.212  20.605  0.00  0.00    +0.000 C 
ATOM     13  C   UNL     1       3.054   6.793  18.806  0.00  0.00    +0.000 C 
ENDROOT
BRANCH  10  14
ATOM     14  O   UNL     1       1.854   1.840  21.660  0.00  0.00    +0.000 OA
ATOM     15  H   UNL     1       1.607   1.929  22.596  0.00  0.00    +0.000 HD
ENDBRANCH  10  14
BRANCH  11  16
ATOM     16  C   UNL     1       2.771   1.947  18.984  0.00  0.00    +0.000 C 
BRANCH  16  17
ATOM     17  O   UNL     1       3.766   1.114  18.414  0.00  0.00    +0.000 OA
ATOM     18  H   UNL     1       4.013   1.501  17.557  0.00  0.00    +0.000 HD
ENDBRANCH  16  17
ENDBRANCH  11  16
BRANCH  13  19
ATOM     19  C   UNL     1       2.008   7.880  18.382  0.00  0.00    +0.000 C 
BRANCH  19  20
ATOM     20  C   UNL     1       1.851   9.260  19.086  0.00  0.00    +0.000 C 
BRANCH  20  21
ATOM     21  C   UNL     1       1.106   9.139  20.389  0.00  0.00    +0.000 C 
ATOM     22  C   UNL     1       1.537   8.879  21.626  0.00  0.00    +0.000 C 
ATOM     23  C   UNL     1       0.461   9.027  22.615  0.00  0.00    +0.000 C 
ATOM     24  O   UNL     1      -0.676   9.385  21.840  0.00  0.00    +0.000 OA
ATOM     25  C   UNL     1      -0.319   9.503  20.537  0.00  0.00    +0.000 C 
ATOM     26  O   UNL     1      -1.044   9.886  19.637  0.00  0.00    +0.000 OA
ENDBRANCH  20  21
BRANCH  20  27
ATOM     27  S   UNL     1       1.216  10.627  18.019  0.00  0.00    +0.000 S 
BRANCH  27  28
ATOM     28  C   UNL     1       1.942  12.066  18.764  0.00  0.00    +0.000 A 
ATOM     29  C   UNL     1       1.633  12.434  20.078  0.00  0.00    +0.000 A 
ATOM     30  C   UNL     1       2.167  13.607  20.623  0.00  0.00    +0.000 A 
ATOM     31  C   UNL     1       3.023  14.411  19.860  0.00  0.00    +0.000 A 
ATOM     32  C   UNL     1       3.511  15.734  20.367  0.00  0.00    +0.000 C 
ATOM     33  C   UNL     1       3.380  13.997  18.572  0.00  0.00    +0.000 A 
ATOM     34  C   UNL     1       2.851  12.828  18.033  0.00  0.00    +0.000 A 
ENDBRANCH  27  28
ENDBRANCH  20  27
ENDBRANCH  19  20
ENDBRANCH  13  19
TORSDOF 8
ENDMDL
