MODEL 1
REMARK VINA RESULT:      -7.6      0.000      0.000
REMARK  Name = 
REMARK  8 active torsions:
REMARK  status: ('A' for Active; 'I' for Inactive)
REMARK    1  A    between atoms: O_1  and  C_2
REMARK    2  A    between atoms: C_2  and  C_3
REMARK    3  A    between atoms: C_2  and  C_13
REMARK    4  A    between atoms: C_3  and  O_4
REMARK    5  A    between atoms: O_4  and  C_5
REMARK    6  A    between atoms: C_13  and  N_14
REMARK    7  A    between atoms: C_17  and  C_18
REMARK    8  A    between atoms: C_18  and  C_19
REMARK                            x       y       z     vdW  Elec       q    Type
REMARK                         _______ _______ _______ _____ _____    ______ ____
ROOT
ATOM      1  C   UNL     1       7.723   7.006  16.847  0.00  0.00    +0.000 C 
ENDROOT
BRANCH   1   2
ATOM      2  N   UNL     1       6.425   6.442  16.396  0.00  0.00    +0.000 NA
ATOM      3  C   UNL     1       6.505   4.991  16.190  0.00  0.00    +0.000 C 
ATOM      4  C   UNL     1       5.145   4.383  15.841  0.00  0.00    +0.000 C 
ATOM      5  C   UNL     1       4.103   4.656  16.929  0.00  0.00    +0.000 C 
ATOM      6  C   UNL     1       3.999   6.180  17.080  0.00  0.00    +0.000 C 
ATOM      7  C   UNL     1       5.360   6.844  17.332  0.00  0.00    +0.000 C 
BRANCH   5   8
ATOM      8  C   UNL     1       4.420   3.990  18.289  0.00  0.00    +0.000 C 
BRANCH   8   9
ATOM      9  C   UNL     1       3.218   3.647  19.138  0.00  0.00    +0.000 A 
ATOM     10  C   UNL     1       3.188   3.999  20.495  0.00  0.00    +0.000 A 
ATOM     11  C   UNL     1       2.063   3.730  21.276  0.00  0.00    +0.000 A 
ATOM     12  C   UNL     1       0.954   3.109  20.708  0.00  0.00    +0.000 A 
ATOM     13  C   UNL     1       0.974   2.747  19.361  0.00  0.00    +0.000 A 
ATOM     14  C   UNL     1       2.101   3.015  18.580  0.00  0.00    +0.000 A 
ENDBRANCH   8   9
ENDBRANCH   5   8
ENDBRANCH   1   2
BRANCH   1  15
ATOM     15  C   UNL     1       7.734   7.776  18.195  0.00  0.00    +0.000 C 
BRANCH  15  16
ATOM     16  O   UNL     1       8.563   7.102  19.147  0.00  0.00    +0.000 OA
ATOM     17  H   UNL     1       9.479   7.200  18.831  0.00  0.00    +0.000 HD
ENDBRANCH  15  16
BRANCH  15  18
ATOM     18  C   UNL     1       8.287   9.195  17.964  0.00  0.00    +0.000 C 
BRANCH  18  19
ATOM     19  O   UNL     1       8.937   9.668  19.153  0.00  0.00    +0.000 OA
BRANCH  19  20
ATOM     20  C   UNL     1       9.656  10.836  19.021  0.00  0.00    +0.000 A 
ATOM     21  C   UNL     1      10.293  11.208  17.826  0.00  0.00    +0.000 A 
ATOM     22  C   UNL     1      10.987  12.419  17.740  0.00  0.00    +0.000 A 
ATOM     23  C   UNL     1      11.035  13.266  18.840  0.00  0.00    +0.000 A 
ATOM     24  F   UNL     1      11.701  14.423  18.750  0.00  0.00    +0.000 F 
ATOM     25  C   UNL     1      10.397  12.930  20.026  0.00  0.00    +0.000 A 
ATOM     26  C   UNL     1       9.704  11.719  20.112  0.00  0.00    +0.000 A 
ATOM     27 CL   UNL     1       8.922  11.340  21.607  0.00  0.00    +0.000 Cl
ENDBRANCH  19  20
ENDBRANCH  18  19
ENDBRANCH  15  18
ENDBRANCH   1  15
TORSDOF 8
ENDMDL
MODEL 2
REMARK VINA RESULT:      -7.4      5.251      7.757
REMARK  Name = 
REMARK  8 active torsions:
REMARK  status: ('A' for Active; 'I' for Inactive)
REMARK    1  A    between atoms: O_1  and  C_2
REMARK    2  A    between atoms: C_2  and  C_3
REMARK    3  A    between atoms: C_2  and  C_13
REMARK    4  A    between atoms: C_3  and  O_4
REMARK    5  A    between atoms: O_4  and  C_5
REMARK    6  A    between atoms: C_13  and  N_14
REMARK    7  A    between atoms: C_17  and  C_18
REMARK    8  A    between atoms: C_18  and  C_19
REMARK                            x       y       z     vdW  Elec       q    Type
REMARK                         _______ _______ _______ _____ _____    ______ ____
ROOT
ATOM      1  C   UNL     1       3.608   4.972  19.794  0.00  0.00    +0.000 C 
ENDROOT
BRANCH   1   2
ATOM      2  N   UNL     1       4.547   5.756  18.953  0.00  0.00    +0.000 NA
ATOM      3  C   UNL     1       5.896   5.178  18.960  0.00  0.00    +0.000 C 
ATOM      4  C   UNL     1       6.842   5.908  18.004  0.00  0.00    +0.000 C 
ATOM      5  C   UNL     1       6.320   5.890  16.564  0.00  0.00    +0.000 C 
ATOM      6  C   UNL     1       4.936   6.554  16.579  0.00  0.00    +0.000 C 
ATOM      7  C   UNL     1       3.985   5.914  17.599  0.00  0.00    +0.000 C 
BRANCH   5   8
ATOM      8  C   UNL     1       6.247   4.478  15.937  0.00  0.00    +0.000 C 
BRANCH   8   9
ATOM      9  C   UNL     1       6.528   4.413  14.453  0.00  0.00    +0.000 A 
ATOM     10  C   UNL     1       7.502   5.243  13.881  0.00  0.00    +0.000 A 
ATOM     11  C   UNL     1       7.802   5.156  12.521  0.00  0.00    +0.000 A 
ATOM     12  C   UNL     1       7.133   4.236  11.718  0.00  0.00    +0.000 A 
ATOM     13  C   UNL     1       6.155   3.411  12.274  0.00  0.00    +0.000 A 
ATOM     14  C   UNL     1       5.854   3.499  13.635  0.00  0.00    +0.000 A 
ENDBRANCH   8   9
ENDBRANCH   5   8
ENDBRANCH   1   2
BRANCH   1  15
ATOM     15  C   UNL     1       2.090   5.141  19.514  0.00  0.00    +0.000 C 
BRANCH  15  16
ATOM     16  O   UNL     1       1.423   3.878  19.595  0.00  0.00    +0.000 OA
ATOM     17  H   UNL     1       0.469   4.073  19.633  0.00  0.00    +0.000 HD
ENDBRANCH  15  16
BRANCH  15  18
ATOM     18  C   UNL     1       1.485   6.097  20.560  0.00  0.00    +0.000 C 
BRANCH  18  19
ATOM     19  O   UNL     1       2.196   7.342  20.555  0.00  0.00    +0.000 OA
BRANCH  19  20
ATOM     20  C   UNL     1       1.566   8.392  19.921  0.00  0.00    +0.000 A 
ATOM     21  C   UNL     1       1.724   8.660  18.552  0.00  0.00    +0.000 A 
ATOM     22  C   UNL     1       1.039   9.723  17.954  0.00  0.00    +0.000 A 
ATOM     23  C   UNL     1       0.186  10.510  18.718  0.00  0.00    +0.000 A 
ATOM     24  F   UNL     1      -0.466  11.525  18.138  0.00  0.00    +0.000 F 
ATOM     25  C   UNL     1      -0.002  10.253  20.068  0.00  0.00    +0.000 A 
ATOM     26  C   UNL     1       0.683   9.191  20.666  0.00  0.00    +0.000 A 
ATOM     27 CL   UNL     1       0.419   8.904  22.350  0.00  0.00    +0.000 Cl
ENDBRANCH  19  20
ENDBRANCH  18  19
ENDBRANCH  15  18
ENDBRANCH   1  15
TORSDOF 8
ENDMDL
MODEL 3
REMARK VINA RESULT:      -7.3      5.376      7.303
REMARK  Name = 
REMARK  8 active torsions:
REMARK  status: ('A' for Active; 'I' for Inactive)
REMARK    1  A    between atoms: O_1  and  C_2
REMARK    2  A    between atoms: C_2  and  C_3
REMARK    3  A    between atoms: C_2  and  C_13
REMARK    4  A    between atoms: C_3  and  O_4
REMARK    5  A    between atoms: O_4  and  C_5
REMARK    6  A    between atoms: C_13  and  N_14
REMARK    7  A    between atoms: C_17  and  C_18
REMARK    8  A    between atoms: C_18  and  C_19
REMARK                            x       y       z     vdW  Elec       q    Type
REMARK                         _______ _______ _______ _____ _____    ______ ____
ROOT
ATOM      1  C   UNL     1       2.314   1.483  19.085  0.00  0.00    +0.000 C 
ENDROOT
BRANCH   1   2
ATOM      2  N   UNL     1       1.786   2.479  20.052  0.00  0.00    +0.000 NA
ATOM      3  C   UNL     1       2.852   3.036  20.893  0.00  0.00    +0.000 C 
ATOM      4  C   UNL     1       2.338   4.148  21.812  0.00  0.00    +0.000 C 
ATOM      5  C   UNL     1       1.704   5.294  21.018  0.00  0.00    +0.000 C 
ATOM      6  C   UNL     1       0.558   4.691  20.195  0.00  0.00    +0.000 C 
ATOM      7  C   UNL     1       1.010   3.504  19.332  0.00  0.00    +0.000 C 
BRANCH   5   8
ATOM      8  C   UNL     1       2.695   6.055  20.106  0.00  0.00    +0.000 C 
BRANCH   8   9
ATOM      9  C   UNL     1       2.191   7.368  19.554  0.00  0.00    +0.000 A 
ATOM     10  C   UNL     1       1.380   8.200  20.339  0.00  0.00    +0.000 A 
ATOM     11  C   UNL     1       0.949   9.436  19.855  0.00  0.00    +0.000 A 
ATOM     12  C   UNL     1       1.327   9.856  18.582  0.00  0.00    +0.000 A 
ATOM     13  C   UNL     1       2.126   9.033  17.788  0.00  0.00    +0.000 A 
ATOM     14  C   UNL     1       2.557   7.796  18.272  0.00  0.00    +0.000 A 
ENDBRANCH   8   9
ENDBRANCH   5   8
ENDBRANCH   1   2
BRANCH   1  15
ATOM     15  C   UNL     1       3.756   1.703  18.552  0.00  0.00    +0.000 C 
BRANCH  15  16
ATOM     16  O   UNL     1       4.503   0.485  18.618  0.00  0.00    +0.000 OA
ATOM     17  H   UNL     1       4.994   0.418  17.779  0.00  0.00    +0.000 HD
ENDBRANCH  15  16
BRANCH  15  18
ATOM     18  C   UNL     1       3.689   2.172  17.086  0.00  0.00    +0.000 C 
BRANCH  18  19
ATOM     19  O   UNL     1       3.734   3.604  17.027  0.00  0.00    +0.000 OA
BRANCH  19  20
ATOM     20  C   UNL     1       4.884   4.190  17.513  0.00  0.00    +0.000 A 
ATOM     21  C   UNL     1       5.005   4.650  18.833  0.00  0.00    +0.000 A 
ATOM     22  C   UNL     1       6.204   5.212  19.281  0.00  0.00    +0.000 A 
ATOM     23  C   UNL     1       7.288   5.303  18.417  0.00  0.00    +0.000 A 
ATOM     24  F   UNL     1       8.433   5.842  18.853  0.00  0.00    +0.000 F 
ATOM     25  C   UNL     1       7.200   4.838  17.113  0.00  0.00    +0.000 A 
ATOM     26  C   UNL     1       6.000   4.277  16.665  0.00  0.00    +0.000 A 
ATOM     27 CL   UNL     1       5.933   3.708  15.034  0.00  0.00    +0.000 Cl
ENDBRANCH  19  20
ENDBRANCH  18  19
ENDBRANCH  15  18
ENDBRANCH   1  15
TORSDOF 8
ENDMDL
MODEL 4
REMARK VINA RESULT:      -7.3      1.480      2.204
REMARK  Name = 
REMARK  8 active torsions:
REMARK  status: ('A' for Active; 'I' for Inactive)
REMARK    1  A    between atoms: O_1  and  C_2
REMARK    2  A    between atoms: C_2  and  C_3
REMARK    3  A    between atoms: C_2  and  C_13
REMARK    4  A    between atoms: C_3  and  O_4
REMARK    5  A    between atoms: O_4  and  C_5
REMARK    6  A    between atoms: C_13  and  N_14
REMARK    7  A    between atoms: C_17  and  C_18
REMARK    8  A    between atoms: C_18  and  C_19
REMARK                            x       y       z     vdW  Elec       q    Type
REMARK                         _______ _______ _______ _____ _____    ______ ____
ROOT
ATOM      1  C   UNL     1       7.334   7.571  17.137  0.00  0.00    +0.000 C 
ENDROOT
BRANCH   1   2
ATOM      2  N   UNL     1       6.960   6.135  17.177  0.00  0.00    +0.000 NA
ATOM      3  C   UNL     1       6.298   5.781  18.438  0.00  0.00    +0.000 C 
ATOM      4  C   UNL     1       5.803   4.333  18.442  0.00  0.00    +0.000 C 
ATOM      5  C   UNL     1       4.825   4.063  17.295  0.00  0.00    +0.000 C 
ATOM      6  C   UNL     1       5.564   4.385  15.988  0.00  0.00    +0.000 C 
ATOM      7  C   UNL     1       6.165   5.798  15.983  0.00  0.00    +0.000 C 
BRANCH   5   8
ATOM      8  C   UNL     1       3.503   4.861  17.390  0.00  0.00    +0.000 C 
BRANCH   8   9
ATOM      9  C   UNL     1       2.532   4.382  18.444  0.00  0.00    +0.000 A 
ATOM     10  C   UNL     1       1.687   3.294  18.184  0.00  0.00    +0.000 A 
ATOM     11  C   UNL     1       0.821   2.814  19.169  0.00  0.00    +0.000 A 
ATOM     12  C   UNL     1       0.792   3.415  20.424  0.00  0.00    +0.000 A 
ATOM     13  C   UNL     1       1.622   4.504  20.692  0.00  0.00    +0.000 A 
ATOM     14  C   UNL     1       2.488   4.985  19.707  0.00  0.00    +0.000 A 
ENDBRANCH   8   9
ENDBRANCH   5   8
ENDBRANCH   1   2
BRANCH   1  15
ATOM     15  C   UNL     1       7.785   8.227  18.471  0.00  0.00    +0.000 C 
BRANCH  15  16
ATOM     16  O   UNL     1       8.771   7.417  19.117  0.00  0.00    +0.000 OA
ATOM     17  H   UNL     1       9.383   7.121  18.419  0.00  0.00    +0.000 HD
ENDBRANCH  15  16
BRANCH  15  18
ATOM     18  C   UNL     1       8.388   9.614  18.176  0.00  0.00    +0.000 C 
BRANCH  18  19
ATOM     19  O   UNL     1       9.627   9.770  18.881  0.00  0.00    +0.000 OA
BRANCH  19  20
ATOM     20  C   UNL     1       9.757  10.927  19.619  0.00  0.00    +0.000 A 
ATOM     21  C   UNL     1       9.198  11.084  20.897  0.00  0.00    +0.000 A 
ATOM     22  C   UNL     1       9.386  12.270  21.612  0.00  0.00    +0.000 A 
ATOM     23  C   UNL     1      10.141  13.297  21.059  0.00  0.00    +0.000 A 
ATOM     24  F   UNL     1      10.316  14.430  21.750  0.00  0.00    +0.000 F 
ATOM     25  C   UNL     1      10.720  13.159  19.806  0.00  0.00    +0.000 A 
ATOM     26  C   UNL     1      10.532  11.973  19.090  0.00  0.00    +0.000 A 
ATOM     27 CL   UNL     1      11.272  11.842  17.533  0.00  0.00    +0.000 Cl
ENDBRANCH  19  20
ENDBRANCH  18  19
ENDBRANCH  15  18
ENDBRANCH   1  15
TORSDOF 8
ENDMDL
MODEL 5
REMARK VINA RESULT:      -7.3      1.310      1.895
REMARK  Name = 
REMARK  8 active torsions:
REMARK  status: ('A' for Active; 'I' for Inactive)
REMARK    1  A    between atoms: O_1  and  C_2
REMARK    2  A    between atoms: C_2  and  C_3
REMARK    3  A    between atoms: C_2  and  C_13
REMARK    4  A    between atoms: C_3  and  O_4
REMARK    5  A    between atoms: O_4  and  C_5
REMARK    6  A    between atoms: C_13  and  N_14
REMARK    7  A    between atoms: C_17  and  C_18
REMARK    8  A    between atoms: C_18  and  C_19
REMARK                            x       y       z     vdW  Elec       q    Type
REMARK                         _______ _______ _______ _____ _____    ______ ____
ROOT
ATOM      1  C   UNL     1       7.767   7.405  16.831  0.00  0.00    +0.000 C 
ENDROOT
BRANCH   1   2
ATOM      2  N   UNL     1       6.543   6.688  16.394  0.00  0.00    +0.000 NA
ATOM      3  C   UNL     1       6.751   5.237  16.343  0.00  0.00    +0.000 C 
ATOM      4  C   UNL     1       5.463   4.481  16.008  0.00  0.00    +0.000 C 
ATOM      5  C   UNL     1       4.353   4.771  17.022  0.00  0.00    +0.000 C 
ATOM      6  C   UNL     1       4.117   6.288  17.010  0.00  0.00    +0.000 C 
ATOM      7  C   UNL     1       5.406   7.088  17.243  0.00  0.00    +0.000 C 
BRANCH   5   8
ATOM      8  C   UNL     1       4.661   4.274  18.455  0.00  0.00    +0.000 C 
BRANCH   8   9
ATOM      9  C   UNL     1       3.457   3.872  19.274  0.00  0.00    +0.000 A 
ATOM     10  C   UNL     1       2.807   2.654  19.025  0.00  0.00    +0.000 A 
ATOM     11  C   UNL     1       1.723   2.252  19.808  0.00  0.00    +0.000 A 
ATOM     12  C   UNL     1       1.279   3.062  20.850  0.00  0.00    +0.000 A 
ATOM     13  C   UNL     1       1.912   4.279  21.102  0.00  0.00    +0.000 A 
ATOM     14  C   UNL     1       2.996   4.682  20.318  0.00  0.00    +0.000 A 
ENDBRANCH   8   9
ENDBRANCH   5   8
ENDBRANCH   1   2
BRANCH   1  15
ATOM     15  C   UNL     1       7.757   8.029  18.254  0.00  0.00    +0.000 C 
BRANCH  15  16
ATOM     16  O   UNL     1       8.580   7.264  19.140  0.00  0.00    +0.000 OA
ATOM     17  H   UNL     1       8.958   6.541  18.607  0.00  0.00    +0.000 HD
ENDBRANCH  15  16
BRANCH  15  18
ATOM     18  C   UNL     1       8.301   9.468  18.179  0.00  0.00    +0.000 C 
BRANCH  18  19
ATOM     19  O   UNL     1       9.493   9.583  18.969  0.00  0.00    +0.000 OA
BRANCH  19  20
ATOM     20  C   UNL     1       9.630  10.754  19.684  0.00  0.00    +0.000 A 
ATOM     21  C   UNL     1       9.096  10.928  20.971  0.00  0.00    +0.000 A 
ATOM     22  C   UNL     1       9.289  12.128  21.662  0.00  0.00    +0.000 A 
ATOM     23  C   UNL     1      10.025  13.151  21.076  0.00  0.00    +0.000 A 
ATOM     24  F   UNL     1      10.205  14.297  21.744  0.00  0.00    +0.000 F 
ATOM     25  C   UNL     1      10.578  12.996  19.813  0.00  0.00    +0.000 A 
ATOM     26  C   UNL     1      10.385  11.796  19.122  0.00  0.00    +0.000 A 
ATOM     27 CL   UNL     1      11.093  11.645  17.552  0.00  0.00    +0.000 Cl
ENDBRANCH  19  20
ENDBRANCH  18  19
ENDBRANCH  15  18
ENDBRANCH   1  15
TORSDOF 8
ENDMDL
MODEL 6
REMARK VINA RESULT:      -7.3      1.196      1.620
REMARK  Name = 
REMARK  8 active torsions:
REMARK  status: ('A' for Active; 'I' for Inactive)
REMARK    1  A    between atoms: O_1  and  C_2
REMARK    2  A    between atoms: C_2  and  C_3
REMARK    3  A    between atoms: C_2  and  C_13
REMARK    4  A    between atoms: C_3  and  O_4
REMARK    5  A    between atoms: O_4  and  C_5
REMARK    6  A    between atoms: C_13  and  N_14
REMARK    7  A    between atoms: C_17  and  C_18
REMARK    8  A    between atoms: C_18  and  C_19
REMARK                            x       y       z     vdW  Elec       q    Type
REMARK                         _______ _______ _______ _____ _____    ______ ____
ROOT
ATOM      1  C   UNL     1       7.685   6.632  16.944  0.00  0.00    +0.000 C 
ENDROOT
BRANCH   1   2
ATOM      2  N   UNL     1       6.335   6.218  16.484  0.00  0.00    +0.000 NA
ATOM      3  C   UNL     1       6.308   4.808  16.078  0.00  0.00    +0.000 C 
ATOM      4  C   UNL     1       4.897   4.340  15.716  0.00  0.00    +0.000 C 
ATOM      5  C   UNL     1       3.920   4.523  16.881  0.00  0.00    +0.000 C 
ATOM      6  C   UNL     1       3.926   6.014  17.244  0.00  0.00    +0.000 C 
ATOM      7  C   UNL     1       5.338   6.550  17.518  0.00  0.00    +0.000 C 
BRANCH   5   8
ATOM      8  C   UNL     1       4.245   3.654  18.120  0.00  0.00    +0.000 C 
BRANCH   8   9
ATOM      9  C   UNL     1       3.109   3.473  19.100  0.00  0.00    +0.000 A 
ATOM     10  C   UNL     1       2.022   2.647  18.778  0.00  0.00    +0.000 A 
ATOM     11  C   UNL     1       0.992   2.436  19.696  0.00  0.00    +0.000 A 
ATOM     12  C   UNL     1       1.039   3.046  20.947  0.00  0.00    +0.000 A 
ATOM     13  C   UNL     1       2.110   3.876  21.276  0.00  0.00    +0.000 A 
ATOM     14  C   UNL     1       3.140   4.089  20.357  0.00  0.00    +0.000 A 
ENDBRANCH   8   9
ENDBRANCH   5   8
ENDBRANCH   1   2
BRANCH   1  15
ATOM     15  C   UNL     1       7.758   7.703  18.066  0.00  0.00    +0.000 C 
BRANCH  15  16
ATOM     16  O   UNL     1       8.591   7.249  19.136  0.00  0.00    +0.000 OA
ATOM     17  H   UNL     1       8.893   6.356  18.888  0.00  0.00    +0.000 HD
ENDBRANCH  15  16
BRANCH  15  18
ATOM     18  C   UNL     1       8.347   9.004  17.487  0.00  0.00    +0.000 C 
BRANCH  18  19
ATOM     19  O   UNL     1       7.998  10.115  18.324  0.00  0.00    +0.000 OA
BRANCH  19  20
ATOM     20  C   UNL     1       9.011  11.013  18.584  0.00  0.00    +0.000 A 
ATOM     21  C   UNL     1      10.131  10.694  19.368  0.00  0.00    +0.000 A 
ATOM     22  C   UNL     1      11.142  11.636  19.576  0.00  0.00    +0.000 A 
ATOM     23  C   UNL     1      11.044  12.894  18.994  0.00  0.00    +0.000 A 
ATOM     24  F   UNL     1      12.017  13.790  19.198  0.00  0.00    +0.000 F 
ATOM     25  C   UNL     1       9.957  13.228  18.200  0.00  0.00    +0.000 A 
ATOM     26  C   UNL     1       8.945  12.285  17.991  0.00  0.00    +0.000 A 
ATOM     27 CL   UNL     1       7.608  12.741  16.994  0.00  0.00    +0.000 Cl
ENDBRANCH  19  20
ENDBRANCH  18  19
ENDBRANCH  15  18
ENDBRANCH   1  15
TORSDOF 8
ENDMDL
MODEL 7
REMARK VINA RESULT:      -7.1      5.513      8.136
REMARK  Name = 
REMARK  8 active torsions:
REMARK  status: ('A' for Active; 'I' for Inactive)
REMARK    1  A    between atoms: O_1  and  C_2
REMARK    2  A    between atoms: C_2  and  C_3
REMARK    3  A    between atoms: C_2  and  C_13
REMARK    4  A    between atoms: C_3  and  O_4
REMARK    5  A    between atoms: O_4  and  C_5
REMARK    6  A    between atoms: C_13  and  N_14
REMARK    7  A    between atoms: C_17  and  C_18
REMARK    8  A    between atoms: C_18  and  C_19
REMARK                            x       y       z     vdW  Elec       q    Type
REMARK                         _______ _______ _______ _____ _____    ______ ____
ROOT
ATOM      1  C   UNL     1       3.391   5.032  19.671  0.00  0.00    +0.000 C 
ENDROOT
BRANCH   1   2
ATOM      2  N   UNL     1       4.495   5.714  18.949  0.00  0.00    +0.000 NA
ATOM      3  C   UNL     1       5.738   4.935  18.997  0.00  0.00    +0.000 C 
ATOM      4  C   UNL     1       6.849   5.570  18.157  0.00  0.00    +0.000 C 
ATOM      5  C   UNL     1       6.435   5.725  16.690  0.00  0.00    +0.000 C 
ATOM      6  C   UNL     1       5.168   6.592  16.669  0.00  0.00    +0.000 C 
ATOM      7  C   UNL     1       4.061   6.043  17.580  0.00  0.00    +0.000 C 
BRANCH   5   8
ATOM      8  C   UNL     1       6.196   4.384  15.957  0.00  0.00    +0.000 C 
BRANCH   8   9
ATOM      9  C   UNL     1       6.583   4.367  14.496  0.00  0.00    +0.000 A 
ATOM     10  C   UNL     1       5.977   3.460  13.615  0.00  0.00    +0.000 A 
ATOM     11  C   UNL     1       6.292   3.470  12.255  0.00  0.00    +0.000 A 
ATOM     12  C   UNL     1       7.216   4.388  11.761  0.00  0.00    +0.000 A 
ATOM     13  C   UNL     1       7.832   5.289  12.629  0.00  0.00    +0.000 A 
ATOM     14  C   UNL     1       7.517   5.279  13.990  0.00  0.00    +0.000 A 
ENDBRANCH   8   9
ENDBRANCH   5   8
ENDBRANCH   1   2
BRANCH   1  15
ATOM     15  C   UNL     1       2.052   5.806  19.819  0.00  0.00    +0.000 C 
BRANCH  15  16
ATOM     16  O   UNL     1       1.162   5.100  20.688  0.00  0.00    +0.000 OA
ATOM     17  H   UNL     1       0.260   5.345  20.414  0.00  0.00    +0.000 HD
ENDBRANCH  15  16
BRANCH  15  18
ATOM     18  C   UNL     1       2.335   7.199  20.411  0.00  0.00    +0.000 C 
BRANCH  18  19
ATOM     19  O   UNL     1       1.465   8.171  19.814  0.00  0.00    +0.000 OA
BRANCH  19  20
ATOM     20  C   UNL     1       0.804   9.005  20.690  0.00  0.00    +0.000 A 
ATOM     21  C   UNL     1       0.329   8.576  21.940  0.00  0.00    +0.000 A 
ATOM     22  C   UNL     1      -0.310   9.473  22.801  0.00  0.00    +0.000 A 
ATOM     23  C   UNL     1      -0.466  10.801  22.423  0.00  0.00    +0.000 A 
ATOM     24  F   UNL     1      -1.079  11.653  23.253  0.00  0.00    +0.000 F 
ATOM     25  C   UNL     1       0.012  11.254  21.202  0.00  0.00    +0.000 A 
ATOM     26  C   UNL     1       0.651  10.357  20.340  0.00  0.00    +0.000 A 
ATOM     27 CL   UNL     1       1.232  10.963  18.829  0.00  0.00    +0.000 Cl
ENDBRANCH  19  20
ENDBRANCH  18  19
ENDBRANCH  15  18
ENDBRANCH   1  15
TORSDOF 8
ENDMDL
MODEL 8
REMARK VINA RESULT:      -7.1      4.962      7.485
REMARK  Name = 
REMARK  8 active torsions:
REMARK  status: ('A' for Active; 'I' for Inactive)
REMARK    1  A    between atoms: O_1  and  C_2
REMARK    2  A    between atoms: C_2  and  C_3
REMARK    3  A    between atoms: C_2  and  C_13
REMARK    4  A    between atoms: C_3  and  O_4
REMARK    5  A    between atoms: O_4  and  C_5
REMARK    6  A    between atoms: C_13  and  N_14
REMARK    7  A    between atoms: C_17  and  C_18
REMARK    8  A    between atoms: C_18  and  C_19
REMARK                            x       y       z     vdW  Elec       q    Type
REMARK                         _______ _______ _______ _____ _____    ______ ____
ROOT
ATOM      1  C   UNL     1       4.118   4.192  19.692  0.00  0.00    +0.000 C 
ENDROOT
BRANCH   1   2
ATOM      2  N   UNL     1       4.680   5.278  18.850  0.00  0.00    +0.000 NA
ATOM      3  C   UNL     1       6.136   5.385  19.001  0.00  0.00    +0.000 C 
ATOM      4  C   UNL     1       6.740   6.420  18.050  0.00  0.00    +0.000 C 
ATOM      5  C   UNL     1       6.433   6.094  16.585  0.00  0.00    +0.000 C 
ATOM      6  C   UNL     1       4.905   6.048  16.446  0.00  0.00    +0.000 C 
ATOM      7  C   UNL     1       4.248   5.093  17.452  0.00  0.00    +0.000 C 
BRANCH   5   8
ATOM      8  C   UNL     1       7.072   4.777  16.084  0.00  0.00    +0.000 C 
BRANCH   8   9
ATOM      9  C   UNL     1       7.002   4.551  14.592  0.00  0.00    +0.000 A 
ATOM     10  C   UNL     1       6.103   3.615  14.060  0.00  0.00    +0.000 A 
ATOM     11  C   UNL     1       5.998   3.434  12.680  0.00  0.00    +0.000 A 
ATOM     12  C   UNL     1       6.789   4.188  11.816  0.00  0.00    +0.000 A 
ATOM     13  C   UNL     1       7.693   5.116  12.334  0.00  0.00    +0.000 A 
ATOM     14  C   UNL     1       7.799   5.297  13.714  0.00  0.00    +0.000 A 
ENDBRANCH   8   9
ENDBRANCH   5   8
ENDBRANCH   1   2
BRANCH   1  15
ATOM     15  C   UNL     1       2.632   4.324  20.124  0.00  0.00    +0.000 C 
BRANCH  15  16
ATOM     16  O   UNL     1       2.537   4.481  21.543  0.00  0.00    +0.000 OA
ATOM     17  H   UNL     1       2.862   3.649  21.933  0.00  0.00    +0.000 HD
ENDBRANCH  15  16
BRANCH  15  18
ATOM     18  C   UNL     1       2.012   5.557  19.440  0.00  0.00    +0.000 C 
BRANCH  18  19
ATOM     19  O   UNL     1       2.055   6.683  20.327  0.00  0.00    +0.000 OA
BRANCH  19  20
ATOM     20  C   UNL     1       1.837   7.914  19.747  0.00  0.00    +0.000 A 
ATOM     21  C   UNL     1       2.241   8.222  18.439  0.00  0.00    +0.000 A 
ATOM     22  C   UNL     1       1.969   9.479  17.890  0.00  0.00    +0.000 A 
ATOM     23  C   UNL     1       1.283  10.426  18.641  0.00  0.00    +0.000 A 
ATOM     24  F   UNL     1       1.027  11.627  18.108  0.00  0.00    +0.000 F 
ATOM     25  C   UNL     1       0.856  10.139  19.929  0.00  0.00    +0.000 A 
ATOM     26  C   UNL     1       1.128   8.882  20.478  0.00  0.00    +0.000 A 
ATOM     27 CL   UNL     1       0.577   8.566  22.086  0.00  0.00    +0.000 Cl
ENDBRANCH  19  20
ENDBRANCH  18  19
ENDBRANCH  15  18
ENDBRANCH   1  15
TORSDOF 8
ENDMDL
MODEL 9
REMARK VINA RESULT:      -7.0      5.491      7.433
REMARK  Name = 
REMARK  8 active torsions:
REMARK  status: ('A' for Active; 'I' for Inactive)
REMARK    1  A    between atoms: O_1  and  C_2
REMARK    2  A    between atoms: C_2  and  C_3
REMARK    3  A    between atoms: C_2  and  C_13
REMARK    4  A    between atoms: C_3  and  O_4
REMARK    5  A    between atoms: O_4  and  C_5
REMARK    6  A    between atoms: C_13  and  N_14
REMARK    7  A    between atoms: C_17  and  C_18
REMARK    8  A    between atoms: C_18  and  C_19
REMARK                            x       y       z     vdW  Elec       q    Type
REMARK                         _______ _______ _______ _____ _____    ______ ____
ROOT
ATOM      1  C   UNL     1       5.877   4.285  18.370  0.00  0.00    +0.000 C 
ENDROOT
BRANCH   1   2
ATOM      2  N   UNL     1       4.395   4.355  18.406  0.00  0.00    +0.000 NA
ATOM      3  C   UNL     1       3.879   4.249  19.776  0.00  0.00    +0.000 C 
ATOM      4  C   UNL     1       2.362   4.437  19.837  0.00  0.00    +0.000 C 
ATOM      5  C   UNL     1       1.933   5.793  19.266  0.00  0.00    +0.000 C 
ATOM      6  C   UNL     1       2.435   5.849  17.816  0.00  0.00    +0.000 C 
ATOM      7  C   UNL     1       3.939   5.565  17.700  0.00  0.00    +0.000 C 
BRANCH   5   8
ATOM      8  C   UNL     1       2.447   7.008  20.074  0.00  0.00    +0.000 C 
BRANCH   8   9
ATOM      9  C   UNL     1       1.498   8.182  20.152  0.00  0.00    +0.000 A 
ATOM     10  C   UNL     1       0.744   8.405  21.313  0.00  0.00    +0.000 A 
ATOM     11  C   UNL     1      -0.099   9.514  21.412  0.00  0.00    +0.000 A 
ATOM     12  C   UNL     1      -0.195  10.412  20.353  0.00  0.00    +0.000 A 
ATOM     13  C   UNL     1       0.543  10.196  19.189  0.00  0.00    +0.000 A 
ATOM     14  C   UNL     1       1.385   9.086  19.089  0.00  0.00    +0.000 A 
ENDBRANCH   8   9
ENDBRANCH   5   8
ENDBRANCH   1   2
BRANCH   1  15
ATOM     15  C   UNL     1       6.634   5.516  17.799  0.00  0.00    +0.000 C 
BRANCH  15  16
ATOM     16  O   UNL     1       7.388   6.160  18.830  0.00  0.00    +0.000 OA
ATOM     17  H   UNL     1       6.777   6.777  19.272  0.00  0.00    +0.000 HD
ENDBRANCH  15  16
BRANCH  15  18
ATOM     18  C   UNL     1       7.595   5.050  16.689  0.00  0.00    +0.000 C 
BRANCH  18  19
ATOM     19  O   UNL     1       7.284   5.718  15.459  0.00  0.00    +0.000 OA
BRANCH  19  20
ATOM     20  C   UNL     1       6.794   4.920  14.448  0.00  0.00    +0.000 A 
ATOM     21  C   UNL     1       5.632   4.144  14.586  0.00  0.00    +0.000 A 
ATOM     22  C   UNL     1       5.163   3.374  13.517  0.00  0.00    +0.000 A 
ATOM     23  C   UNL     1       5.845   3.386  12.307  0.00  0.00    +0.000 A 
ATOM     24  F   UNL     1       5.390   2.645  11.289  0.00  0.00    +0.000 F 
ATOM     25  C   UNL     1       6.985   4.159  12.140  0.00  0.00    +0.000 A 
ATOM     26  C   UNL     1       7.454   4.929  13.208  0.00  0.00    +0.000 A 
ATOM     27 CL   UNL     1       8.876   5.879  12.957  0.00  0.00    +0.000 Cl
ENDBRANCH  19  20
ENDBRANCH  18  19
ENDBRANCH  15  18
ENDBRANCH   1  15
TORSDOF 8
ENDMDL
