MODEL 1
REMARK VINA RESULT:      -7.9      0.000      0.000
REMARK  Name = 
REMARK  1 active torsions:
REMARK  status: ('A' for Active; 'I' for Inactive)
REMARK    1  A    between atoms: N_2  and  C_4
REMARK                            x       y       z     vdW  Elec       q    Type
REMARK                         _______ _______ _______ _____ _____    ______ ____
ROOT
ATOM      1  C   UNL     1       6.162   4.121  14.160  0.00  0.00    +0.000 A 
ATOM      2  C   UNL     1       7.205   4.886  14.684  0.00  0.00    +0.000 A 
ATOM      3  C   UNL     1       7.214   5.165  16.049  0.00  0.00    +0.000 A 
ATOM      4  C   UNL     1       6.212   4.694  16.887  0.00  0.00    +0.000 A 
ATOM      5  N   UNL     1       6.273   4.998  18.185  0.00  0.00    +0.000 NA
ATOM      6  C   UNL     1       5.266   4.509  18.950  0.00  0.00    +0.000 A 
ATOM      7  C   UNL     1       4.203   3.738  18.476  0.00  0.00    +0.000 A 
ATOM      8  N   UNL     1       3.206   3.280  19.308  0.00  0.00    +0.000 N 
ATOM      9  C   UNL     1       2.784   4.001  20.514  0.00  0.00    +0.000 C 
ATOM     10  C   UNL     1       1.277   4.338  20.446  0.00  0.00    +0.000 C 
ATOM     11  N   UNL     1       0.429   3.160  20.194  0.00  0.00    +0.000 NA
ATOM     12  C   UNL     1       0.871   2.507  18.944  0.00  0.00    +0.000 C 
ATOM     13  C   UNL     1       2.370   2.133  18.934  0.00  0.00    +0.000 C 
ATOM     14  N   UNL     1       4.173   3.433  17.157  0.00  0.00    +0.000 NA
ATOM     15  C   UNL     1       5.157   3.909  16.360  0.00  0.00    +0.000 A 
ATOM     16  C   UNL     1       5.146   3.636  14.995  0.00  0.00    +0.000 A 
ATOM     17  H   UNL     1      -0.538   3.463  20.085  0.00  0.00    +0.000 HD
ENDROOT
BRANCH   1  19
ATOM     18  O   UNL     1       7.161   4.061  12.068  0.00  0.00    +0.000 OA
ATOM     19  N   UNL     1       6.135   3.828  12.722  0.00  0.00    +0.000 N 
ATOM     20  O   UNL     1       5.087   3.368  12.248  0.00  0.00    +0.000 OA
ENDBRANCH   1  19
TORSDOF 1
ENDMDL
MODEL 2
REMARK VINA RESULT:      -7.7      0.873      1.162
REMARK  Name = 
REMARK  1 active torsions:
REMARK  status: ('A' for Active; 'I' for Inactive)
REMARK    1  A    between atoms: N_2  and  C_4
REMARK                            x       y       z     vdW  Elec       q    Type
REMARK                         _______ _______ _______ _____ _____    ______ ____
ROOT
ATOM      1  C   UNL     1       6.699   4.697  15.060  0.00  0.00    +0.000 A 
ATOM      2  C   UNL     1       7.615   5.397  15.847  0.00  0.00    +0.000 A 
ATOM      3  C   UNL     1       7.399   5.474  17.221  0.00  0.00    +0.000 A 
ATOM      4  C   UNL     1       6.300   4.867  17.813  0.00  0.00    +0.000 A 
ATOM      5  N   UNL     1       6.145   4.980  19.134  0.00  0.00    +0.000 NA
ATOM      6  C   UNL     1       5.053   4.366  19.651  0.00  0.00    +0.000 A 
ATOM      7  C   UNL     1       4.108   3.653  18.909  0.00  0.00    +0.000 A 
ATOM      8  N   UNL     1       3.014   3.060  19.498  0.00  0.00    +0.000 N 
ATOM      9  C   UNL     1       2.380   3.591  20.710  0.00  0.00    +0.000 C 
ATOM     10  C   UNL     1       0.890   3.906  20.450  0.00  0.00    +0.000 C 
ATOM     11  N   UNL     1       0.140   2.762  19.902  0.00  0.00    +0.000 NA
ATOM     12  C   UNL     1       0.798   2.306  18.660  0.00  0.00    +0.000 C 
ATOM     13  C   UNL     1       2.295   1.964  18.837  0.00  0.00    +0.000 C 
ATOM     14  N   UNL     1       4.297   3.543  17.573  0.00  0.00    +0.000 NA
ATOM     15  C   UNL     1       5.373   4.148  17.019  0.00  0.00    +0.000 A 
ATOM     16  C   UNL     1       5.586   4.076  15.646  0.00  0.00    +0.000 A 
ATOM     17  H   UNL     1      -0.810   3.059  19.684  0.00  0.00    +0.000 HD
ENDROOT
BRANCH   1  19
ATOM     18  O   UNL     1       6.283   3.748  12.986  0.00  0.00    +0.000 OA
ATOM     19  N   UNL     1       6.909   4.615  13.610  0.00  0.00    +0.000 N 
ATOM     20  O   UNL     1       7.702   5.417  13.098  0.00  0.00    +0.000 OA
ENDBRANCH   1  19
TORSDOF 1
ENDMDL
MODEL 3
REMARK VINA RESULT:      -7.3      6.209      8.272
REMARK  Name = 
REMARK  1 active torsions:
REMARK  status: ('A' for Active; 'I' for Inactive)
REMARK    1  A    between atoms: N_2  and  C_4
REMARK                            x       y       z     vdW  Elec       q    Type
REMARK                         _______ _______ _______ _____ _____    ______ ____
ROOT
ATOM      1  C   UNL     1       0.409   9.684  21.684  0.00  0.00    +0.000 A 
ATOM      2  C   UNL     1       0.246  10.671  20.711  0.00  0.00    +0.000 A 
ATOM      3  C   UNL     1       0.766  10.450  19.438  0.00  0.00    +0.000 A 
ATOM      4  C   UNL     1       1.434   9.274  19.125  0.00  0.00    +0.000 A 
ATOM      5  N   UNL     1       1.914   9.122  17.889  0.00  0.00    +0.000 NA
ATOM      6  C   UNL     1       2.554   7.953  17.647  0.00  0.00    +0.000 A 
ATOM      7  C   UNL     1       2.742   6.934  18.584  0.00  0.00    +0.000 A 
ATOM      8  N   UNL     1       3.413   5.772  18.274  0.00  0.00    +0.000 N 
ATOM      9  C   UNL     1       4.485   5.716  17.274  0.00  0.00    +0.000 C 
ATOM     10  C   UNL     1       5.792   5.190  17.908  0.00  0.00    +0.000 C 
ATOM     11  N   UNL     1       5.625   3.899  18.597  0.00  0.00    +0.000 NA
ATOM     12  C   UNL     1       4.569   4.032  19.623  0.00  0.00    +0.000 C 
ATOM     13  C   UNL     1       3.224   4.550  19.066  0.00  0.00    +0.000 C 
ATOM     14  N   UNL     1       2.233   7.108  19.827  0.00  0.00    +0.000 NA
ATOM     15  C   UNL     1       1.593   8.265  20.109  0.00  0.00    +0.000 A 
ATOM     16  C   UNL     1       1.077   8.489  21.382  0.00  0.00    +0.000 A 
ATOM     17  H   UNL     1       6.501   3.650  19.055  0.00  0.00    +0.000 HD
ENDROOT
BRANCH   1  19
ATOM     18  O   UNL     1       0.554   9.518  23.993  0.00  0.00    +0.000 OA
ATOM     19  N   UNL     1      -0.126   9.906  23.033  0.00  0.00    +0.000 N 
ATOM     20  O   UNL     1      -1.227  10.466  23.130  0.00  0.00    +0.000 OA
ENDBRANCH   1  19
TORSDOF 1
ENDMDL
MODEL 4
REMARK VINA RESULT:      -6.8      1.615      2.403
REMARK  Name = 
REMARK  1 active torsions:
REMARK  status: ('A' for Active; 'I' for Inactive)
REMARK    1  A    between atoms: N_2  and  C_4
REMARK                            x       y       z     vdW  Elec       q    Type
REMARK                         _______ _______ _______ _____ _____    ______ ____
ROOT
ATOM      1  C   UNL     1       6.068   3.307  12.594  0.00  0.00    +0.000 A 
ATOM      2  C   UNL     1       7.073   4.253  12.387  0.00  0.00    +0.000 A 
ATOM      3  C   UNL     1       7.471   5.054  13.455  0.00  0.00    +0.000 A 
ATOM      4  C   UNL     1       6.893   4.923  14.709  0.00  0.00    +0.000 A 
ATOM      5  N   UNL     1       7.314   5.722  15.692  0.00  0.00    +0.000 NA
ATOM      6  C   UNL     1       6.710   5.544  16.892  0.00  0.00    +0.000 A 
ATOM      7  C   UNL     1       5.703   4.613  17.152  0.00  0.00    +0.000 A 
ATOM      8  N   UNL     1       5.124   4.491  18.396  0.00  0.00    +0.000 N 
ATOM      9  C   UNL     1       4.994   5.619  19.324  0.00  0.00    +0.000 C 
ATOM     10  C   UNL     1       3.511   5.848  19.695  0.00  0.00    +0.000 C 
ATOM     11  N   UNL     1       2.848   4.639  20.213  0.00  0.00    +0.000 NA
ATOM     12  C   UNL     1       2.971   3.556  19.215  0.00  0.00    +0.000 C 
ATOM     13  C   UNL     1       4.428   3.261  18.794  0.00  0.00    +0.000 C 
ATOM     14  N   UNL     1       5.304   3.805  16.141  0.00  0.00    +0.000 NA
ATOM     15  C   UNL     1       5.879   3.956  14.926  0.00  0.00    +0.000 A 
ATOM     16  C   UNL     1       5.478   3.160  13.857  0.00  0.00    +0.000 A 
ATOM     17  H   UNL     1       1.860   4.839  20.364  0.00  0.00    +0.000 HD
ENDROOT
BRANCH   1  19
ATOM     18  O   UNL     1       4.483   2.628  11.044  0.00  0.00    +0.000 OA
ATOM     19  N   UNL     1       5.632   2.462  11.475  0.00  0.00    +0.000 N 
ATOM     20  O   UNL     1       6.437   1.632  11.033  0.00  0.00    +0.000 OA
ENDBRANCH   1  19
TORSDOF 1
ENDMDL
MODEL 5
REMARK VINA RESULT:      -6.6      5.545      7.207
REMARK  Name = 
REMARK  1 active torsions:
REMARK  status: ('A' for Active; 'I' for Inactive)
REMARK    1  A    between atoms: N_2  and  C_4
REMARK                            x       y       z     vdW  Elec       q    Type
REMARK                         _______ _______ _______ _____ _____    ______ ____
ROOT
ATOM      1  C   UNL     1       2.591   3.946  20.554  0.00  0.00    +0.000 A 
ATOM      2  C   UNL     1       3.151   3.782  19.286  0.00  0.00    +0.000 A 
ATOM      3  C   UNL     1       3.176   4.871  18.417  0.00  0.00    +0.000 A 
ATOM      4  C   UNL     1       2.662   6.104  18.793  0.00  0.00    +0.000 A 
ATOM      5  N   UNL     1       2.712   7.109  17.915  0.00  0.00    +0.000 NA
ATOM      6  C   UNL     1       2.194   8.287  18.342  0.00  0.00    +0.000 A 
ATOM      7  C   UNL     1       1.626   8.503  19.598  0.00  0.00    +0.000 A 
ATOM      8  N   UNL     1       1.108   9.726  19.965  0.00  0.00    +0.000 N 
ATOM      9  C   UNL     1       0.523  10.662  18.999  0.00  0.00    +0.000 C 
ATOM     10  C   UNL     1      -0.940  10.986  19.375  0.00  0.00    +0.000 C 
ATOM     11  N   UNL     1      -1.091  11.469  20.759  0.00  0.00    +0.000 NA
ATOM     12  C   UNL     1      -0.529  10.463  21.684  0.00  0.00    +0.000 C 
ATOM     13  C   UNL     1       0.938  10.087  21.377  0.00  0.00    +0.000 C 
ATOM     14  N   UNL     1       1.600   7.471  20.475  0.00  0.00    +0.000 NA
ATOM     15  C   UNL     1       2.102   6.277  20.083  0.00  0.00    +0.000 A 
ATOM     16  C   UNL     1       2.072   5.187  20.948  0.00  0.00    +0.000 A 
ATOM     17  H   UNL     1      -2.082  11.589  20.964  0.00  0.00    +0.000 HD
ENDROOT
BRANCH   1  19
ATOM     18  O   UNL     1       3.577   2.126  21.599  0.00  0.00    +0.000 OA
ATOM     19  N   UNL     1       2.548   2.804  21.476  0.00  0.00    +0.000 N 
ATOM     20  O   UNL     1       1.485   2.586  22.072  0.00  0.00    +0.000 OA
ENDBRANCH   1  19
TORSDOF 1
ENDMDL
MODEL 6
REMARK VINA RESULT:      -6.6      4.260      5.187
REMARK  Name = 
REMARK  1 active torsions:
REMARK  status: ('A' for Active; 'I' for Inactive)
REMARK    1  A    between atoms: N_2  and  C_4
REMARK                            x       y       z     vdW  Elec       q    Type
REMARK                         _______ _______ _______ _____ _____    ______ ____
ROOT
ATOM      1  C   UNL     1       5.828   5.289  17.232  0.00  0.00    +0.000 A 
ATOM      2  C   UNL     1       5.662   4.239  18.137  0.00  0.00    +0.000 A 
ATOM      3  C   UNL     1       4.647   4.326  19.087  0.00  0.00    +0.000 A 
ATOM      4  C   UNL     1       3.804   5.428  19.143  0.00  0.00    +0.000 A 
ATOM      5  N   UNL     1       2.853   5.456  20.079  0.00  0.00    +0.000 NA
ATOM      6  C   UNL     1       2.064   6.558  20.081  0.00  0.00    +0.000 A 
ATOM      7  C   UNL     1       2.187   7.633  19.199  0.00  0.00    +0.000 A 
ATOM      8  N   UNL     1       1.356   8.729  19.263  0.00  0.00    +0.000 N 
ATOM      9  C   UNL     1       0.753   9.196  20.516  0.00  0.00    +0.000 C 
ATOM     10  C   UNL     1       1.154  10.661  20.798  0.00  0.00    +0.000 C 
ATOM     11  N   UNL     1       0.854  11.572  19.679  0.00  0.00    +0.000 NA
ATOM     12  C   UNL     1       1.528  11.076  18.461  0.00  0.00    +0.000 C 
ATOM     13  C   UNL     1       1.174   9.614  18.106  0.00  0.00    +0.000 C 
ATOM     14  N   UNL     1       3.152   7.573  18.250  0.00  0.00    +0.000 NA
ATOM     15  C   UNL     1       3.964   6.491  18.220  0.00  0.00    +0.000 A 
ATOM     16  C   UNL     1       4.982   6.406  17.275  0.00  0.00    +0.000 A 
ATOM     17  H   UNL     1       1.212  12.500  19.900  0.00  0.00    +0.000 HD
ENDROOT
BRANCH   1  19
ATOM     18  O   UNL     1       6.754   5.860  15.184  0.00  0.00    +0.000 OA
ATOM     19  N   UNL     1       6.899   5.215  16.231  0.00  0.00    +0.000 N 
ATOM     20  O   UNL     1       7.883   4.509  16.493  0.00  0.00    +0.000 OA
ENDBRANCH   1  19
TORSDOF 1
ENDMDL
MODEL 7
REMARK VINA RESULT:      -6.5      4.557      5.716
REMARK  Name = 
REMARK  1 active torsions:
REMARK  status: ('A' for Active; 'I' for Inactive)
REMARK    1  A    between atoms: N_2  and  C_4
REMARK                            x       y       z     vdW  Elec       q    Type
REMARK                         _______ _______ _______ _____ _____    ______ ____
ROOT
ATOM      1  C   UNL     1       3.926   3.512  18.761  0.00  0.00    +0.000 A 
ATOM      2  C   UNL     1       4.500   3.829  17.529  0.00  0.00    +0.000 A 
ATOM      3  C   UNL     1       4.352   5.122  17.033  0.00  0.00    +0.000 A 
ATOM      4  C   UNL     1       3.652   6.090  17.740  0.00  0.00    +0.000 A 
ATOM      5  N   UNL     1       3.541   7.311  17.210  0.00  0.00    +0.000 NA
ATOM      6  C   UNL     1       2.847   8.210  17.949  0.00  0.00    +0.000 A 
ATOM      7  C   UNL     1       2.255   7.944  19.186  0.00  0.00    +0.000 A 
ATOM      8  N   UNL     1       1.554   8.904  19.881  0.00  0.00    +0.000 N 
ATOM      9  C   UNL     1       0.826   9.991  19.218  0.00  0.00    +0.000 C 
ATOM     10  C   UNL     1      -0.669   9.961  19.609  0.00  0.00    +0.000 C 
ATOM     11  N   UNL     1      -0.889   9.970  21.065  0.00  0.00    +0.000 NA
ATOM     12  C   UNL     1      -0.173   8.826  21.668  0.00  0.00    +0.000 C 
ATOM     13  C   UNL     1       1.334   8.787  21.328  0.00  0.00    +0.000 C 
ATOM     14  N   UNL     1       2.395   6.701  19.707  0.00  0.00    +0.000 NA
ATOM     15  C   UNL     1       3.076   5.774  18.996  0.00  0.00    +0.000 A 
ATOM     16  C   UNL     1       3.220   4.481  19.488  0.00  0.00    +0.000 A 
ATOM     17  H   UNL     1      -1.886   9.872  21.253  0.00  0.00    +0.000 HD
ENDROOT
BRANCH   1  19
ATOM     18  O   UNL     1       3.435   1.246  18.729  0.00  0.00    +0.000 OA
ATOM     19  N   UNL     1       4.066   2.150  19.292  0.00  0.00    +0.000 N 
ATOM     20  O   UNL     1       4.804   1.989  20.274  0.00  0.00    +0.000 OA
ENDBRANCH   1  19
TORSDOF 1
ENDMDL
MODEL 8
REMARK VINA RESULT:      -6.4      5.077      6.336
REMARK  Name = 
REMARK  1 active torsions:
REMARK  status: ('A' for Active; 'I' for Inactive)
REMARK    1  A    between atoms: N_2  and  C_4
REMARK                            x       y       z     vdW  Elec       q    Type
REMARK                         _______ _______ _______ _____ _____    ______ ____
ROOT
ATOM      1  C   UNL     1       3.715   3.903  19.626  0.00  0.00    +0.000 A 
ATOM      2  C   UNL     1       4.354   3.944  18.386  0.00  0.00    +0.000 A 
ATOM      3  C   UNL     1       4.246   5.098  17.613  0.00  0.00    +0.000 A 
ATOM      4  C   UNL     1       3.525   6.198  18.056  0.00  0.00    +0.000 A 
ATOM      5  N   UNL     1       3.455   7.273  17.268  0.00  0.00    +0.000 NA
ATOM      6  C   UNL     1       2.736   8.313  17.757  0.00  0.00    +0.000 A 
ATOM      7  C   UNL     1       2.080   8.323  18.990  0.00  0.00    +0.000 A 
ATOM      8  N   UNL     1       1.357   9.412  19.423  0.00  0.00    +0.000 N 
ATOM      9  C   UNL     1       0.676  10.330  18.503  0.00  0.00    +0.000 C 
ATOM     10  C   UNL     1      -0.836  10.388  18.814  0.00  0.00    +0.000 C 
ATOM     11  N   UNL     1      -1.128  10.714  20.221  0.00  0.00    +0.000 NA
ATOM     12  C   UNL     1      -0.457   9.728  21.094  0.00  0.00    +0.000 C 
ATOM     13  C   UNL     1       1.064   9.614  20.847  0.00  0.00    +0.000 C 
ATOM     14  N   UNL     1       2.179   7.224  19.776  0.00  0.00    +0.000 NA
ATOM     15  C   UNL     1       2.883   6.163  19.319  0.00  0.00    +0.000 A 
ATOM     16  C   UNL     1       2.986   5.008  20.088  0.00  0.00    +0.000 A 
ATOM     17  H   UNL     1      -2.134  10.660  20.374  0.00  0.00    +0.000 HD
ENDROOT
BRANCH   1  19
ATOM     18  O   UNL     1       4.793   1.955  20.273  0.00  0.00    +0.000 OA
ATOM     19  N   UNL     1       3.812   2.690  20.447  0.00  0.00    +0.000 N 
ATOM     20  O   UNL     1       2.905   2.474  21.262  0.00  0.00    +0.000 OA
ENDBRANCH   1  19
TORSDOF 1
ENDMDL
MODEL 9
REMARK VINA RESULT:      -6.4      5.808      7.335
REMARK  Name = 
REMARK  1 active torsions:
REMARK  status: ('A' for Active; 'I' for Inactive)
REMARK    1  A    between atoms: N_2  and  C_4
REMARK                            x       y       z     vdW  Elec       q    Type
REMARK                         _______ _______ _______ _____ _____    ______ ____
ROOT
ATOM      1  C   UNL     1       2.704   4.624  20.104  0.00  0.00    +0.000 A 
ATOM      2  C   UNL     1       3.218   4.571  18.808  0.00  0.00    +0.000 A 
ATOM      3  C   UNL     1       3.145   5.711  18.010  0.00  0.00    +0.000 A 
ATOM      4  C   UNL     1       2.578   6.887  18.483  0.00  0.00    +0.000 A 
ATOM      5  N   UNL     1       2.534   7.945  17.671  0.00  0.00    +0.000 NA
ATOM      6  C   UNL     1       1.969   9.062  18.191  0.00  0.00    +0.000 A 
ATOM      7  C   UNL     1       1.443   9.166  19.481  0.00  0.00    +0.000 A 
ATOM      8  N   UNL     1       0.874  10.331  19.944  0.00  0.00    +0.000 N 
ATOM      9  C   UNL     1       0.196  11.289  19.064  0.00  0.00    +0.000 C 
ATOM     10  C   UNL     1      -1.266  11.503  19.517  0.00  0.00    +0.000 C 
ATOM     11  N   UNL     1      -1.385  11.890  20.933  0.00  0.00    +0.000 NA
ATOM     12  C   UNL     1      -0.727  10.864  21.770  0.00  0.00    +0.000 C 
ATOM     13  C   UNL     1       0.744  10.595  21.383  0.00  0.00    +0.000 C 
ATOM     14  N   UNL     1       1.514   8.082  20.289  0.00  0.00    +0.000 NA
ATOM     15  C   UNL     1       2.065   6.947  19.803  0.00  0.00    +0.000 A 
ATOM     16  C   UNL     1       2.133   5.806  20.597  0.00  0.00    +0.000 A 
ATOM     17  H   UNL     1      -2.371  11.939  21.184  0.00  0.00    +0.000 HD
ENDROOT
BRANCH   1  19
ATOM     18  O   UNL     1       2.192   3.470  22.049  0.00  0.00    +0.000 OA
ATOM     19  N   UNL     1       2.766   3.427  20.953  0.00  0.00    +0.000 N 
ATOM     20  O   UNL     1       3.391   2.449  20.522  0.00  0.00    +0.000 OA
ENDBRANCH   1  19
TORSDOF 1
ENDMDL
