MODEL 1
REMARK VINA RESULT:      -6.4      0.000      0.000
REMARK  Name = 
REMARK  8 active torsions:
REMARK  status: ('A' for Active; 'I' for Inactive)
REMARK    1  A    between atoms: C_1  and  C_2
REMARK    2  A    between atoms: C_2  and  C_3
REMARK    3  A    between atoms: C_3  and  C_4
REMARK    4  A    between atoms: C_11  and  C_12
REMARK    5  A    between atoms: C_17  and  C_18
REMARK    6  A    between atoms: C_23  and  O_24
REMARK    7  A    between atoms: C_28  and  C_29
REMARK    8  A    between atoms: C_28  and  C_30
REMARK                            x       y       z     vdW  Elec       q    Type
REMARK                         _______ _______ _______ _____ _____    ______ ____
ROOT
ATOM      1  C   UNL     1       9.088  15.104  19.434  0.00  0.00    +0.000 C 
ATOM      2  O   UNL     1       8.326  15.528  18.553  0.00  0.00    +0.000 OA
ATOM      3  N   UNL     1       8.574  14.785  20.690  0.00  0.00    +0.000 N 
ATOM      4  C   UNL     1       7.120  14.674  20.815  0.00  0.00    +0.000 C 
ATOM      5  C   UNL     1       6.561  15.662  21.833  0.00  0.00    +0.000 C 
ATOM      6  C   UNL     1       7.349  15.717  23.182  0.00  0.00    +0.000 C 
ATOM      7  C   UNL     1       6.766  16.929  23.955  0.00  0.00    +0.000 C 
ATOM      8  C   UNL     1       7.108  14.375  23.910  0.00  0.00    +0.000 A 
ATOM      9  C   UNL     1       6.114  14.236  24.899  0.00  0.00    +0.000 A 
ATOM     10  C   UNL     1       5.822  12.996  25.469  0.00  0.00    +0.000 A 
ATOM     11  C   UNL     1       6.499  11.861  25.044  0.00  0.00    +0.000 A 
ATOM     12  C   UNL     1       7.516  11.985  24.102  0.00  0.00    +0.000 A 
ATOM     13  C   UNL     1       7.861  13.231  23.551  0.00  0.00    +0.000 A 
ATOM     14  C   UNL     1       9.087  13.330  22.654  0.00  0.00    +0.000 C 
ATOM     15  C   UNL     1       9.319  14.702  21.972  0.00  0.00    +0.000 C 
ATOM     16  C   UNL     1       8.898  15.885  22.909  0.00  0.00    +0.000 C 
ATOM     17  C   UNL     1       9.236  17.238  22.232  0.00  0.00    +0.000 C 
ATOM     18  C   UNL     1       9.728  15.872  24.222  0.00  0.00    +0.000 C 
ENDROOT
BRANCH   1  26
ATOM     19  C   UNL     1      11.437  13.531  17.139  0.00  0.00    +0.000 C 
ATOM     20  O   UNL     1      11.812  13.477  15.966  0.00  0.00    +0.000 OA
ATOM     21  N   UNL     1      10.867  14.677  17.679  0.00  0.00    +0.000 N 
ATOM     22  C   UNL     1      10.670  15.834  16.794  0.00  0.00    +0.000 C 
ATOM     23  C   UNL     1      11.490  17.034  17.252  0.00  0.00    +0.000 C 
ATOM     24  C   UNL     1      11.292  17.324  18.740  0.00  0.00    +0.000 C 
ATOM     25  C   UNL     1      11.504  16.065  19.583  0.00  0.00    +0.000 C 
ATOM     26  C   UNL     1      10.610  14.903  19.128  0.00  0.00    +0.000 C 
BRANCH  19  27
ATOM     27  C   UNL     1      11.577  12.324  18.053  0.00  0.00    +0.000 C 
BRANCH  27  29
ATOM     28  C   UNL     1       9.844  11.126  19.440  0.00  0.00    +0.000 C 
ATOM     29  C   UNL     1      10.324  11.448  18.036  0.00  0.00    +0.000 C 
ENDBRANCH  27  29
ENDBRANCH  19  27
ENDBRANCH   1  26
BRANCH  12  30
ATOM     30  O   UNL     1       8.202  10.874  23.695  0.00  0.00    +0.000 OA
ATOM     31  H   UNL     1       8.514  11.021  22.787  0.00  0.00    +0.000 HD
ENDBRANCH  12  30
TORSDOF 4
ENDMDL
MODEL 2
REMARK VINA RESULT:      -6.4     10.269     12.255
REMARK  Name = 
REMARK  8 active torsions:
REMARK  status: ('A' for Active; 'I' for Inactive)
REMARK    1  A    between atoms: C_1  and  C_2
REMARK    2  A    between atoms: C_2  and  C_3
REMARK    3  A    between atoms: C_3  and  C_4
REMARK    4  A    between atoms: C_11  and  C_12
REMARK    5  A    between atoms: C_17  and  C_18
REMARK    6  A    between atoms: C_23  and  O_24
REMARK    7  A    between atoms: C_28  and  C_29
REMARK    8  A    between atoms: C_28  and  C_30
REMARK                            x       y       z     vdW  Elec       q    Type
REMARK                         _______ _______ _______ _____ _____    ______ ____
ROOT
ATOM      1  C   UNL     1      -2.132  12.302  20.024  0.00  0.00    +0.000 C 
ATOM      2  O   UNL     1      -2.323  12.146  18.808  0.00  0.00    +0.000 OA
ATOM      3  N   UNL     1      -3.147  12.844  20.812  0.00  0.00    +0.000 N 
ATOM      4  C   UNL     1      -4.488  12.916  20.230  0.00  0.00    +0.000 C 
ATOM      5  C   UNL     1      -5.004  14.350  20.170  0.00  0.00    +0.000 C 
ATOM      6  C   UNL     1      -4.797  15.168  21.485  0.00  0.00    +0.000 C 
ATOM      7  C   UNL     1      -5.168  16.631  21.126  0.00  0.00    +0.000 C 
ATOM      8  C   UNL     1      -5.735  14.562  22.555  0.00  0.00    +0.000 A 
ATOM      9  C   UNL     1      -7.004  15.111  22.825  0.00  0.00    +0.000 A 
ATOM     10  C   UNL     1      -7.892  14.492  23.707  0.00  0.00    +0.000 A 
ATOM     11  C   UNL     1      -7.541  13.297  24.319  0.00  0.00    +0.000 A 
ATOM     12  C   UNL     1      -6.274  12.764  24.100  0.00  0.00    +0.000 A 
ATOM     13  C   UNL     1      -5.346  13.395  23.256  0.00  0.00    +0.000 A 
ATOM     14  C   UNL     1      -3.923  12.857  23.186  0.00  0.00    +0.000 C 
ATOM     15  C   UNL     1      -3.001  13.515  22.129  0.00  0.00    +0.000 C 
ATOM     16  C   UNL     1      -3.301  15.046  21.981  0.00  0.00    +0.000 C 
ATOM     17  C   UNL     1      -2.295  15.686  20.990  0.00  0.00    +0.000 C 
ATOM     18  C   UNL     1      -3.069  15.787  23.327  0.00  0.00    +0.000 C 
ENDROOT
BRANCH   1  26
ATOM     19  C   UNL     1       0.516   9.808  19.892  0.00  0.00    +0.000 C 
ATOM     20  O   UNL     1       1.386   9.304  19.179  0.00  0.00    +0.000 OA
ATOM     21  N   UNL     1       0.087  11.117  19.716  0.00  0.00    +0.000 N 
ATOM     22  C   UNL     1       0.668  11.892  18.610  0.00  0.00    +0.000 C 
ATOM     23  C   UNL     1       1.446  13.098  19.121  0.00  0.00    +0.000 C 
ATOM     24  C   UNL     1       0.632  13.919  20.122  0.00  0.00    +0.000 C 
ATOM     25  C   UNL     1       0.058  13.033  21.229  0.00  0.00    +0.000 C 
ATOM     26  C   UNL     1      -0.774  11.870  20.669  0.00  0.00    +0.000 C 
BRANCH  19  27
ATOM     27  C   UNL     1      -0.139   9.001  21.002  0.00  0.00    +0.000 C 
BRANCH  27  29
ATOM     28  C   UNL     1      -0.021   9.580  23.453  0.00  0.00    +0.000 C 
ATOM     29  C   UNL     1       0.714   8.978  22.269  0.00  0.00    +0.000 C 
ENDBRANCH  27  29
ENDBRANCH  19  27
ENDBRANCH   1  26
BRANCH  12  30
ATOM     30  O   UNL     1      -5.915  11.597  24.718  0.00  0.00    +0.000 OA
ATOM     31  H   UNL     1      -5.866  11.759  25.674  0.00  0.00    +0.000 HD
ENDBRANCH  12  30
TORSDOF 4
ENDMDL
MODEL 3
REMARK VINA RESULT:      -6.3      2.093      7.388
REMARK  Name = 
REMARK  8 active torsions:
REMARK  status: ('A' for Active; 'I' for Inactive)
REMARK    1  A    between atoms: C_1  and  C_2
REMARK    2  A    between atoms: C_2  and  C_3
REMARK    3  A    between atoms: C_3  and  C_4
REMARK    4  A    between atoms: C_11  and  C_12
REMARK    5  A    between atoms: C_17  and  C_18
REMARK    6  A    between atoms: C_23  and  O_24
REMARK    7  A    between atoms: C_28  and  C_29
REMARK    8  A    between atoms: C_28  and  C_30
REMARK                            x       y       z     vdW  Elec       q    Type
REMARK                         _______ _______ _______ _____ _____    ______ ____
ROOT
ATOM      1  C   UNL     1       7.671  13.701  22.386  0.00  0.00    +0.000 C 
ATOM      2  O   UNL     1       6.456  13.699  22.137  0.00  0.00    +0.000 OA
ATOM      3  N   UNL     1       8.578  13.990  21.367  0.00  0.00    +0.000 N 
ATOM      4  C   UNL     1       8.046  14.574  20.135  0.00  0.00    +0.000 C 
ATOM      5  C   UNL     1       8.339  13.700  18.920  0.00  0.00    +0.000 C 
ATOM      6  C   UNL     1       9.811  13.182  18.837  0.00  0.00    +0.000 C 
ATOM      7  C   UNL     1       9.820  12.144  17.683  0.00  0.00    +0.000 C 
ATOM      8  C   UNL     1      10.713  14.403  18.546  0.00  0.00    +0.000 A 
ATOM      9  C   UNL     1      11.122  14.729  17.238  0.00  0.00    +0.000 A 
ATOM     10  C   UNL     1      11.838  15.896  16.968  0.00  0.00    +0.000 A 
ATOM     11  C   UNL     1      12.139  16.778  17.997  0.00  0.00    +0.000 A 
ATOM     12  C   UNL     1      11.783  16.452  19.302  0.00  0.00    +0.000 A 
ATOM     13  C   UNL     1      11.106  15.258  19.604  0.00  0.00    +0.000 A 
ATOM     14  C   UNL     1      10.893  14.876  21.062  0.00  0.00    +0.000 C 
ATOM     15  C   UNL     1      10.016  13.624  21.314  0.00  0.00    +0.000 C 
ATOM     16  C   UNL     1      10.247  12.533  20.212  0.00  0.00    +0.000 C 
ATOM     17  C   UNL     1       9.429  11.262  20.552  0.00  0.00    +0.000 C 
ATOM     18  C   UNL     1      11.728  12.069  20.196  0.00  0.00    +0.000 C 
ENDROOT
BRANCH   1  26
ATOM     19  C   UNL     1       8.038  15.141  25.710  0.00  0.00    +0.000 C 
ATOM     20  O   UNL     1       7.431  15.626  26.667  0.00  0.00    +0.000 OA
ATOM     21  N   UNL     1       7.451  14.213  24.859  0.00  0.00    +0.000 N 
ATOM     22  C   UNL     1       6.047  13.849  25.096  0.00  0.00    +0.000 C 
ATOM     23  C   UNL     1       5.903  12.373  25.446  0.00  0.00    +0.000 C 
ATOM     24  C   UNL     1       6.638  11.477  24.448  0.00  0.00    +0.000 C 
ATOM     25  C   UNL     1       8.085  11.935  24.254  0.00  0.00    +0.000 C 
ATOM     26  C   UNL     1       8.178  13.410  23.838  0.00  0.00    +0.000 C 
BRANCH  19  27
ATOM     27  C   UNL     1       9.471  15.551  25.413  0.00  0.00    +0.000 C 
BRANCH  27  29
ATOM     28  C   UNL     1       9.165  17.097  23.444  0.00  0.00    +0.000 C 
ATOM     29  C   UNL     1       9.559  16.990  24.906  0.00  0.00    +0.000 C 
ENDBRANCH  27  29
ENDBRANCH  19  27
ENDBRANCH   1  26
BRANCH  12  30
ATOM     30  O   UNL     1      12.097  17.306  20.323  0.00  0.00    +0.000 OA
ATOM     31  H   UNL     1      11.270  17.610  20.733  0.00  0.00    +0.000 HD
ENDBRANCH  12  30
TORSDOF 4
ENDMDL
MODEL 4
REMARK VINA RESULT:      -6.2      8.766     10.983
REMARK  Name = 
REMARK  8 active torsions:
REMARK  status: ('A' for Active; 'I' for Inactive)
REMARK    1  A    between atoms: C_1  and  C_2
REMARK    2  A    between atoms: C_2  and  C_3
REMARK    3  A    between atoms: C_3  and  C_4
REMARK    4  A    between atoms: C_11  and  C_12
REMARK    5  A    between atoms: C_17  and  C_18
REMARK    6  A    between atoms: C_23  and  O_24
REMARK    7  A    between atoms: C_28  and  C_29
REMARK    8  A    between atoms: C_28  and  C_30
REMARK                            x       y       z     vdW  Elec       q    Type
REMARK                         _______ _______ _______ _____ _____    ______ ____
ROOT
ATOM      1  C   UNL     1      -0.959  11.283  20.468  0.00  0.00    +0.000 C 
ATOM      2  O   UNL     1      -0.905  10.081  20.770  0.00  0.00    +0.000 OA
ATOM      3  N   UNL     1      -1.293  12.220  21.445  0.00  0.00    +0.000 N 
ATOM      4  C   UNL     1      -1.262  11.781  22.841  0.00  0.00    +0.000 C 
ATOM      5  C   UNL     1      -2.622  11.932  23.513  0.00  0.00    +0.000 C 
ATOM      6  C   UNL     1      -3.322  13.306  23.257  0.00  0.00    +0.000 C 
ATOM      7  C   UNL     1      -4.759  13.151  23.820  0.00  0.00    +0.000 C 
ATOM      8  C   UNL     1      -2.503  14.384  24.002  0.00  0.00    +0.000 A 
ATOM      9  C   UNL     1      -2.865  14.835  25.287  0.00  0.00    +0.000 A 
ATOM     10  C   UNL     1      -2.059  15.721  26.003  0.00  0.00    +0.000 A 
ATOM     11  C   UNL     1      -0.858  16.158  25.460  0.00  0.00    +0.000 A 
ATOM     12  C   UNL     1      -0.505  15.761  24.174  0.00  0.00    +0.000 A 
ATOM     13  C   UNL     1      -1.325  14.909  23.416  0.00  0.00    +0.000 A 
ATOM     14  C   UNL     1      -0.972  14.644  21.959  0.00  0.00    +0.000 C 
ATOM     15  C   UNL     1      -1.839  13.585  21.232  0.00  0.00    +0.000 C 
ATOM     16  C   UNL     1      -3.331  13.641  21.711  0.00  0.00    +0.000 C 
ATOM     17  C   UNL     1      -4.183  12.637  20.893  0.00  0.00    +0.000 C 
ATOM     18  C   UNL     1      -3.953  15.033  21.418  0.00  0.00    +0.000 C 
ENDROOT
BRANCH   1  26
ATOM     19  C   UNL     1       1.029  13.619  18.508  0.00  0.00    +0.000 C 
ATOM     20  O   UNL     1       2.176  13.981  18.237  0.00  0.00    +0.000 OA
ATOM     21  N   UNL     1       0.740  12.318  18.897  0.00  0.00    +0.000 N 
ATOM     22  C   UNL     1       1.857  11.371  19.030  0.00  0.00    +0.000 C 
ATOM     23  C   UNL     1       1.731  10.217  18.044  0.00  0.00    +0.000 C 
ATOM     24  C   UNL     1       0.343   9.579  18.087  0.00  0.00    +0.000 C 
ATOM     25  C   UNL     1      -0.756  10.636  17.954  0.00  0.00    +0.000 C 
ATOM     26  C   UNL     1      -0.629  11.743  19.009  0.00  0.00    +0.000 C 
BRANCH  19  27
ATOM     27  C   UNL     1      -0.130  14.600  18.435  0.00  0.00    +0.000 C 
BRANCH  27  29
ATOM     28  C   UNL     1      -0.857  16.999  18.717  0.00  0.00    +0.000 C 
ATOM     29  C   UNL     1       0.308  16.026  18.764  0.00  0.00    +0.000 C 
ENDBRANCH  27  29
ENDBRANCH  19  27
ENDBRANCH   1  26
BRANCH  12  30
ATOM     30  O   UNL     1       0.666  16.205  23.625  0.00  0.00    +0.000 OA
ATOM     31  H   UNL     1       0.605  16.119  22.659  0.00  0.00    +0.000 HD
ENDBRANCH  12  30
TORSDOF 4
ENDMDL
MODEL 5
REMARK VINA RESULT:      -6.1     10.602     13.458
REMARK  Name = 
REMARK  8 active torsions:
REMARK  status: ('A' for Active; 'I' for Inactive)
REMARK    1  A    between atoms: C_1  and  C_2
REMARK    2  A    between atoms: C_2  and  C_3
REMARK    3  A    between atoms: C_3  and  C_4
REMARK    4  A    between atoms: C_11  and  C_12
REMARK    5  A    between atoms: C_17  and  C_18
REMARK    6  A    between atoms: C_23  and  O_24
REMARK    7  A    between atoms: C_28  and  C_29
REMARK    8  A    between atoms: C_28  and  C_30
REMARK                            x       y       z     vdW  Elec       q    Type
REMARK                         _______ _______ _______ _____ _____    ______ ____
ROOT
ATOM      1  C   UNL     1      -3.471  13.046  22.238  0.00  0.00    +0.000 C 
ATOM      2  O   UNL     1      -3.403  12.793  23.451  0.00  0.00    +0.000 OA
ATOM      3  N   UNL     1      -2.465  12.592  21.387  0.00  0.00    +0.000 N 
ATOM      4  C   UNL     1      -1.542  11.583  21.908  0.00  0.00    +0.000 C 
ATOM      5  C   UNL     1      -0.098  12.070  21.887  0.00  0.00    +0.000 C 
ATOM      6  C   UNL     1       0.337  12.747  20.547  0.00  0.00    +0.000 C 
ATOM      7  C   UNL     1       1.732  13.365  20.828  0.00  0.00    +0.000 C 
ATOM      8  C   UNL     1       0.382  11.643  19.467  0.00  0.00    +0.000 A 
ATOM      9  C   UNL     1       1.582  10.991  19.121  0.00  0.00    +0.000 A 
ATOM     10  C   UNL     1       1.596   9.916  18.231  0.00  0.00    +0.000 A 
ATOM     11  C   UNL     1       0.408   9.451  17.685  0.00  0.00    +0.000 A 
ATOM     12  C   UNL     1      -0.782  10.111  17.979  0.00  0.00    +0.000 A 
ATOM     13  C   UNL     1      -0.814  11.226  18.833  0.00  0.00    +0.000 A 
ATOM     14  C   UNL     1      -2.113  12.006  18.984  0.00  0.00    +0.000 C 
ATOM     15  C   UNL     1      -2.108  13.131  20.049  0.00  0.00    +0.000 C 
ATOM     16  C   UNL     1      -0.716  13.847  20.119  0.00  0.00    +0.000 C 
ATOM     17  C   UNL     1      -0.781  15.027  21.122  0.00  0.00    +0.000 C 
ATOM     18  C   UNL     1      -0.360  14.497  18.753  0.00  0.00    +0.000 C 
ENDROOT
BRANCH   1  26
ATOM     19  C   UNL     1      -6.680  12.696  20.554  0.00  0.00    +0.000 C 
ATOM     20  O   UNL     1      -7.809  12.208  20.636  0.00  0.00    +0.000 OA
ATOM     21  N   UNL     1      -5.944  13.042  21.680  0.00  0.00    +0.000 N 
ATOM     22  C   UNL     1      -6.528  12.766  23.000  0.00  0.00    +0.000 C 
ATOM     23  C   UNL     1      -6.765  14.049  23.786  0.00  0.00    +0.000 C 
ATOM     24  C   UNL     1      -5.523  14.941  23.809  0.00  0.00    +0.000 C 
ATOM     25  C   UNL     1      -4.976  15.165  22.397  0.00  0.00    +0.000 C 
ATOM     26  C   UNL     1      -4.690  13.845  21.668  0.00  0.00    +0.000 C 
BRANCH  19  27
ATOM     27  C   UNL     1      -6.035  12.933  19.198  0.00  0.00    +0.000 C 
BRANCH  27  29
ATOM     28  C   UNL     1      -5.213  11.871  17.063  0.00  0.00    +0.000 C 
ATOM     29  C   UNL     1      -5.839  11.629  18.425  0.00  0.00    +0.000 C 
ENDBRANCH  27  29
ENDBRANCH  19  27
ENDBRANCH   1  26
BRANCH  12  30
ATOM     30  O   UNL     1      -1.954   9.671  17.427  0.00  0.00    +0.000 OA
ATOM     31  H   UNL     1      -1.780   9.405  16.509  0.00  0.00    +0.000 HD
ENDBRANCH  12  30
TORSDOF 4
ENDMDL
MODEL 6
REMARK VINA RESULT:      -6.1      9.192     11.113
REMARK  Name = 
REMARK  8 active torsions:
REMARK  status: ('A' for Active; 'I' for Inactive)
REMARK    1  A    between atoms: C_1  and  C_2
REMARK    2  A    between atoms: C_2  and  C_3
REMARK    3  A    between atoms: C_3  and  C_4
REMARK    4  A    between atoms: C_11  and  C_12
REMARK    5  A    between atoms: C_17  and  C_18
REMARK    6  A    between atoms: C_23  and  O_24
REMARK    7  A    between atoms: C_28  and  C_29
REMARK    8  A    between atoms: C_28  and  C_30
REMARK                            x       y       z     vdW  Elec       q    Type
REMARK                         _______ _______ _______ _____ _____    ______ ____
ROOT
ATOM      1  C   UNL     1       0.195  14.888  20.845  0.00  0.00    +0.000 C 
ATOM      2  O   UNL     1       0.455  16.099  20.775  0.00  0.00    +0.000 OA
ATOM      3  N   UNL     1      -1.134  14.477  20.935  0.00  0.00    +0.000 N 
ATOM      4  C   UNL     1      -2.169  15.467  20.634  0.00  0.00    +0.000 C 
ATOM      5  C   UNL     1      -3.101  15.693  21.819  0.00  0.00    +0.000 C 
ATOM      6  C   UNL     1      -3.605  14.382  22.505  0.00  0.00    +0.000 C 
ATOM      7  C   UNL     1      -4.325  14.842  23.800  0.00  0.00    +0.000 C 
ATOM      8  C   UNL     1      -4.558  13.681  21.511  0.00  0.00    +0.000 A 
ATOM      9  C   UNL     1      -5.956  13.842  21.584  0.00  0.00    +0.000 A 
ATOM     10  C   UNL     1      -6.802  13.301  20.615  0.00  0.00    +0.000 A 
ATOM     11  C   UNL     1      -6.269  12.609  19.536  0.00  0.00    +0.000 A 
ATOM     12  C   UNL     1      -4.895  12.400  19.471  0.00  0.00    +0.000 A 
ATOM     13  C   UNL     1      -4.028  12.891  20.461  0.00  0.00    +0.000 A 
ATOM     14  C   UNL     1      -2.560  12.490  20.426  0.00  0.00    +0.000 C 
ATOM     15  C   UNL     1      -1.642  13.185  21.463  0.00  0.00    +0.000 C 
ATOM     16  C   UNL     1      -2.389  13.422  22.820  0.00  0.00    +0.000 C 
ATOM     17  C   UNL     1      -1.411  14.026  23.860  0.00  0.00    +0.000 C 
ATOM     18  C   UNL     1      -2.852  12.074  23.438  0.00  0.00    +0.000 C 
ENDROOT
BRANCH   1  26
ATOM     19  C   UNL     1       1.035  11.496  19.826  0.00  0.00    +0.000 C 
ATOM     20  O   UNL     1       1.113  10.726  18.866  0.00  0.00    +0.000 OA
ATOM     21  N   UNL     1       1.192  12.868  19.683  0.00  0.00    +0.000 N 
ATOM     22  C   UNL     1       1.410  13.403  18.331  0.00  0.00    +0.000 C 
ATOM     23  C   UNL     1       2.770  14.076  18.208  0.00  0.00    +0.000 C 
ATOM     24  C   UNL     1       3.016  15.075  19.338  0.00  0.00    +0.000 C 
ATOM     25  C   UNL     1       2.756  14.439  20.706  0.00  0.00    +0.000 C 
ATOM     26  C   UNL     1       1.350  13.832  20.806  0.00  0.00    +0.000 C 
BRANCH  19  27
ATOM     27  C   UNL     1       0.751  10.967  21.222  0.00  0.00    +0.000 C 
BRANCH  27  29
ATOM     28  C   UNL     1      -0.425   9.203  22.588  0.00  0.00    +0.000 C 
ATOM     29  C   UNL     1      -0.163   9.743  21.193  0.00  0.00    +0.000 C 
ENDBRANCH  27  29
ENDBRANCH  19  27
ENDBRANCH   1  26
BRANCH  12  30
ATOM     30  O   UNL     1      -4.365  11.699  18.422  0.00  0.00    +0.000 OA
ATOM     31  H   UNL     1      -4.945  10.942  18.236  0.00  0.00    +0.000 HD
ENDBRANCH  12  30
TORSDOF 4
ENDMDL
MODEL 7
REMARK VINA RESULT:      -6.1      9.407     12.452
REMARK  Name = 
REMARK  8 active torsions:
REMARK  status: ('A' for Active; 'I' for Inactive)
REMARK    1  A    between atoms: C_1  and  C_2
REMARK    2  A    between atoms: C_2  and  C_3
REMARK    3  A    between atoms: C_3  and  C_4
REMARK    4  A    between atoms: C_11  and  C_12
REMARK    5  A    between atoms: C_17  and  C_18
REMARK    6  A    between atoms: C_23  and  O_24
REMARK    7  A    between atoms: C_28  and  C_29
REMARK    8  A    between atoms: C_28  and  C_30
REMARK                            x       y       z     vdW  Elec       q    Type
REMARK                         _______ _______ _______ _____ _____    ______ ____
ROOT
ATOM      1  C   UNL     1      -1.238  13.232  22.809  0.00  0.00    +0.000 C 
ATOM      2  O   UNL     1      -1.075  12.517  23.810  0.00  0.00    +0.000 OA
ATOM      3  N   UNL     1      -1.337  12.639  21.552  0.00  0.00    +0.000 N 
ATOM      4  C   UNL     1      -1.552  11.192  21.503  0.00  0.00    +0.000 C 
ATOM      5  C   UNL     1      -0.431  10.477  20.757  0.00  0.00    +0.000 C 
ATOM      6  C   UNL     1      -0.028  11.142  19.401  0.00  0.00    +0.000 C 
ATOM      7  C   UNL     1       1.259  10.406  18.944  0.00  0.00    +0.000 C 
ATOM      8  C   UNL     1      -1.208  10.941  18.423  0.00  0.00    +0.000 A 
ATOM      9  C   UNL     1      -1.231   9.881  17.495  0.00  0.00    +0.000 A 
ATOM     10  C   UNL     1      -2.349   9.636  16.696  0.00  0.00    +0.000 A 
ATOM     11  C   UNL     1      -3.480  10.431  16.824  0.00  0.00    +0.000 A 
ATOM     12  C   UNL     1      -3.460  11.511  17.702  0.00  0.00    +0.000 A 
ATOM     13  C   UNL     1      -2.328  11.806  18.480  0.00  0.00    +0.000 A 
ATOM     14  C   UNL     1      -2.304  13.093  19.293  0.00  0.00    +0.000 C 
ATOM     15  C   UNL     1      -1.086  13.277  20.234  0.00  0.00    +0.000 C 
ATOM     16  C   UNL     1       0.221  12.691  19.599  0.00  0.00    +0.000 C 
ATOM     17  C   UNL     1       1.431  12.982  20.524  0.00  0.00    +0.000 C 
ATOM     18  C   UNL     1       0.554  13.406  18.261  0.00  0.00    +0.000 C 
ENDROOT
BRANCH   1  26
ATOM     19  C   UNL     1      -2.609  16.236  21.276  0.00  0.00    +0.000 C 
ATOM     20  O   UNL     1      -3.647  16.797  20.919  0.00  0.00    +0.000 OA
ATOM     21  N   UNL     1      -2.589  15.321  22.321  0.00  0.00    +0.000 N 
ATOM     22  C   UNL     1      -3.863  14.989  22.975  0.00  0.00    +0.000 C 
ATOM     23  C   UNL     1      -3.862  15.401  24.442  0.00  0.00    +0.000 C 
ATOM     24  C   UNL     1      -2.616  14.900  25.173  0.00  0.00    +0.000 C 
ATOM     25  C   UNL     1      -1.340  15.278  24.418  0.00  0.00    +0.000 C 
ATOM     26  C   UNL     1      -1.358  14.785  22.964  0.00  0.00    +0.000 C 
BRANCH  19  27
ATOM     27  C   UNL     1      -1.292  16.521  20.572  0.00  0.00    +0.000 C 
BRANCH  27  29
ATOM     28  C   UNL     1      -0.528  16.880  18.195  0.00  0.00    +0.000 C 
ATOM     29  C   UNL     1      -1.497  17.313  19.281  0.00  0.00    +0.000 C 
ENDBRANCH  27  29
ENDBRANCH  19  27
ENDBRANCH   1  26
BRANCH  12  30
ATOM     30  O   UNL     1      -4.564  12.311  17.817  0.00  0.00    +0.000 OA
ATOM     31  H   UNL     1      -4.337  13.196  17.486  0.00  0.00    +0.000 HD
ENDBRANCH  12  30
TORSDOF 4
ENDMDL
MODEL 8
REMARK VINA RESULT:      -6.0      5.918      8.712
REMARK  Name = 
REMARK  8 active torsions:
REMARK  status: ('A' for Active; 'I' for Inactive)
REMARK    1  A    between atoms: C_1  and  C_2
REMARK    2  A    between atoms: C_2  and  C_3
REMARK    3  A    between atoms: C_3  and  C_4
REMARK    4  A    between atoms: C_11  and  C_12
REMARK    5  A    between atoms: C_17  and  C_18
REMARK    6  A    between atoms: C_23  and  O_24
REMARK    7  A    between atoms: C_28  and  C_29
REMARK    8  A    between atoms: C_28  and  C_30
REMARK                            x       y       z     vdW  Elec       q    Type
REMARK                         _______ _______ _______ _____ _____    ______ ____
ROOT
ATOM      1  C   UNL     1       2.029  13.297  20.326  0.00  0.00    +0.000 C 
ATOM      2  O   UNL     1       1.839  13.099  21.536  0.00  0.00    +0.000 OA
ATOM      3  N   UNL     1       3.087  14.111  19.923  0.00  0.00    +0.000 N 
ATOM      4  C   UNL     1       4.103  14.441  20.922  0.00  0.00    +0.000 C 
ATOM      5  C   UNL     1       4.213  15.946  21.144  0.00  0.00    +0.000 C 
ATOM      6  C   UNL     1       4.264  16.791  19.830  0.00  0.00    +0.000 C 
ATOM      7  C   UNL     1       4.136  18.269  20.282  0.00  0.00    +0.000 C 
ATOM      8  C   UNL     1       5.617  16.494  19.144  0.00  0.00    +0.000 A 
ATOM      9  C   UNL     1       6.735  17.334  19.314  0.00  0.00    +0.000 A 
ATOM     10  C   UNL     1       7.984  16.999  18.789  0.00  0.00    +0.000 A 
ATOM     11  C   UNL     1       8.150  15.804  18.103  0.00  0.00    +0.000 A 
ATOM     12  C   UNL     1       7.047  14.983  17.885  0.00  0.00    +0.000 A 
ATOM     13  C   UNL     1       5.771  15.324  18.361  0.00  0.00    +0.000 A 
ATOM     14  C   UNL     1       4.576  14.474  17.950  0.00  0.00    +0.000 C 
ATOM     15  C   UNL     1       3.228  14.826  18.629  0.00  0.00    +0.000 C 
ATOM     16  C   UNL     1       3.089  16.371  18.858  0.00  0.00    +0.000 C 
ATOM     17  C   UNL     1       1.691  16.691  19.447  0.00  0.00    +0.000 C 
ATOM     18  C   UNL     1       3.144  17.136  17.508  0.00  0.00    +0.000 C 
ENDROOT
BRANCH   1  26
ATOM     19  C   UNL     1       0.618  10.110  19.273  0.00  0.00    +0.000 C 
ATOM     20  O   UNL     1      -0.098   9.166  19.615  0.00  0.00    +0.000 OA
ATOM     21  N   UNL     1       0.449  11.388  19.790  0.00  0.00    +0.000 N 
ATOM     22  C   UNL     1      -0.589  11.589  20.810  0.00  0.00    +0.000 C 
ATOM     23  C   UNL     1      -1.671  12.546  20.326  0.00  0.00    +0.000 C 
ATOM     24  C   UNL     1      -1.078  13.833  19.753  0.00  0.00    +0.000 C 
ATOM     25  C   UNL     1       0.000  13.530  18.710  0.00  0.00    +0.000 C 
ATOM     26  C   UNL     1       1.103  12.617  19.263  0.00  0.00    +0.000 C 
BRANCH  19  27
ATOM     27  C   UNL     1       1.737   9.907  18.264  0.00  0.00    +0.000 C 
BRANCH  27  29
ATOM     28  C   UNL     1       3.073   7.801  17.890  0.00  0.00    +0.000 C 
ATOM     29  C   UNL     1       1.736   8.492  17.688  0.00  0.00    +0.000 C 
ENDBRANCH  27  29
ENDBRANCH  19  27
ENDBRANCH   1  26
BRANCH  12  30
ATOM     30  O   UNL     1       7.200  13.814  17.190  0.00  0.00    +0.000 OA
ATOM     31  H   UNL     1       6.730  13.110  17.668  0.00  0.00    +0.000 HD
ENDBRANCH  12  30
TORSDOF 4
ENDMDL
MODEL 9
REMARK VINA RESULT:      -6.0      9.058     10.972
REMARK  Name = 
REMARK  8 active torsions:
REMARK  status: ('A' for Active; 'I' for Inactive)
REMARK    1  A    between atoms: C_1  and  C_2
REMARK    2  A    between atoms: C_2  and  C_3
REMARK    3  A    between atoms: C_3  and  C_4
REMARK    4  A    between atoms: C_11  and  C_12
REMARK    5  A    between atoms: C_17  and  C_18
REMARK    6  A    between atoms: C_23  and  O_24
REMARK    7  A    between atoms: C_28  and  C_29
REMARK    8  A    between atoms: C_28  and  C_30
REMARK                            x       y       z     vdW  Elec       q    Type
REMARK                         _______ _______ _______ _____ _____    ______ ____
ROOT
ATOM      1  C   UNL     1      -0.468  16.030  21.198  0.00  0.00    +0.000 C 
ATOM      2  O   UNL     1      -0.672  17.238  21.396  0.00  0.00    +0.000 OA
ATOM      3  N   UNL     1      -1.549  15.150  21.166  0.00  0.00    +0.000 N 
ATOM      4  C   UNL     1      -2.889  15.729  21.060  0.00  0.00    +0.000 C 
ATOM      5  C   UNL     1      -3.769  15.344  22.243  0.00  0.00    +0.000 C 
ATOM      6  C   UNL     1      -3.720  13.827  22.619  0.00  0.00    +0.000 C 
ATOM      7  C   UNL     1      -4.483  13.709  23.965  0.00  0.00    +0.000 C 
ATOM      8  C   UNL     1      -4.408  13.048  21.475  0.00  0.00    +0.000 A 
ATOM      9  C   UNL     1      -5.762  12.665  21.547  0.00  0.00    +0.000 A 
ATOM     10  C   UNL     1      -6.408  12.066  20.464  0.00  0.00    +0.000 A 
ATOM     11  C   UNL     1      -5.722  11.860  19.275  0.00  0.00    +0.000 A 
ATOM     12  C   UNL     1      -4.372  12.189  19.200  0.00  0.00    +0.000 A 
ATOM     13  C   UNL     1      -3.688  12.747  20.293  0.00  0.00    +0.000 A 
ATOM     14  C   UNL     1      -2.180  12.931  20.207  0.00  0.00    +0.000 C 
ATOM     15  C   UNL     1      -1.520  13.682  21.391  0.00  0.00    +0.000 C 
ATOM     16  C   UNL     1      -2.222  13.339  22.749  0.00  0.00    +0.000 C 
ATOM     17  C   UNL     1      -1.474  14.030  23.917  0.00  0.00    +0.000 C 
ATOM     18  C   UNL     1      -2.127  11.818  23.051  0.00  0.00    +0.000 C 
ENDROOT
BRANCH   1  26
ATOM     19  C   UNL     1       1.532  13.720  19.219  0.00  0.00    +0.000 C 
ATOM     20  O   UNL     1       1.884  13.422  18.076  0.00  0.00    +0.000 OA
ATOM     21  N   UNL     1       1.190  15.020  19.568  0.00  0.00    +0.000 N 
ATOM     22  C   UNL     1       1.208  16.047  18.516  0.00  0.00    +0.000 C 
ATOM     23  C   UNL     1       2.240  17.129  18.809  0.00  0.00    +0.000 C 
ATOM     24  C   UNL     1       2.108  17.672  20.231  0.00  0.00    +0.000 C 
ATOM     25  C   UNL     1       2.085  16.537  21.258  0.00  0.00    +0.000 C 
ATOM     26  C   UNL     1       0.987  15.506  20.961  0.00  0.00    +0.000 C 
BRANCH  19  27
ATOM     27  C   UNL     1       1.449  12.660  20.306  0.00  0.00    +0.000 C 
BRANCH  27  29
ATOM     28  C   UNL     1       0.519  10.373  20.820  0.00  0.00    +0.000 C 
ATOM     29  C   UNL     1       1.061  11.295  19.741  0.00  0.00    +0.000 C 
ENDBRANCH  27  29
ENDBRANCH  19  27
ENDBRANCH   1  26
BRANCH  12  30
ATOM     30  O   UNL     1      -3.685  11.968  18.038  0.00  0.00    +0.000 OA
ATOM     31  H   UNL     1      -4.228  12.283  17.296  0.00  0.00    +0.000 HD
ENDBRANCH  12  30
TORSDOF 4
ENDMDL
