MODEL 1
REMARK VINA RESULT:      -7.5      0.000      0.000
REMARK  Name = 
REMARK  10 active torsions:
REMARK  status: ('A' for Active; 'I' for Inactive)
REMARK    1  A    between atoms: C_1  and  C_2
REMARK    2  A    between atoms: C_7  and  O_8
REMARK    3  A    between atoms: O_8  and  C_9
REMARK    4  A    between atoms: C_13  and  O_14
REMARK    5  A    between atoms: O_14  and  C_15
REMARK    6  A    between atoms: C_19  and  O_21
REMARK    7  A    between atoms: O_21  and  C_22
REMARK    8  A    between atoms: C_22  and  C_23
REMARK    9  A    between atoms: C_22  and  C_24
REMARK   10  A    between atoms: C_27  and  C_28
REMARK                            x       y       z     vdW  Elec       q    Type
REMARK                         _______ _______ _______ _____ _____    ______ ____
ROOT
ATOM      1  C   UNL     1       2.897   5.244  18.600  0.00  0.00    +0.000 A 
ATOM      2  N   UNL     1       2.415   4.330  19.460  0.00  0.00    +0.000 NA
ATOM      3  C   UNL     1       1.715   4.808  20.487  0.00  0.00    +0.000 A 
ATOM      4  N   UNL     1       1.523   6.105  20.787  0.00  0.00    +0.000 NA
ATOM      5  C   UNL     1       2.059   6.983  19.941  0.00  0.00    +0.000 A 
ATOM      6  C   UNL     1       2.734   6.610  18.779  0.00  0.00    +0.000 A 
ATOM      7  C   UNL     1       3.169   7.589  17.736  0.00  0.00    +0.000 C 
ENDROOT
BRANCH   1   8
ATOM      8  O   UNL     1       3.618   4.785  17.482  0.00  0.00    +0.000 OA
BRANCH   8  15
ATOM      9  C   UNL     1       5.237   4.462  15.031  0.00  0.00    +0.000 C 
ATOM     10  C   UNL     1       5.794   4.611  16.420  0.00  0.00    +0.000 A 
ATOM     11  C   UNL     1       7.190   4.569  16.575  0.00  0.00    +0.000 A 
ATOM     12  C   UNL     1       7.737   4.626  17.847  0.00  0.00    +0.000 A 
ATOM     13  N   UNL     1       6.997   4.687  18.970  0.00  0.00    +0.000 NA
ATOM     14  C   UNL     1       5.653   4.736  18.802  0.00  0.00    +0.000 A 
ATOM     15  C   UNL     1       4.995   4.744  17.570  0.00  0.00    +0.000 A 
ENDBRANCH   8  15
ENDBRANCH   1   8
BRANCH   5  16
ATOM     16  O   UNL     1       1.897   8.327  20.187  0.00  0.00    +0.000 OA
BRANCH  16  17
ATOM     17  C   UNL     1       0.700   9.084  19.938  0.00  0.00    +0.000 C 
ATOM     18  C   UNL     1       0.579  10.018  18.734  0.00  0.00    +0.000 C 
ATOM     19  C   UNL     1       0.934  11.480  18.992  0.00  0.00    +0.000 C 
ATOM     20  N   UNL     1       0.632  12.006  20.321  0.00  0.00    +0.000 N 
ATOM     21  C   UNL     1       1.018  13.322  20.616  0.00  0.00    +0.000 C 
ATOM     22  O   UNL     1       1.095  13.771  21.753  0.00  0.00    +0.000 OA
ATOM     23  C   UNL     1       0.616  11.106  21.466  0.00  0.00    +0.000 C 
ATOM     24  C   UNL     1       0.076   9.713  21.177  0.00  0.00    +0.000 C 
BRANCH  21  25
ATOM     25  O   UNL     1       1.349  14.036  19.500  0.00  0.00    +0.000 OA
BRANCH  25  26
ATOM     26  C   UNL     1       2.635  14.687  19.509  0.00  0.00    +0.000 C 
ATOM     27  C   UNL     1       3.480  14.161  18.351  0.00  0.00    +0.000 C 
ATOM     28  C   UNL     1       2.391  16.183  19.343  0.00  0.00    +0.000 C 
ENDBRANCH  25  26
ENDBRANCH  21  25
ENDBRANCH  16  17
ENDBRANCH   5  16
TORSDOF 6
ENDMDL
MODEL 2
REMARK VINA RESULT:      -7.3      1.209      1.331
REMARK  Name = 
REMARK  10 active torsions:
REMARK  status: ('A' for Active; 'I' for Inactive)
REMARK    1  A    between atoms: C_1  and  C_2
REMARK    2  A    between atoms: C_7  and  O_8
REMARK    3  A    between atoms: O_8  and  C_9
REMARK    4  A    between atoms: C_13  and  O_14
REMARK    5  A    between atoms: O_14  and  C_15
REMARK    6  A    between atoms: C_19  and  O_21
REMARK    7  A    between atoms: O_21  and  C_22
REMARK    8  A    between atoms: C_22  and  C_23
REMARK    9  A    between atoms: C_22  and  C_24
REMARK   10  A    between atoms: C_27  and  C_28
REMARK                            x       y       z     vdW  Elec       q    Type
REMARK                         _______ _______ _______ _____ _____    ______ ____
ROOT
ATOM      1  C   UNL     1       2.808   5.962  18.931  0.00  0.00    +0.000 A 
ATOM      2  N   UNL     1       2.376   5.108  19.876  0.00  0.00    +0.000 NA
ATOM      3  C   UNL     1       1.604   5.632  20.826  0.00  0.00    +0.000 A 
ATOM      4  N   UNL     1       1.293   6.932  20.976  0.00  0.00    +0.000 NA
ATOM      5  C   UNL     1       1.781   7.756  20.050  0.00  0.00    +0.000 A 
ATOM      6  C   UNL     1       2.524   7.320  18.954  0.00  0.00    +0.000 A 
ATOM      7  C   UNL     1       2.910   8.214  17.820  0.00  0.00    +0.000 C 
ENDROOT
BRANCH   1   8
ATOM      8  O   UNL     1       3.603   5.449  17.889  0.00  0.00    +0.000 OA
BRANCH   8  15
ATOM      9  C   UNL     1       5.255   6.311  15.596  0.00  0.00    +0.000 C 
ATOM     10  C   UNL     1       5.787   5.950  16.955  0.00  0.00    +0.000 A 
ATOM     11  C   UNL     1       7.178   5.999  17.150  0.00  0.00    +0.000 A 
ATOM     12  C   UNL     1       7.710   5.600  18.365  0.00  0.00    +0.000 A 
ATOM     13  N   UNL     1       6.966   5.126  19.382  0.00  0.00    +0.000 NA
ATOM     14  C   UNL     1       5.625   5.094  19.181  0.00  0.00    +0.000 A 
ATOM     15  C   UNL     1       4.975   5.524  18.023  0.00  0.00    +0.000 A 
ENDBRANCH   8  15
ENDBRANCH   1   8
BRANCH   5  16
ATOM     16  O   UNL     1       1.499   9.100  20.142  0.00  0.00    +0.000 OA
BRANCH  16  17
ATOM     17  C   UNL     1       0.212   9.700  19.912  0.00  0.00    +0.000 C 
ATOM     18  C   UNL     1      -0.086  10.494  18.641  0.00  0.00    +0.000 C 
ATOM     19  C   UNL     1       0.122  12.004  18.739  0.00  0.00    +0.000 C 
ATOM     20  N   UNL     1      -0.153  12.623  20.032  0.00  0.00    +0.000 N 
ATOM     21  C   UNL     1       0.102  13.994  20.178  0.00  0.00    +0.000 C 
ATOM     22  O   UNL     1       0.200  14.559  21.261  0.00  0.00    +0.000 OA
ATOM     23  C   UNL     1       0.001  11.843  21.252  0.00  0.00    +0.000 C 
ATOM     24  C   UNL     1      -0.399  10.380  21.131  0.00  0.00    +0.000 C 
BRANCH  21  25
ATOM     25  O   UNL     1       0.284  14.626  18.981  0.00  0.00    +0.000 OA
BRANCH  25  26
ATOM     26  C   UNL     1       0.603  16.030  19.034  0.00  0.00    +0.000 C 
ATOM     27  C   UNL     1       1.953  16.270  18.361  0.00  0.00    +0.000 C 
ATOM     28  C   UNL     1      -0.495  16.778  18.287  0.00  0.00    +0.000 C 
ENDBRANCH  25  26
ENDBRANCH  21  25
ENDBRANCH  16  17
ENDBRANCH   5  16
TORSDOF 6
ENDMDL
MODEL 3
REMARK VINA RESULT:      -7.2      2.529      3.311
REMARK  Name = 
REMARK  10 active torsions:
REMARK  status: ('A' for Active; 'I' for Inactive)
REMARK    1  A    between atoms: C_1  and  C_2
REMARK    2  A    between atoms: C_7  and  O_8
REMARK    3  A    between atoms: O_8  and  C_9
REMARK    4  A    between atoms: C_13  and  O_14
REMARK    5  A    between atoms: O_14  and  C_15
REMARK    6  A    between atoms: C_19  and  O_21
REMARK    7  A    between atoms: O_21  and  C_22
REMARK    8  A    between atoms: C_22  and  C_23
REMARK    9  A    between atoms: C_22  and  C_24
REMARK   10  A    between atoms: C_27  and  C_28
REMARK                            x       y       z     vdW  Elec       q    Type
REMARK                         _______ _______ _______ _____ _____    ______ ____
ROOT
ATOM      1  C   UNL     1       3.280   4.941  19.113  0.00  0.00    +0.000 A 
ATOM      2  N   UNL     1       3.219   3.917  19.982  0.00  0.00    +0.000 NA
ATOM      3  C   UNL     1       2.331   4.039  20.966  0.00  0.00    +0.000 A 
ATOM      4  N   UNL     1       1.563   5.115  21.219  0.00  0.00    +0.000 NA
ATOM      5  C   UNL     1       1.687   6.130  20.367  0.00  0.00    +0.000 A 
ATOM      6  C   UNL     1       2.512   6.089  19.243  0.00  0.00    +0.000 A 
ATOM      7  C   UNL     1       2.511   7.148  18.188  0.00  0.00    +0.000 C 
ENDROOT
BRANCH   1   8
ATOM      8  O   UNL     1       4.183   4.843  18.037  0.00  0.00    +0.000 OA
BRANCH   8  15
ATOM      9  C   UNL     1       5.283   6.527  15.872  0.00  0.00    +0.000 C 
ATOM     10  C   UNL     1       5.971   6.242  17.178  0.00  0.00    +0.000 A 
ATOM     11  C   UNL     1       7.247   6.795  17.381  0.00  0.00    +0.000 A 
ATOM     12  C   UNL     1       7.945   6.493  18.540  0.00  0.00    +0.000 A 
ATOM     13  N   UNL     1       7.480   5.657  19.488  0.00  0.00    +0.000 NA
ATOM     14  C   UNL     1       6.244   5.141  19.281  0.00  0.00    +0.000 A 
ATOM     15  C   UNL     1       5.429   5.420  18.183  0.00  0.00    +0.000 A 
ENDBRANCH   8  15
ENDBRANCH   1   8
BRANCH   5  16
ATOM     16  O   UNL     1       0.928   7.261  20.565  0.00  0.00    +0.000 OA
BRANCH  16  17
ATOM     17  C   UNL     1       1.430   8.539  20.991  0.00  0.00    +0.000 C 
ATOM     18  C   UNL     1       1.200   9.059  22.410  0.00  0.00    +0.000 C 
ATOM     19  C   UNL     1      -0.020   9.958  22.596  0.00  0.00    +0.000 C 
ATOM     20  N   UNL     1      -0.386  10.812  21.470  0.00  0.00    +0.000 N 
ATOM     21  C   UNL     1      -1.546  11.592  21.579  0.00  0.00    +0.000 C 
ATOM     22  O   UNL     1      -2.116  12.105  20.624  0.00  0.00    +0.000 OA
ATOM     23  C   UNL     1      -0.059  10.394  20.113  0.00  0.00    +0.000 C 
ATOM     24  C   UNL     1       1.265   9.659  19.971  0.00  0.00    +0.000 C 
BRANCH  21  25
ATOM     25  O   UNL     1      -2.006  11.674  22.862  0.00  0.00    +0.000 OA
BRANCH  25  26
ATOM     26  C   UNL     1      -2.805  12.829  23.189  0.00  0.00    +0.000 C 
ATOM     27  C   UNL     1      -3.878  12.433  24.201  0.00  0.00    +0.000 C 
ATOM     28  C   UNL     1      -1.874  13.874  23.793  0.00  0.00    +0.000 C 
ENDBRANCH  25  26
ENDBRANCH  21  25
ENDBRANCH  16  17
ENDBRANCH   5  16
TORSDOF 6
ENDMDL
MODEL 4
REMARK VINA RESULT:      -7.1      2.449      3.571
REMARK  Name = 
REMARK  10 active torsions:
REMARK  status: ('A' for Active; 'I' for Inactive)
REMARK    1  A    between atoms: C_1  and  C_2
REMARK    2  A    between atoms: C_7  and  O_8
REMARK    3  A    between atoms: O_8  and  C_9
REMARK    4  A    between atoms: C_13  and  O_14
REMARK    5  A    between atoms: O_14  and  C_15
REMARK    6  A    between atoms: C_19  and  O_21
REMARK    7  A    between atoms: O_21  and  C_22
REMARK    8  A    between atoms: C_22  and  C_23
REMARK    9  A    between atoms: C_22  and  C_24
REMARK   10  A    between atoms: C_27  and  C_28
REMARK                            x       y       z     vdW  Elec       q    Type
REMARK                         _______ _______ _______ _____ _____    ______ ____
ROOT
ATOM      1  C   UNL     1       3.043   6.155  18.797  0.00  0.00    +0.000 A 
ATOM      2  N   UNL     1       3.022   5.108  19.640  0.00  0.00    +0.000 NA
ATOM      3  C   UNL     1       2.196   5.213  20.680  0.00  0.00    +0.000 A 
ATOM      4  N   UNL     1       1.460   6.290  21.008  0.00  0.00    +0.000 NA
ATOM      5  C   UNL     1       1.545   7.328  20.179  0.00  0.00    +0.000 A 
ATOM      6  C   UNL     1       2.301   7.308  19.006  0.00  0.00    +0.000 A 
ATOM      7  C   UNL     1       2.250   8.397  17.983  0.00  0.00    +0.000 C 
ENDROOT
BRANCH   1   8
ATOM      8  O   UNL     1       3.878   6.078  17.667  0.00  0.00    +0.000 OA
BRANCH   8  15
ATOM      9  C   UNL     1       5.446   5.097  15.362  0.00  0.00    +0.000 C 
ATOM     10  C   UNL     1       5.961   5.211  16.770  0.00  0.00    +0.000 A 
ATOM     11  C   UNL     1       7.280   4.796  17.022  0.00  0.00    +0.000 A 
ATOM     12  C   UNL     1       7.764   4.814  18.320  0.00  0.00    +0.000 A 
ATOM     13  N   UNL     1       7.023   5.180  19.383  0.00  0.00    +0.000 NA
ATOM     14  C   UNL     1       5.756   5.586  19.122  0.00  0.00    +0.000 A 
ATOM     15  C   UNL     1       5.182   5.664  17.851  0.00  0.00    +0.000 A 
ENDBRANCH   8  15
ENDBRANCH   1   8
BRANCH   5  16
ATOM     16  O   UNL     1       0.815   8.461  20.454  0.00  0.00    +0.000 OA
BRANCH  16  17
ATOM     17  C   UNL     1       1.144   9.443  21.452  0.00  0.00    +0.000 C 
ATOM     18  C   UNL     1       0.509   9.417  22.842  0.00  0.00    +0.000 C 
ATOM     19  C   UNL     1      -0.736  10.283  23.018  0.00  0.00    +0.000 C 
ATOM     20  N   UNL     1      -0.791  11.521  22.246  0.00  0.00    +0.000 N 
ATOM     21  C   UNL     1      -1.955  12.299  22.324  0.00  0.00    +0.000 C 
ATOM     22  O   UNL     1      -2.244  13.177  21.519  0.00  0.00    +0.000 OA
ATOM     23  C   UNL     1      -0.084  11.610  20.976  0.00  0.00    +0.000 C 
ATOM     24  C   UNL     1       1.245  10.871  20.929  0.00  0.00    +0.000 C 
BRANCH  21  25
ATOM     25  O   UNL     1      -2.760  11.939  23.366  0.00  0.00    +0.000 OA
BRANCH  25  26
ATOM     26  C   UNL     1      -3.732  12.912  23.798  0.00  0.00    +0.000 C 
ATOM     27  C   UNL     1      -4.734  12.247  24.739  0.00  0.00    +0.000 C 
ATOM     28  C   UNL     1      -2.979  14.017  24.530  0.00  0.00    +0.000 C 
ENDBRANCH  25  26
ENDBRANCH  21  25
ENDBRANCH  16  17
ENDBRANCH   5  16
TORSDOF 6
ENDMDL
MODEL 5
REMARK VINA RESULT:      -7.0      3.050      4.655
REMARK  Name = 
REMARK  10 active torsions:
REMARK  status: ('A' for Active; 'I' for Inactive)
REMARK    1  A    between atoms: C_1  and  C_2
REMARK    2  A    between atoms: C_7  and  O_8
REMARK    3  A    between atoms: O_8  and  C_9
REMARK    4  A    between atoms: C_13  and  O_14
REMARK    5  A    between atoms: O_14  and  C_15
REMARK    6  A    between atoms: C_19  and  O_21
REMARK    7  A    between atoms: O_21  and  C_22
REMARK    8  A    between atoms: C_22  and  C_23
REMARK    9  A    between atoms: C_22  and  C_24
REMARK   10  A    between atoms: C_27  and  C_28
REMARK                            x       y       z     vdW  Elec       q    Type
REMARK                         _______ _______ _______ _____ _____    ______ ____
ROOT
ATOM      1  C   UNL     1       2.810   6.806  19.213  0.00  0.00    +0.000 A 
ATOM      2  N   UNL     1       3.446   7.061  18.056  0.00  0.00    +0.000 NA
ATOM      3  C   UNL     1       3.118   8.199  17.449  0.00  0.00    +0.000 A 
ATOM      4  N   UNL     1       2.159   9.062  17.834  0.00  0.00    +0.000 NA
ATOM      5  C   UNL     1       1.514   8.750  18.956  0.00  0.00    +0.000 A 
ATOM      6  C   UNL     1       1.828   7.636  19.734  0.00  0.00    +0.000 A 
ATOM      7  C   UNL     1       1.236   7.388  21.084  0.00  0.00    +0.000 C 
ENDROOT
BRANCH   1   8
ATOM      8  O   UNL     1       3.146   5.628  19.907  0.00  0.00    +0.000 OA
BRANCH   8  15
ATOM      9  C   UNL     1       0.805   3.870  20.308  0.00  0.00    +0.000 C 
ATOM     10  C   UNL     1       1.953   3.580  19.382  0.00  0.00    +0.000 A 
ATOM     11  C   UNL     1       1.930   2.369  18.668  0.00  0.00    +0.000 A 
ATOM     12  C   UNL     1       3.007   2.032  17.864  0.00  0.00    +0.000 A 
ATOM     13  N   UNL     1       4.113   2.792  17.747  0.00  0.00    +0.000 NA
ATOM     14  C   UNL     1       4.114   3.961  18.434  0.00  0.00    +0.000 A 
ATOM     15  C   UNL     1       3.064   4.429  19.227  0.00  0.00    +0.000 A 
ENDBRANCH   8  15
ENDBRANCH   1   8
BRANCH   5  16
ATOM     16  O   UNL     1       0.523   9.591  19.408  0.00  0.00    +0.000 OA
BRANCH  16  17
ATOM     17  C   UNL     1       0.731  10.796  20.165  0.00  0.00    +0.000 C 
ATOM     18  C   UNL     1       0.543  10.832  21.682  0.00  0.00    +0.000 C 
ATOM     19  C   UNL     1      -0.834  11.277  22.167  0.00  0.00    +0.000 C 
ATOM     20  N   UNL     1      -1.532  12.266  21.351  0.00  0.00    +0.000 N 
ATOM     21  C   UNL     1      -2.831  12.637  21.726  0.00  0.00    +0.000 C 
ATOM     22  O   UNL     1      -3.618  13.211  20.983  0.00  0.00    +0.000 OA
ATOM     23  C   UNL     1      -1.269  12.334  19.920  0.00  0.00    +0.000 C 
ATOM     24  C   UNL     1       0.172  12.057  19.520  0.00  0.00    +0.000 C 
BRANCH  21  25
ATOM     25  O   UNL     1      -3.145  12.244  22.995  0.00  0.00    +0.000 OA
BRANCH  25  26
ATOM     26  C   UNL     1      -3.987  13.132  23.757  0.00  0.00    +0.000 C 
ATOM     27  C   UNL     1      -4.689  12.344  24.860  0.00  0.00    +0.000 C 
ATOM     28  C   UNL     1      -3.088  14.201  24.367  0.00  0.00    +0.000 C 
ENDBRANCH  25  26
ENDBRANCH  21  25
ENDBRANCH  16  17
ENDBRANCH   5  16
TORSDOF 6
ENDMDL
MODEL 6
REMARK VINA RESULT:      -7.0      1.757      1.989
REMARK  Name = 
REMARK  10 active torsions:
REMARK  status: ('A' for Active; 'I' for Inactive)
REMARK    1  A    between atoms: C_1  and  C_2
REMARK    2  A    between atoms: C_7  and  O_8
REMARK    3  A    between atoms: O_8  and  C_9
REMARK    4  A    between atoms: C_13  and  O_14
REMARK    5  A    between atoms: O_14  and  C_15
REMARK    6  A    between atoms: C_19  and  O_21
REMARK    7  A    between atoms: O_21  and  C_22
REMARK    8  A    between atoms: C_22  and  C_23
REMARK    9  A    between atoms: C_22  and  C_24
REMARK   10  A    between atoms: C_27  and  C_28
REMARK                            x       y       z     vdW  Elec       q    Type
REMARK                         _______ _______ _______ _____ _____    ______ ____
ROOT
ATOM      1  C   UNL     1       2.820   5.832  18.912  0.00  0.00    +0.000 A 
ATOM      2  N   UNL     1       2.453   4.892  19.801  0.00  0.00    +0.000 NA
ATOM      3  C   UNL     1       1.663   5.303  20.790  0.00  0.00    +0.000 A 
ATOM      4  N   UNL     1       1.275   6.569  21.029  0.00  0.00    +0.000 NA
ATOM      5  C   UNL     1       1.700   7.481  20.157  0.00  0.00    +0.000 A 
ATOM      6  C   UNL     1       2.455   7.165  19.027  0.00  0.00    +0.000 A 
ATOM      7  C   UNL     1       2.771   8.154  17.952  0.00  0.00    +0.000 C 
ENDROOT
BRANCH   1   8
ATOM      8  O   UNL     1       3.631   5.439  17.831  0.00  0.00    +0.000 OA
BRANCH   8  15
ATOM      9  C   UNL     1       5.320   6.122  15.504  0.00  0.00    +0.000 C 
ATOM     10  C   UNL     1       5.829   5.872  16.897  0.00  0.00    +0.000 A 
ATOM     11  C   UNL     1       7.217   5.943  17.110  0.00  0.00    +0.000 A 
ATOM     12  C   UNL     1       7.730   5.644  18.362  0.00  0.00    +0.000 A 
ATOM     13  N   UNL     1       6.969   5.249  19.401  0.00  0.00    +0.000 NA
ATOM     14  C   UNL     1       5.632   5.196  19.181  0.00  0.00    +0.000 A 
ATOM     15  C   UNL     1       5.000   5.530  17.981  0.00  0.00    +0.000 A 
ENDBRANCH   8  15
ENDBRANCH   1   8
BRANCH   5  16
ATOM     16  O   UNL     1       1.338   8.796  20.341  0.00  0.00    +0.000 OA
BRANCH  16  17
ATOM     17  C   UNL     1      -0.008   9.276  20.507  0.00  0.00    +0.000 C 
ATOM     18  C   UNL     1      -0.638  10.255  19.517  0.00  0.00    +0.000 C 
ATOM     19  C   UNL     1      -0.524  11.732  19.884  0.00  0.00    +0.000 C 
ATOM     20  N   UNL     1      -0.549  12.061  21.306  0.00  0.00    +0.000 N 
ATOM     21  C   UNL     1      -0.368  13.401  21.679  0.00  0.00    +0.000 C 
ATOM     22  O   UNL     1      -0.073  13.759  22.814  0.00  0.00    +0.000 OA
ATOM     23  C   UNL     1      -0.071  11.088  22.279  0.00  0.00    +0.000 C 
ATOM     24  C   UNL     1      -0.380   9.638  21.940  0.00  0.00    +0.000 C 
BRANCH  21  25
ATOM     25  O   UNL     1      -0.504  14.263  20.630  0.00  0.00    +0.000 OA
BRANCH  25  26
ATOM     26  C   UNL     1      -1.299  15.442  20.861  0.00  0.00    +0.000 C 
ATOM     27  C   UNL     1      -1.097  16.425  19.710  0.00  0.00    +0.000 C 
ATOM     28  C   UNL     1      -2.757  15.005  20.928  0.00  0.00    +0.000 C 
ENDBRANCH  25  26
ENDBRANCH  21  25
ENDBRANCH  16  17
ENDBRANCH   5  16
TORSDOF 6
ENDMDL
MODEL 7
REMARK VINA RESULT:      -7.0      3.486      5.144
REMARK  Name = 
REMARK  10 active torsions:
REMARK  status: ('A' for Active; 'I' for Inactive)
REMARK    1  A    between atoms: C_1  and  C_2
REMARK    2  A    between atoms: C_7  and  O_8
REMARK    3  A    between atoms: O_8  and  C_9
REMARK    4  A    between atoms: C_13  and  O_14
REMARK    5  A    between atoms: O_14  and  C_15
REMARK    6  A    between atoms: C_19  and  O_21
REMARK    7  A    between atoms: O_21  and  C_22
REMARK    8  A    between atoms: C_22  and  C_23
REMARK    9  A    between atoms: C_22  and  C_24
REMARK   10  A    between atoms: C_27  and  C_28
REMARK                            x       y       z     vdW  Elec       q    Type
REMARK                         _______ _______ _______ _____ _____    ______ ____
ROOT
ATOM      1  C   UNL     1       2.288   7.654  19.214  0.00  0.00    +0.000 A 
ATOM      2  N   UNL     1       2.666   8.012  17.975  0.00  0.00    +0.000 NA
ATOM      3  C   UNL     1       2.194   9.176  17.535  0.00  0.00    +0.000 A 
ATOM      4  N   UNL     1       1.316   9.973  18.172  0.00  0.00    +0.000 NA
ATOM      5  C   UNL     1       0.924   9.561  19.375  0.00  0.00    +0.000 A 
ATOM      6  C   UNL     1       1.418   8.408  19.986  0.00  0.00    +0.000 A 
ATOM      7  C   UNL     1       1.123   8.046  21.406  0.00  0.00    +0.000 C 
ENDROOT
BRANCH   1   8
ATOM      8  O   UNL     1       2.787   6.444  19.734  0.00  0.00    +0.000 OA
BRANCH   8  15
ATOM      9  C   UNL     1       0.864   4.297  20.386  0.00  0.00    +0.000 C 
ATOM     10  C   UNL     1       1.801   4.289  19.210  0.00  0.00    +0.000 A 
ATOM     11  C   UNL     1       1.784   3.165  18.366  0.00  0.00    +0.000 A 
ATOM     12  C   UNL     1       2.686   3.087  17.317  0.00  0.00    +0.000 A 
ATOM     13  N   UNL     1       3.620   4.025  17.070  0.00  0.00    +0.000 NA
ATOM     14  C   UNL     1       3.616   5.107  17.887  0.00  0.00    +0.000 A 
ATOM     15  C   UNL     1       2.720   5.319  18.937  0.00  0.00    +0.000 A 
ENDBRANCH   8  15
ENDBRANCH   1   8
BRANCH   5  16
ATOM     16  O   UNL     1       0.029  10.330  20.083  0.00  0.00    +0.000 OA
BRANCH  16  17
ATOM     17  C   UNL     1      -0.240  11.724  19.850  0.00  0.00    +0.000 C 
ATOM     18  C   UNL     1      -0.309  12.730  20.998  0.00  0.00    +0.000 C 
ATOM     19  C   UNL     1      -1.702  12.998  21.562  0.00  0.00    +0.000 C 
ATOM     20  N   UNL     1      -2.816  12.932  20.620  0.00  0.00    +0.000 N 
ATOM     21  C   UNL     1      -4.116  13.096  21.121  0.00  0.00    +0.000 C 
ATOM     22  O   UNL     1      -5.128  12.772  20.510  0.00  0.00    +0.000 OA
ATOM     23  C   UNL     1      -2.719  12.075  19.447  0.00  0.00    +0.000 C 
ATOM     24  C   UNL     1      -1.333  11.997  18.824  0.00  0.00    +0.000 C 
BRANCH  21  25
ATOM     25  O   UNL     1      -4.133  13.606  22.387  0.00  0.00    +0.000 OA
BRANCH  25  26
ATOM     26  C   UNL     1      -5.047  12.995  23.318  0.00  0.00    +0.000 C 
ATOM     27  C   UNL     1      -4.275  12.506  24.541  0.00  0.00    +0.000 C 
ATOM     28  C   UNL     1      -6.061  14.057  23.728  0.00  0.00    +0.000 C 
ENDBRANCH  25  26
ENDBRANCH  21  25
ENDBRANCH  16  17
ENDBRANCH   5  16
TORSDOF 6
ENDMDL
MODEL 8
REMARK VINA RESULT:      -7.0      3.238      5.139
REMARK  Name = 
REMARK  10 active torsions:
REMARK  status: ('A' for Active; 'I' for Inactive)
REMARK    1  A    between atoms: C_1  and  C_2
REMARK    2  A    between atoms: C_7  and  O_8
REMARK    3  A    between atoms: O_8  and  C_9
REMARK    4  A    between atoms: C_13  and  O_14
REMARK    5  A    between atoms: O_14  and  C_15
REMARK    6  A    between atoms: C_19  and  O_21
REMARK    7  A    between atoms: O_21  and  C_22
REMARK    8  A    between atoms: C_22  and  C_23
REMARK    9  A    between atoms: C_22  and  C_24
REMARK   10  A    between atoms: C_27  and  C_28
REMARK                            x       y       z     vdW  Elec       q    Type
REMARK                         _______ _______ _______ _____ _____    ______ ____
ROOT
ATOM      1  C   UNL     1       2.604   7.100  19.193  0.00  0.00    +0.000 A 
ATOM      2  N   UNL     1       3.123   7.447  18.002  0.00  0.00    +0.000 NA
ATOM      3  C   UNL     1       2.758   8.639  17.533  0.00  0.00    +0.000 A 
ATOM      4  N   UNL     1       1.864   9.476  18.089  0.00  0.00    +0.000 NA
ATOM      5  C   UNL     1       1.332   9.076  19.242  0.00  0.00    +0.000 A 
ATOM      6  C   UNL     1       1.700   7.893  19.884  0.00  0.00    +0.000 A 
ATOM      7  C   UNL     1       1.246   7.536  21.263  0.00  0.00    +0.000 C 
ENDROOT
BRANCH   1   8
ATOM      8  O   UNL     1       2.984   5.862  19.744  0.00  0.00    +0.000 OA
BRANCH   8  15
ATOM      9  C   UNL     1       2.321   3.836  21.790  0.00  0.00    +0.000 C 
ATOM     10  C   UNL     1       1.906   3.771  20.347  0.00  0.00    +0.000 A 
ATOM     11  C   UNL     1       1.169   2.652  19.925  0.00  0.00    +0.000 A 
ATOM     12  C   UNL     1       0.835   2.520  18.587  0.00  0.00    +0.000 A 
ATOM     13  N   UNL     1       1.210   3.399  17.638  0.00  0.00    +0.000 NA
ATOM     14  C   UNL     1       1.913   4.478  18.063  0.00  0.00    +0.000 A 
ATOM     15  C   UNL     1       2.255   4.744  19.391  0.00  0.00    +0.000 A 
ENDBRANCH   8  15
ENDBRANCH   1   8
BRANCH   5  16
ATOM     16  O   UNL     1       0.412   9.886  19.867  0.00  0.00    +0.000 OA
BRANCH  16  17
ATOM     17  C   UNL     1       0.254  11.298  19.641  0.00  0.00    +0.000 C 
ATOM     18  C   UNL     1       0.220  12.296  20.799  0.00  0.00    +0.000 C 
ATOM     19  C   UNL     1      -1.169  12.660  21.318  0.00  0.00    +0.000 C 
ATOM     20  N   UNL     1      -2.251  12.686  20.338  0.00  0.00    +0.000 N 
ATOM     21  C   UNL     1      -3.553  12.940  20.796  0.00  0.00    +0.000 C 
ATOM     22  O   UNL     1      -4.564  12.698  20.148  0.00  0.00    +0.000 OA
ATOM     23  C   UNL     1      -2.177  11.835  19.159  0.00  0.00    +0.000 C 
ATOM     24  C   UNL     1      -0.780  11.661  18.583  0.00  0.00    +0.000 C 
BRANCH  21  25
ATOM     25  O   UNL     1      -3.576  13.439  22.067  0.00  0.00    +0.000 OA
BRANCH  25  26
ATOM     26  C   UNL     1      -4.599  12.927  22.943  0.00  0.00    +0.000 C 
ATOM     27  C   UNL     1      -3.964  12.481  24.259  0.00  0.00    +0.000 C 
ATOM     28  C   UNL     1      -5.592  14.055  23.196  0.00  0.00    +0.000 C 
ENDBRANCH  25  26
ENDBRANCH  21  25
ENDBRANCH  16  17
ENDBRANCH   5  16
TORSDOF 6
ENDMDL
MODEL 9
REMARK VINA RESULT:      -6.9      3.180      4.620
REMARK  Name = 
REMARK  10 active torsions:
REMARK  status: ('A' for Active; 'I' for Inactive)
REMARK    1  A    between atoms: C_1  and  C_2
REMARK    2  A    between atoms: C_7  and  O_8
REMARK    3  A    between atoms: O_8  and  C_9
REMARK    4  A    between atoms: C_13  and  O_14
REMARK    5  A    between atoms: O_14  and  C_15
REMARK    6  A    between atoms: C_19  and  O_21
REMARK    7  A    between atoms: O_21  and  C_22
REMARK    8  A    between atoms: C_22  and  C_23
REMARK    9  A    between atoms: C_22  and  C_24
REMARK   10  A    between atoms: C_27  and  C_28
REMARK                            x       y       z     vdW  Elec       q    Type
REMARK                         _______ _______ _______ _____ _____    ______ ____
ROOT
ATOM      1  C   UNL     1       2.466   7.181  19.292  0.00  0.00    +0.000 A 
ATOM      2  N   UNL     1       2.987   7.414  18.074  0.00  0.00    +0.000 NA
ATOM      3  C   UNL     1       2.678   8.587  17.524  0.00  0.00    +0.000 A 
ATOM      4  N   UNL     1       1.835   9.508  18.026  0.00  0.00    +0.000 NA
ATOM      5  C   UNL     1       1.298   9.219  19.210  0.00  0.00    +0.000 A 
ATOM      6  C   UNL     1       1.613   8.068  19.932  0.00  0.00    +0.000 A 
ATOM      7  C   UNL     1       1.159   7.834  21.337  0.00  0.00    +0.000 C 
ENDROOT
BRANCH   1   8
ATOM      8  O   UNL     1       2.788   5.967  19.927  0.00  0.00    +0.000 OA
BRANCH   8  15
ATOM      9  C   UNL     1       5.313   4.693  19.069  0.00  0.00    +0.000 C 
ATOM     10  C   UNL     1       3.936   4.170  18.766  0.00  0.00    +0.000 A 
ATOM     11  C   UNL     1       3.833   2.999  17.995  0.00  0.00    +0.000 A 
ATOM     12  C   UNL     1       2.581   2.530  17.631  0.00  0.00    +0.000 A 
ATOM     13  N   UNL     1       1.433   3.157  17.949  0.00  0.00    +0.000 NA
ATOM     14  C   UNL     1       1.549   4.279  18.702  0.00  0.00    +0.000 A 
ATOM     15  C   UNL     1       2.751   4.811  19.173  0.00  0.00    +0.000 A 
ENDBRANCH   8  15
ENDBRANCH   1   8
BRANCH   5  16
ATOM     16  O   UNL     1       0.429  10.119  19.782  0.00  0.00    +0.000 OA
BRANCH  16  17
ATOM     17  C   UNL     1       0.074  11.400  19.234  0.00  0.00    +0.000 C 
ATOM     18  C   UNL     1       0.084  12.668  20.088  0.00  0.00    +0.000 C 
ATOM     19  C   UNL     1      -1.251  13.051  20.722  0.00  0.00    +0.000 C 
ATOM     20  N   UNL     1      -2.456  12.726  19.964  0.00  0.00    +0.000 N 
ATOM     21  C   UNL     1      -3.701  12.992  20.554  0.00  0.00    +0.000 C 
ATOM     22  O   UNL     1      -4.757  12.505  20.167  0.00  0.00    +0.000 OA
ATOM     23  C   UNL     1      -2.447  11.596  19.046  0.00  0.00    +0.000 C 
ATOM     24  C   UNL     1      -1.135  11.381  18.307  0.00  0.00    +0.000 C 
BRANCH  21  25
ATOM     25  O   UNL     1      -3.604  13.813  21.640  0.00  0.00    +0.000 OA
BRANCH  25  26
ATOM     26  C   UNL     1      -4.361  13.434  22.806  0.00  0.00    +0.000 C 
ATOM     27  C   UNL     1      -3.527  12.490  23.669  0.00  0.00    +0.000 C 
ATOM     28  C   UNL     1      -4.680  14.708  23.579  0.00  0.00    +0.000 C 
ENDBRANCH  25  26
ENDBRANCH  21  25
ENDBRANCH  16  17
ENDBRANCH   5  16
TORSDOF 6
ENDMDL
