MODEL 1
REMARK VINA RESULT:      -6.8      0.000      0.000
REMARK  Name = 
REMARK  4 active torsions:
REMARK  status: ('A' for Active; 'I' for Inactive)
REMARK    1  A    between atoms: C_4  and  C_5
REMARK    2  A    between atoms: C_5  and  N_6
REMARK    3  A    between atoms: C_10  and  C_11
REMARK    4  A    between atoms: C_11  and  N_12
REMARK                            x       y       z     vdW  Elec       q    Type
REMARK                         _______ _______ _______ _____ _____    ______ ____
ROOT
ATOM      1  N   UNL     1       4.440   5.196  18.291  0.00  0.00    +0.000 N 
ATOM      2  N   UNL     1       5.473   5.931  18.660  0.00  0.00    +0.000 NA
ATOM      3  N   UNL     1       6.368   5.152  19.248  0.00  0.00    +0.000 NA
ATOM      4  N   UNL     1       5.926   3.902  19.277  0.00  0.00    +0.000 NA
ATOM      5  C   UNL     1       4.717   3.928  18.683  0.00  0.00    +0.000 A 
ENDROOT
BRANCH   1   6
ATOM      6  C   UNL     1       3.252   5.743  17.628  0.00  0.00    +0.000 C 
BRANCH   6  10
ATOM      7  C   UNL     1       1.338   8.865  19.941  0.00  0.00    +0.000 A 
ATOM      8  C   UNL     1       1.652   9.082  18.599  0.00  0.00    +0.000 A 
ATOM      9  C   UNL     1       2.281   8.082  17.846  0.00  0.00    +0.000 A 
ATOM     10  C   UNL     1       2.608   6.850  18.441  0.00  0.00    +0.000 A 
ATOM     11  C   UNL     1       2.298   6.644  19.796  0.00  0.00    +0.000 A 
ATOM     12  C   UNL     1       1.665   7.647  20.543  0.00  0.00    +0.000 A 
ENDBRANCH   6  10
ENDBRANCH   1   6
BRANCH   5  13
ATOM     13  C   UNL     1       3.850   2.700  18.525  0.00  0.00    +0.000 C 
BRANCH  13  14
ATOM     14  N   UNL     1       2.733   2.739  19.472  0.00  0.00    +0.000 NA
ATOM     15  C   UNL     1       1.329   2.729  19.096  0.00  0.00    +0.000 C 
ATOM     16  C   UNL     1       0.684   3.443  20.274  0.00  0.00    +0.000 C 
ATOM     17  C   UNL     1       1.434   2.824  21.447  0.00  0.00    +0.000 C 
ATOM     18  C   UNL     1       2.876   2.731  20.926  0.00  0.00    +0.000 C 
ENDBRANCH  13  14
ENDBRANCH   5  13
TORSDOF 4
ENDMDL
MODEL 2
REMARK VINA RESULT:      -6.8      0.337      1.187
REMARK  Name = 
REMARK  4 active torsions:
REMARK  status: ('A' for Active; 'I' for Inactive)
REMARK    1  A    between atoms: C_4  and  C_5
REMARK    2  A    between atoms: C_5  and  N_6
REMARK    3  A    between atoms: C_10  and  C_11
REMARK    4  A    between atoms: C_11  and  N_12
REMARK                            x       y       z     vdW  Elec       q    Type
REMARK                         _______ _______ _______ _____ _____    ______ ____
ROOT
ATOM      1  N   UNL     1       4.676   5.457  18.146  0.00  0.00    +0.000 N 
ATOM      2  N   UNL     1       5.748   6.035  18.657  0.00  0.00    +0.000 NA
ATOM      3  N   UNL     1       6.452   5.128  19.319  0.00  0.00    +0.000 NA
ATOM      4  N   UNL     1       5.843   3.952  19.254  0.00  0.00    +0.000 NA
ATOM      5  C   UNL     1       4.730   4.157  18.525  0.00  0.00    +0.000 A 
ENDROOT
BRANCH   1   6
ATOM      6  C   UNL     1       3.661   6.175  17.369  0.00  0.00    +0.000 C 
BRANCH   6  10
ATOM      7  C   UNL     1       1.337   8.842  19.868  0.00  0.00    +0.000 A 
ATOM      8  C   UNL     1       1.780   7.620  20.373  0.00  0.00    +0.000 A 
ATOM      9  C   UNL     1       2.523   6.746  19.569  0.00  0.00    +0.000 A 
ATOM     10  C   UNL     1       2.823   7.092  18.240  0.00  0.00    +0.000 A 
ATOM     11  C   UNL     1       2.364   8.321  17.736  0.00  0.00    +0.000 A 
ATOM     12  C   UNL     1       1.625   9.193  18.547  0.00  0.00    +0.000 A 
ENDBRANCH   6  10
ENDBRANCH   1   6
BRANCH   5  13
ATOM     13  C   UNL     1       3.729   3.064  18.226  0.00  0.00    +0.000 C 
BRANCH  13  14
ATOM     14  N   UNL     1       2.675   3.045  19.244  0.00  0.00    +0.000 NA
ATOM     15  C   UNL     1       1.259   3.232  18.974  0.00  0.00    +0.000 C 
ATOM     16  C   UNL     1       0.759   3.790  20.297  0.00  0.00    +0.000 C 
ATOM     17  C   UNL     1       1.503   2.911  21.294  0.00  0.00    +0.000 C 
ATOM     18  C   UNL     1       2.896   2.773  20.663  0.00  0.00    +0.000 C 
ENDBRANCH  13  14
ENDBRANCH   5  13
TORSDOF 4
ENDMDL
MODEL 3
REMARK VINA RESULT:      -6.7      3.736      5.464
REMARK  Name = 
REMARK  4 active torsions:
REMARK  status: ('A' for Active; 'I' for Inactive)
REMARK    1  A    between atoms: C_4  and  C_5
REMARK    2  A    between atoms: C_5  and  N_6
REMARK    3  A    between atoms: C_10  and  C_11
REMARK    4  A    between atoms: C_11  and  N_12
REMARK                            x       y       z     vdW  Elec       q    Type
REMARK                         _______ _______ _______ _____ _____    ______ ____
ROOT
ATOM      1  N   UNL     1       6.281   4.958  16.816  0.00  0.00    +0.000 N 
ATOM      2  N   UNL     1       7.558   4.633  16.716  0.00  0.00    +0.000 NA
ATOM      3  N   UNL     1       8.046   4.427  17.930  0.00  0.00    +0.000 NA
ATOM      4  N   UNL     1       7.096   4.621  18.835  0.00  0.00    +0.000 NA
ATOM      5  C   UNL     1       5.992   4.958  18.140  0.00  0.00    +0.000 A 
ENDROOT
BRANCH   1   6
ATOM      6  C   UNL     1       5.434   5.277  15.662  0.00  0.00    +0.000 C 
BRANCH   6  10
ATOM      7  C   UNL     1       7.114   3.915  11.910  0.00  0.00    +0.000 A 
ATOM      8  C   UNL     1       5.947   3.333  12.405  0.00  0.00    +0.000 A 
ATOM      9  C   UNL     1       5.402   3.759  13.623  0.00  0.00    +0.000 A 
ATOM     10  C   UNL     1       6.033   4.776  14.362  0.00  0.00    +0.000 A 
ATOM     11  C   UNL     1       7.215   5.348  13.861  0.00  0.00    +0.000 A 
ATOM     12  C   UNL     1       7.753   4.920  12.640  0.00  0.00    +0.000 A 
ENDBRANCH   6  10
ENDBRANCH   1   6
BRANCH   5  13
ATOM     13  C   UNL     1       4.673   5.289  18.799  0.00  0.00    +0.000 C 
BRANCH  13  14
ATOM     14  N   UNL     1       3.643   4.332  18.390  0.00  0.00    +0.000 NA
ATOM     15  C   UNL     1       2.365   4.692  17.799  0.00  0.00    +0.000 C 
ATOM     16  C   UNL     1       1.490   3.516  18.203  0.00  0.00    +0.000 C 
ATOM     17  C   UNL     1       2.433   2.344  17.963  0.00  0.00    +0.000 C 
ATOM     18  C   UNL     1       3.784   2.879  18.463  0.00  0.00    +0.000 C 
ENDBRANCH  13  14
ENDBRANCH   5  13
TORSDOF 4
ENDMDL
MODEL 4
REMARK VINA RESULT:      -6.6      3.858      5.534
REMARK  Name = 
REMARK  4 active torsions:
REMARK  status: ('A' for Active; 'I' for Inactive)
REMARK    1  A    between atoms: C_4  and  C_5
REMARK    2  A    between atoms: C_5  and  N_6
REMARK    3  A    between atoms: C_10  and  C_11
REMARK    4  A    between atoms: C_11  and  N_12
REMARK                            x       y       z     vdW  Elec       q    Type
REMARK                         _______ _______ _______ _____ _____    ______ ____
ROOT
ATOM      1  N   UNL     1       6.364   4.656  16.713  0.00  0.00    +0.000 N 
ATOM      2  N   UNL     1       7.634   4.329  16.550  0.00  0.00    +0.000 NA
ATOM      3  N   UNL     1       8.218   4.265  17.737  0.00  0.00    +0.000 NA
ATOM      4  N   UNL     1       7.339   4.557  18.687  0.00  0.00    +0.000 NA
ATOM      5  C   UNL     1       6.180   4.806  18.048  0.00  0.00    +0.000 A 
ENDROOT
BRANCH   1   6
ATOM      6  C   UNL     1       5.425   4.836  15.602  0.00  0.00    +0.000 C 
BRANCH   6  10
ATOM      7  C   UNL     1       7.347   4.089  11.793  0.00  0.00    +0.000 A 
ATOM      8  C   UNL     1       7.839   5.080  12.642  0.00  0.00    +0.000 A 
ATOM      9  C   UNL     1       7.218   5.337  13.871  0.00  0.00    +0.000 A 
ATOM     10  C   UNL     1       6.085   4.599  14.257  0.00  0.00    +0.000 A 
ATOM     11  C   UNL     1       5.589   3.610  13.390  0.00  0.00    +0.000 A 
ATOM     12  C   UNL     1       6.217   3.356  12.164  0.00  0.00    +0.000 A 
ENDBRANCH   6  10
ENDBRANCH   1   6
BRANCH   5  13
ATOM     13  C   UNL     1       4.912   5.204  18.768  0.00  0.00    +0.000 C 
BRANCH  13  14
ATOM     14  N   UNL     1       3.819   4.292  18.421  0.00  0.00    +0.000 NA
ATOM     15  C   UNL     1       2.546   4.702  17.853  0.00  0.00    +0.000 C 
ATOM     16  C   UNL     1       1.621   3.590  18.321  0.00  0.00    +0.000 C 
ATOM     17  C   UNL     1       2.493   2.361  18.096  0.00  0.00    +0.000 C 
ATOM     18  C   UNL     1       3.884   2.836  18.540  0.00  0.00    +0.000 C 
ENDBRANCH  13  14
ENDBRANCH   5  13
TORSDOF 4
ENDMDL
MODEL 5
REMARK VINA RESULT:      -6.5      2.721      5.090
REMARK  Name = 
REMARK  4 active torsions:
REMARK  status: ('A' for Active; 'I' for Inactive)
REMARK    1  A    between atoms: C_4  and  C_5
REMARK    2  A    between atoms: C_5  and  N_6
REMARK    3  A    between atoms: C_10  and  C_11
REMARK    4  A    between atoms: C_11  and  N_12
REMARK                            x       y       z     vdW  Elec       q    Type
REMARK                         _______ _______ _______ _____ _____    ______ ____
ROOT
ATOM      1  N   UNL     1       4.834   5.791  18.576  0.00  0.00    +0.000 N 
ATOM      2  N   UNL     1       5.258   5.239  19.699  0.00  0.00    +0.000 NA
ATOM      3  N   UNL     1       6.576   5.117  19.648  0.00  0.00    +0.000 NA
ATOM      4  N   UNL     1       7.025   5.581  18.490  0.00  0.00    +0.000 NA
ATOM      5  C   UNL     1       5.937   5.999  17.816  0.00  0.00    +0.000 A 
ENDROOT
BRANCH   1   6
ATOM      6  C   UNL     1       3.421   6.053  18.285  0.00  0.00    +0.000 C 
BRANCH   6  10
ATOM      7  C   UNL     1       0.799   2.876  19.622  0.00  0.00    +0.000 A 
ATOM      8  C   UNL     1       1.026   3.984  20.438  0.00  0.00    +0.000 A 
ATOM      9  C   UNL     1       1.881   5.012  20.019  0.00  0.00    +0.000 A 
ATOM     10  C   UNL     1       2.524   4.930  18.771  0.00  0.00    +0.000 A 
ATOM     11  C   UNL     1       2.298   3.804  17.961  0.00  0.00    +0.000 A 
ATOM     12  C   UNL     1       1.439   2.782  18.384  0.00  0.00    +0.000 A 
ENDBRANCH   6  10
ENDBRANCH   1   6
BRANCH   5  13
ATOM     13  C   UNL     1       6.004   6.585  16.424  0.00  0.00    +0.000 C 
BRANCH  13  14
ATOM     14  N   UNL     1       6.173   5.521  15.430  0.00  0.00    +0.000 NA
ATOM     15  C   UNL     1       7.422   5.206  14.757  0.00  0.00    +0.000 C 
ATOM     16  C   UNL     1       6.930   4.594  13.456  0.00  0.00    +0.000 C 
ATOM     17  C   UNL     1       5.786   3.718  13.950  0.00  0.00    +0.000 C 
ATOM     18  C   UNL     1       5.122   4.590  15.025  0.00  0.00    +0.000 C 
ENDBRANCH  13  14
ENDBRANCH   5  13
TORSDOF 4
ENDMDL
MODEL 6
REMARK VINA RESULT:      -6.4      1.905      4.827
REMARK  Name = 
REMARK  4 active torsions:
REMARK  status: ('A' for Active; 'I' for Inactive)
REMARK    1  A    between atoms: C_4  and  C_5
REMARK    2  A    between atoms: C_5  and  N_6
REMARK    3  A    between atoms: C_10  and  C_11
REMARK    4  A    between atoms: C_11  and  N_12
REMARK                            x       y       z     vdW  Elec       q    Type
REMARK                         _______ _______ _______ _____ _____    ______ ____
ROOT
ATOM      1  N   UNL     1       2.934   3.027  19.336  0.00  0.00    +0.000 N 
ATOM      2  N   UNL     1       2.186   2.068  18.820  0.00  0.00    +0.000 NA
ATOM      3  N   UNL     1       0.910   2.380  18.989  0.00  0.00    +0.000 NA
ATOM      4  N   UNL     1       0.811   3.540  19.623  0.00  0.00    +0.000 NA
ATOM      5  C   UNL     1       2.076   3.944  19.846  0.00  0.00    +0.000 A 
ENDROOT
BRANCH   1   6
ATOM      6  C   UNL     1       4.400   2.996  19.344  0.00  0.00    +0.000 C 
BRANCH   6  10
ATOM      7  C   UNL     1       6.036   5.874  16.551  0.00  0.00    +0.000 A 
ATOM      8  C   UNL     1       5.256   4.814  16.087  0.00  0.00    +0.000 A 
ATOM      9  C   UNL     1       4.731   3.872  16.981  0.00  0.00    +0.000 A 
ATOM     10  C   UNL     1       4.994   3.984  18.358  0.00  0.00    +0.000 A 
ATOM     11  C   UNL     1       5.790   5.048  18.816  0.00  0.00    +0.000 A 
ATOM     12  C   UNL     1       6.308   5.989  17.916  0.00  0.00    +0.000 A 
ENDBRANCH   6  10
ENDBRANCH   1   6
BRANCH   5  13
ATOM     13  C   UNL     1       2.415   5.226  20.572  0.00  0.00    +0.000 C 
BRANCH  13  14
ATOM     14  N   UNL     1       2.267   6.376  19.677  0.00  0.00    +0.000 NA
ATOM     15  C   UNL     1       2.416   6.325  18.232  0.00  0.00    +0.000 C 
ATOM     16  C   UNL     1       2.839   7.750  17.911  0.00  0.00    +0.000 C 
ATOM     17  C   UNL     1       1.912   8.550  18.816  0.00  0.00    +0.000 C 
ATOM     18  C   UNL     1       1.887   7.720  20.108  0.00  0.00    +0.000 C 
ENDBRANCH  13  14
ENDBRANCH   5  13
TORSDOF 4
ENDMDL
MODEL 7
REMARK VINA RESULT:      -6.4      1.893      4.847
REMARK  Name = 
REMARK  4 active torsions:
REMARK  status: ('A' for Active; 'I' for Inactive)
REMARK    1  A    between atoms: C_4  and  C_5
REMARK    2  A    between atoms: C_5  and  N_6
REMARK    3  A    between atoms: C_10  and  C_11
REMARK    4  A    between atoms: C_11  and  N_12
REMARK                            x       y       z     vdW  Elec       q    Type
REMARK                         _______ _______ _______ _____ _____    ______ ____
ROOT
ATOM      1  N   UNL     1       3.047   3.008  19.352  0.00  0.00    +0.000 N 
ATOM      2  N   UNL     1       2.418   2.000  18.777  0.00  0.00    +0.000 NA
ATOM      3  N   UNL     1       1.112   2.196  18.872  0.00  0.00    +0.000 NA
ATOM      4  N   UNL     1       0.874   3.330  19.517  0.00  0.00    +0.000 NA
ATOM      5  C   UNL     1       2.083   3.837  19.823  0.00  0.00    +0.000 A 
ENDROOT
BRANCH   1   6
ATOM      6  C   UNL     1       4.507   3.104  19.449  0.00  0.00    +0.000 C 
BRANCH   6  10
ATOM      7  C   UNL     1       6.202   5.852  16.562  0.00  0.00    +0.000 A 
ATOM      8  C   UNL     1       6.414   6.053  17.926  0.00  0.00    +0.000 A 
ATOM      9  C   UNL     1       5.860   5.176  18.868  0.00  0.00    +0.000 A 
ATOM     10  C   UNL     1       5.079   4.086  18.444  0.00  0.00    +0.000 A 
ATOM     11  C   UNL     1       4.862   3.897  17.069  0.00  0.00    +0.000 A 
ATOM     12  C   UNL     1       5.422   4.776  16.131  0.00  0.00    +0.000 A 
ENDBRANCH   6  10
ENDBRANCH   1   6
BRANCH   5  13
ATOM     13  C   UNL     1       2.265   5.128  20.589  0.00  0.00    +0.000 C 
BRANCH  13  14
ATOM     14  N   UNL     1       2.206   6.275  19.679  0.00  0.00    +0.000 NA
ATOM     15  C   UNL     1       2.347   6.195  18.235  0.00  0.00    +0.000 C 
ATOM     16  C   UNL     1       2.881   7.577  17.895  0.00  0.00    +0.000 C 
ATOM     17  C   UNL     1       2.023   8.459  18.792  0.00  0.00    +0.000 C 
ATOM     18  C   UNL     1       1.935   7.650  20.094  0.00  0.00    +0.000 C 
ENDBRANCH  13  14
ENDBRANCH   5  13
TORSDOF 4
ENDMDL
MODEL 8
REMARK VINA RESULT:      -6.4      3.423      5.321
REMARK  Name = 
REMARK  4 active torsions:
REMARK  status: ('A' for Active; 'I' for Inactive)
REMARK    1  A    between atoms: C_4  and  C_5
REMARK    2  A    between atoms: C_5  and  N_6
REMARK    3  A    between atoms: C_10  and  C_11
REMARK    4  A    between atoms: C_11  and  N_12
REMARK                            x       y       z     vdW  Elec       q    Type
REMARK                         _______ _______ _______ _____ _____    ______ ____
ROOT
ATOM      1  N   UNL     1       5.715   5.639  17.372  0.00  0.00    +0.000 N 
ATOM      2  N   UNL     1       6.554   6.159  18.249  0.00  0.00    +0.000 NA
ATOM      3  N   UNL     1       7.700   5.497  18.194  0.00  0.00    +0.000 NA
ATOM      4  N   UNL     1       7.619   4.533  17.287  0.00  0.00    +0.000 NA
ATOM      5  C   UNL     1       6.376   4.617  16.775  0.00  0.00    +0.000 A 
ENDROOT
BRANCH   1   6
ATOM      6  C   UNL     1       4.342   6.117  17.182  0.00  0.00    +0.000 C 
BRANCH   6  10
ATOM      7  C   UNL     1       1.491   4.178  19.804  0.00  0.00    +0.000 A 
ATOM      8  C   UNL     1       2.346   5.160  20.305  0.00  0.00    +0.000 A 
ATOM      9  C   UNL     1       3.279   5.785  19.467  0.00  0.00    +0.000 A 
ATOM     10  C   UNL     1       3.365   5.421  18.112  0.00  0.00    +0.000 A 
ATOM     11  C   UNL     1       2.507   4.423  17.618  0.00  0.00    +0.000 A 
ATOM     12  C   UNL     1       1.574   3.804  18.461  0.00  0.00    +0.000 A 
ENDBRANCH   6  10
ENDBRANCH   1   6
BRANCH   5  13
ATOM     13  C   UNL     1       5.858   3.675  15.712  0.00  0.00    +0.000 C 
BRANCH  13  14
ATOM     14  N   UNL     1       6.319   4.096  14.387  0.00  0.00    +0.000 NA
ATOM     15  C   UNL     1       5.749   3.644  13.129  0.00  0.00    +0.000 C 
ATOM     16  C   UNL     1       6.928   3.790  12.180  0.00  0.00    +0.000 C 
ATOM     17  C   UNL     1       7.503   5.130  12.619  0.00  0.00    +0.000 C 
ATOM     18  C   UNL     1       7.376   5.077  14.149  0.00  0.00    +0.000 C 
ENDBRANCH  13  14
ENDBRANCH   5  13
TORSDOF 4
ENDMDL
MODEL 9
REMARK VINA RESULT:      -6.4      3.477      5.339
REMARK  Name = 
REMARK  4 active torsions:
REMARK  status: ('A' for Active; 'I' for Inactive)
REMARK    1  A    between atoms: C_4  and  C_5
REMARK    2  A    between atoms: C_5  and  N_6
REMARK    3  A    between atoms: C_10  and  C_11
REMARK    4  A    between atoms: C_11  and  N_12
REMARK                            x       y       z     vdW  Elec       q    Type
REMARK                         _______ _______ _______ _____ _____    ______ ____
ROOT
ATOM      1  N   UNL     1       5.716   5.617  17.270  0.00  0.00    +0.000 N 
ATOM      2  N   UNL     1       6.545   6.120  18.166  0.00  0.00    +0.000 NA
ATOM      3  N   UNL     1       7.682   5.441  18.131  0.00  0.00    +0.000 NA
ATOM      4  N   UNL     1       7.604   4.482  17.218  0.00  0.00    +0.000 NA
ATOM      5  C   UNL     1       6.373   4.588  16.681  0.00  0.00    +0.000 A 
ENDROOT
BRANCH   1   6
ATOM      6  C   UNL     1       4.355   6.117  17.055  0.00  0.00    +0.000 C 
BRANCH   6  10
ATOM      7  C   UNL     1       1.577   4.267  19.815  0.00  0.00    +0.000 A 
ATOM      8  C   UNL     1       1.807   3.693  18.565  0.00  0.00    +0.000 A 
ATOM      9  C   UNL     1       2.695   4.290  17.661  0.00  0.00    +0.000 A 
ATOM     10  C   UNL     1       3.359   5.481  18.006  0.00  0.00    +0.000 A 
ATOM     11  C   UNL     1       3.114   6.058  19.263  0.00  0.00    +0.000 A 
ATOM     12  C   UNL     1       2.227   5.454  20.165  0.00  0.00    +0.000 A 
ENDBRANCH   6  10
ENDBRANCH   1   6
BRANCH   5  13
ATOM     13  C   UNL     1       5.862   3.658  15.604  0.00  0.00    +0.000 C 
BRANCH  13  14
ATOM     14  N   UNL     1       6.354   4.080  14.290  0.00  0.00    +0.000 NA
ATOM     15  C   UNL     1       5.845   3.590  13.020  0.00  0.00    +0.000 C 
ATOM     16  C   UNL     1       7.051   3.768  12.111  0.00  0.00    +0.000 C 
ATOM     17  C   UNL     1       7.560   5.134  12.551  0.00  0.00    +0.000 C 
ATOM     18  C   UNL     1       7.382   5.096  14.075  0.00  0.00    +0.000 C 
ENDBRANCH  13  14
ENDBRANCH   5  13
TORSDOF 4
ENDMDL
