MODEL 1
REMARK VINA RESULT:      -8.2      0.000      0.000
REMARK  Name = 
REMARK  7 active torsions:
REMARK  status: ('A' for Active; 'I' for Inactive)
REMARK    1  A    between atoms: C_1  and  N_2
REMARK    2  A    between atoms: N_2  and  C_3
REMARK    3  A    between atoms: N_2  and  C_4
REMARK    4  A    between atoms: C_5  and  C_6
REMARK    5  A    between atoms: C_5  and  C_16
REMARK    6  A    between atoms: C_6  and  C_8
REMARK    7  A    between atoms: N_20  and  C_21
REMARK                            x       y       z     vdW  Elec       q    Type
REMARK                         _______ _______ _______ _____ _____    ______ ____
ROOT
ATOM      1  C   UNL     1       3.567   4.170  18.424  0.00  0.00    +0.000 C 
ATOM      2  C   UNL     1       4.297   5.297  18.357  0.00  0.00    +0.000 C 
ENDROOT
BRANCH   2   3
ATOM      3  C   UNL     1       5.700   5.278  18.590  0.00  0.00    +0.000 A 
ATOM      4  N   UNL     1       6.362   5.395  19.727  0.00  0.00    +0.000 NA
ATOM      5  N   UNL     1       7.663   5.075  19.454  0.00  0.00    +0.000 NA
ATOM      6  N   UNL     1       7.819   4.746  18.183  0.00  0.00    +0.000 NA
ATOM      7  N   UNL     1       6.615   4.947  17.585  0.00  0.00    +0.000 N 
BRANCH   7   8
ATOM      8  C   UNL     1       6.445   4.696  16.196  0.00  0.00    +0.000 A 
ATOM      9  C   UNL     1       7.230   5.415  15.282  0.00  0.00    +0.000 A 
ATOM     10  C   UNL     1       7.215   5.071  13.929  0.00  0.00    +0.000 A 
ATOM     11  C   UNL     1       6.378   4.054  13.472  0.00  0.00    +0.000 A 
ATOM     12  C   UNL     1       5.525   3.405  14.363  0.00  0.00    +0.000 A 
ATOM     13  C   UNL     1       5.557   3.726  15.721  0.00  0.00    +0.000 A 
ENDBRANCH   7   8
ENDBRANCH   2   3
BRANCH   1  15
ATOM     14  C   UNL     1       3.397   1.726  18.013  0.00  0.00    +0.000 C 
ATOM     15  N   UNL     1       3.828   2.857  18.850  0.00  0.00    +0.000 N 
ATOM     16  C   UNL     1       3.990   2.498  20.270  0.00  0.00    +0.000 C 
ENDBRANCH   1  15
BRANCH   2  17
ATOM     17  C   UNL     1       3.716   6.631  17.960  0.00  0.00    +0.000 C 
ATOM     18  O   UNL     1       4.017   7.124  16.872  0.00  0.00    +0.000 OA
BRANCH  17  19
ATOM     19  C   UNL     1       2.740   7.379  18.803  0.00  0.00    +0.000 A 
ATOM     20  C   UNL     1       2.314   6.958  20.068  0.00  0.00    +0.000 A 
ATOM     21  C   UNL     1       1.371   7.709  20.779  0.00  0.00    +0.000 A 
ATOM     22  C   UNL     1       0.883   8.912  20.259  0.00  0.00    +0.000 A 
ATOM     23 CL   UNL     1      -0.280   9.781  21.193  0.00  0.00    +0.000 Cl
ATOM     24  C   UNL     1       1.349   9.369  19.024  0.00  0.00    +0.000 A 
ATOM     25 CL   UNL     1       0.832  10.867  18.335  0.00  0.00    +0.000 Cl
ATOM     26  C   UNL     1       2.270   8.604  18.302  0.00  0.00    +0.000 A 
ENDBRANCH  17  19
ENDBRANCH   2  17
TORSDOF 5
ENDMDL
MODEL 2
REMARK VINA RESULT:      -8.1      0.723      1.706
REMARK  Name = 
REMARK  7 active torsions:
REMARK  status: ('A' for Active; 'I' for Inactive)
REMARK    1  A    between atoms: C_1  and  N_2
REMARK    2  A    between atoms: N_2  and  C_3
REMARK    3  A    between atoms: N_2  and  C_4
REMARK    4  A    between atoms: C_5  and  C_6
REMARK    5  A    between atoms: C_5  and  C_16
REMARK    6  A    between atoms: C_6  and  C_8
REMARK    7  A    between atoms: N_20  and  C_21
REMARK                            x       y       z     vdW  Elec       q    Type
REMARK                         _______ _______ _______ _____ _____    ______ ____
ROOT
ATOM      1  C   UNL     1       3.514   4.342  18.242  0.00  0.00    +0.000 C 
ATOM      2  C   UNL     1       4.351   5.383  18.099  0.00  0.00    +0.000 C 
ENDROOT
BRANCH   2   3
ATOM      3  C   UNL     1       5.718   5.285  18.479  0.00  0.00    +0.000 A 
ATOM      4  N   UNL     1       6.266   5.403  19.674  0.00  0.00    +0.000 NA
ATOM      5  N   UNL     1       7.564   4.992  19.550  0.00  0.00    +0.000 NA
ATOM      6  N   UNL     1       7.828   4.605  18.313  0.00  0.00    +0.000 NA
ATOM      7  N   UNL     1       6.707   4.859  17.586  0.00  0.00    +0.000 N 
BRANCH   7   8
ATOM      8  C   UNL     1       6.665   4.567  16.196  0.00  0.00    +0.000 A 
ATOM      9  C   UNL     1       5.747   3.611  15.736  0.00  0.00    +0.000 A 
ATOM     10  C   UNL     1       5.559   3.429  14.364  0.00  0.00    +0.000 A 
ATOM     11  C   UNL     1       6.322   4.151  13.448  0.00  0.00    +0.000 A 
ATOM     12  C   UNL     1       7.304   5.029  13.903  0.00  0.00    +0.000 A 
ATOM     13  C   UNL     1       7.476   5.236  15.273  0.00  0.00    +0.000 A 
ENDBRANCH   7   8
ENDBRANCH   2   3
BRANCH   1  15
ATOM     14  C   UNL     1       3.379   1.866  18.083  0.00  0.00    +0.000 C 
ATOM     15  N   UNL     1       3.608   3.089  18.870  0.00  0.00    +0.000 N 
ATOM     16  C   UNL     1       3.373   2.901  20.313  0.00  0.00    +0.000 C 
ENDBRANCH   1  15
BRANCH   2  17
ATOM     17  C   UNL     1       3.940   6.688  17.463  0.00  0.00    +0.000 C 
ATOM     18  O   UNL     1       4.393   6.995  16.360  0.00  0.00    +0.000 OA
BRANCH  17  19
ATOM     19  C   UNL     1       2.957   7.622  18.083  0.00  0.00    +0.000 A 
ATOM     20  C   UNL     1       2.436   8.750  17.439  0.00  0.00    +0.000 A 
ATOM     21  C   UNL     1       1.537   9.590  18.107  0.00  0.00    +0.000 A 
ATOM     22  C   UNL     1       1.112   9.286  19.404  0.00  0.00    +0.000 A 
ATOM     23 CL   UNL     1       0.005  10.371  20.166  0.00  0.00    +0.000 Cl
ATOM     24  C   UNL     1       1.581   8.129  20.031  0.00  0.00    +0.000 A 
ATOM     25 CL   UNL     1       1.068   7.659  21.613  0.00  0.00    +0.000 Cl
ATOM     26  C   UNL     1       2.500   7.306  19.373  0.00  0.00    +0.000 A 
ENDBRANCH  17  19
ENDBRANCH   2  17
TORSDOF 5
ENDMDL
MODEL 3
REMARK VINA RESULT:      -8.0      0.798      1.451
REMARK  Name = 
REMARK  7 active torsions:
REMARK  status: ('A' for Active; 'I' for Inactive)
REMARK    1  A    between atoms: C_1  and  N_2
REMARK    2  A    between atoms: N_2  and  C_3
REMARK    3  A    between atoms: N_2  and  C_4
REMARK    4  A    between atoms: C_5  and  C_6
REMARK    5  A    between atoms: C_5  and  C_16
REMARK    6  A    between atoms: C_6  and  C_8
REMARK    7  A    between atoms: N_20  and  C_21
REMARK                            x       y       z     vdW  Elec       q    Type
REMARK                         _______ _______ _______ _____ _____    ______ ____
ROOT
ATOM      1  C   UNL     1       3.059   4.616  18.222  0.00  0.00    +0.000 C 
ATOM      2  C   UNL     1       3.938   5.632  18.163  0.00  0.00    +0.000 C 
ENDROOT
BRANCH   2   3
ATOM      3  C   UNL     1       5.290   5.458  18.567  0.00  0.00    +0.000 A 
ATOM      4  N   UNL     1       5.817   5.517  19.777  0.00  0.00    +0.000 NA
ATOM      5  N   UNL     1       7.097   5.048  19.668  0.00  0.00    +0.000 NA
ATOM      6  N   UNL     1       7.369   4.682  18.426  0.00  0.00    +0.000 NA
ATOM      7  N   UNL     1       6.277   5.009  17.683  0.00  0.00    +0.000 N 
BRANCH   7   8
ATOM      8  C   UNL     1       6.251   4.757  16.285  0.00  0.00    +0.000 A 
ATOM      9  C   UNL     1       7.184   5.410  15.465  0.00  0.00    +0.000 A 
ATOM     10  C   UNL     1       7.300   5.054  14.120  0.00  0.00    +0.000 A 
ATOM     11  C   UNL     1       6.452   4.093  13.573  0.00  0.00    +0.000 A 
ATOM     12  C   UNL     1       5.459   3.514  14.360  0.00  0.00    +0.000 A 
ATOM     13  C   UNL     1       5.358   3.845  15.713  0.00  0.00    +0.000 A 
ENDBRANCH   7   8
ENDBRANCH   2   3
BRANCH   1  15
ATOM     14  C   UNL     1       2.730   2.171  17.933  0.00  0.00    +0.000 C 
ATOM     15  N   UNL     1       3.091   3.324  18.773  0.00  0.00    +0.000 N 
ATOM     16  C   UNL     1       2.919   3.067  20.214  0.00  0.00    +0.000 C 
ENDBRANCH   1  15
BRANCH   2  17
ATOM     17  C   UNL     1       3.591   6.987  17.601  0.00  0.00    +0.000 C 
ATOM     18  O   UNL     1       4.118   7.363  16.553  0.00  0.00    +0.000 OA
BRANCH  17  19
ATOM     19  C   UNL     1       2.588   7.897  18.226  0.00  0.00    +0.000 A 
ATOM     20  C   UNL     1       1.907   8.904  17.534  0.00  0.00    +0.000 A 
ATOM     21  C   UNL     1       1.001   9.732  18.207  0.00  0.00    +0.000 A 
ATOM     22  C   UNL     1       0.729   9.531  19.564  0.00  0.00    +0.000 A 
ATOM     23 CL   UNL     1      -0.397  10.594  20.327  0.00  0.00    +0.000 Cl
ATOM     24  C   UNL     1       1.360   8.488  20.247  0.00  0.00    +0.000 A 
ATOM     25 CL   UNL     1       1.042   8.144  21.910  0.00  0.00    +0.000 Cl
ATOM     26  C   UNL     1       2.285   7.680  19.580  0.00  0.00    +0.000 A 
ENDBRANCH  17  19
ENDBRANCH   2  17
TORSDOF 5
ENDMDL
MODEL 4
REMARK VINA RESULT:      -7.8      1.376      1.995
REMARK  Name = 
REMARK  7 active torsions:
REMARK  status: ('A' for Active; 'I' for Inactive)
REMARK    1  A    between atoms: C_1  and  N_2
REMARK    2  A    between atoms: N_2  and  C_3
REMARK    3  A    between atoms: N_2  and  C_4
REMARK    4  A    between atoms: C_5  and  C_6
REMARK    5  A    between atoms: C_5  and  C_16
REMARK    6  A    between atoms: C_6  and  C_8
REMARK    7  A    between atoms: N_20  and  C_21
REMARK                            x       y       z     vdW  Elec       q    Type
REMARK                         _______ _______ _______ _____ _____    ______ ____
ROOT
ATOM      1  C   UNL     1       2.066   4.806  17.812  0.00  0.00    +0.000 C 
ATOM      2  C   UNL     1       3.082   5.621  18.144  0.00  0.00    +0.000 C 
ENDROOT
BRANCH   2   3
ATOM      3  C   UNL     1       4.241   5.121  18.799  0.00  0.00    +0.000 A 
ATOM      4  N   UNL     1       4.422   4.828  20.073  0.00  0.00    +0.000 NA
ATOM      5  N   UNL     1       5.615   4.165  20.155  0.00  0.00    +0.000 NA
ATOM      6  N   UNL     1       6.168   4.025  18.961  0.00  0.00    +0.000 NA
ATOM      7  N   UNL     1       5.368   4.694  18.089  0.00  0.00    +0.000 N 
BRANCH   7   8
ATOM      8  C   UNL     1       5.693   4.750  16.706  0.00  0.00    +0.000 A 
ATOM      9  C   UNL     1       6.866   5.413  16.316  0.00  0.00    +0.000 A 
ATOM     10  C   UNL     1       7.304   5.336  14.993  0.00  0.00    +0.000 A 
ATOM     11  C   UNL     1       6.549   4.651  14.042  0.00  0.00    +0.000 A 
ATOM     12  C   UNL     1       5.333   4.075  14.406  0.00  0.00    +0.000 A 
ATOM     13  C   UNL     1       4.905   4.125  15.734  0.00  0.00    +0.000 A 
ENDBRANCH   7   8
ENDBRANCH   2   3
BRANCH   1  15
ATOM     14  C   UNL     1       1.020   3.149  19.339  0.00  0.00    +0.000 C 
ATOM     15  N   UNL     1       1.748   3.469  18.100  0.00  0.00    +0.000 N 
ATOM     16  C   UNL     1       2.530   2.334  17.579  0.00  0.00    +0.000 C 
ENDBRANCH   1  15
BRANCH   2  17
ATOM     17  C   UNL     1       3.111   7.086  17.786  0.00  0.00    +0.000 C 
ATOM     18  O   UNL     1       3.896   7.485  16.924  0.00  0.00    +0.000 OA
BRANCH  17  19
ATOM     19  C   UNL     1       2.192   8.092  18.390  0.00  0.00    +0.000 A 
ATOM     20  C   UNL     1       1.509   9.069  17.657  0.00  0.00    +0.000 A 
ATOM     21  C   UNL     1       0.686   9.993  18.312  0.00  0.00    +0.000 A 
ATOM     22  C   UNL     1       0.497   9.920  19.695  0.00  0.00    +0.000 A 
ATOM     23 CL   UNL     1      -0.530  11.097  20.432  0.00  0.00    +0.000 Cl
ATOM     24  C   UNL     1       1.128   8.911  20.425  0.00  0.00    +0.000 A 
ATOM     25 CL   UNL     1       0.908   8.724  22.129  0.00  0.00    +0.000 Cl
ATOM     26  C   UNL     1       1.972   8.006  19.775  0.00  0.00    +0.000 A 
ENDBRANCH  17  19
ENDBRANCH   2  17
TORSDOF 5
ENDMDL
MODEL 5
REMARK VINA RESULT:      -7.3      2.089      4.118
REMARK  Name = 
REMARK  7 active torsions:
REMARK  status: ('A' for Active; 'I' for Inactive)
REMARK    1  A    between atoms: C_1  and  N_2
REMARK    2  A    between atoms: N_2  and  C_3
REMARK    3  A    between atoms: N_2  and  C_4
REMARK    4  A    between atoms: C_5  and  C_6
REMARK    5  A    between atoms: C_5  and  C_16
REMARK    6  A    between atoms: C_6  and  C_8
REMARK    7  A    between atoms: N_20  and  C_21
REMARK                            x       y       z     vdW  Elec       q    Type
REMARK                         _______ _______ _______ _____ _____    ______ ____
ROOT
ATOM      1  C   UNL     1       6.075   5.825  19.270  0.00  0.00    +0.000 C 
ATOM      2  C   UNL     1       4.890   5.835  18.637  0.00  0.00    +0.000 C 
ENDROOT
BRANCH   2   3
ATOM      3  C   UNL     1       4.799   5.560  17.244  0.00  0.00    +0.000 A 
ATOM      4  N   UNL     1       5.437   6.125  16.235  0.00  0.00    +0.000 NA
ATOM      5  N   UNL     1       5.183   5.355  15.134  0.00  0.00    +0.000 NA
ATOM      6  N   UNL     1       4.420   4.319  15.440  0.00  0.00    +0.000 NA
ATOM      7  N   UNL     1       4.085   4.464  16.750  0.00  0.00    +0.000 N 
BRANCH   7   8
ATOM      8  C   UNL     1       3.248   3.511  17.392  0.00  0.00    +0.000 A 
ATOM      9  C   UNL     1       3.831   2.346  17.914  0.00  0.00    +0.000 A 
ATOM     10  C   UNL     1       3.071   1.479  18.701  0.00  0.00    +0.000 A 
ATOM     11  C   UNL     1       1.719   1.734  18.922  0.00  0.00    +0.000 A 
ATOM     12  C   UNL     1       1.114   2.837  18.324  0.00  0.00    +0.000 A 
ATOM     13  C   UNL     1       1.876   3.724  17.559  0.00  0.00    +0.000 A 
ENDBRANCH   7   8
ENDBRANCH   2   3
BRANCH   1  15
ATOM     14  C   UNL     1       8.155   6.986  18.561  0.00  0.00    +0.000 C 
ATOM     15  N   UNL     1       7.412   5.747  18.846  0.00  0.00    +0.000 N 
ATOM     16  C   UNL     1       7.959   4.571  18.147  0.00  0.00    +0.000 C 
ENDBRANCH   1  15
BRANCH   2  17
ATOM     17  C   UNL     1       3.579   6.055  19.349  0.00  0.00    +0.000 C 
ATOM     18  O   UNL     1       3.197   5.235  20.185  0.00  0.00    +0.000 OA
BRANCH  17  19
ATOM     19  C   UNL     1       2.724   7.257  19.131  0.00  0.00    +0.000 A 
ATOM     20  C   UNL     1       2.640   7.949  17.918  0.00  0.00    +0.000 A 
ATOM     21  C   UNL     1       1.832   9.087  17.811  0.00  0.00    +0.000 A 
ATOM     22  C   UNL     1       1.062   9.516  18.897  0.00  0.00    +0.000 A 
ATOM     23 CL   UNL     1       0.093  10.930  18.690  0.00  0.00    +0.000 Cl
ATOM     24  C   UNL     1       1.095   8.795  20.093  0.00  0.00    +0.000 A 
ATOM     25 CL   UNL     1       0.139   9.232  21.464  0.00  0.00    +0.000 Cl
ATOM     26  C   UNL     1       1.924   7.676  20.208  0.00  0.00    +0.000 A 
ENDBRANCH  17  19
ENDBRANCH   2  17
TORSDOF 5
ENDMDL
MODEL 6
REMARK VINA RESULT:      -7.3      0.240      1.188
REMARK  Name = 
REMARK  7 active torsions:
REMARK  status: ('A' for Active; 'I' for Inactive)
REMARK    1  A    between atoms: C_1  and  N_2
REMARK    2  A    between atoms: N_2  and  C_3
REMARK    3  A    between atoms: N_2  and  C_4
REMARK    4  A    between atoms: C_5  and  C_6
REMARK    5  A    between atoms: C_5  and  C_16
REMARK    6  A    between atoms: C_6  and  C_8
REMARK    7  A    between atoms: N_20  and  C_21
REMARK                            x       y       z     vdW  Elec       q    Type
REMARK                         _______ _______ _______ _____ _____    ______ ____
ROOT
ATOM      1  C   UNL     1       3.494   4.097  18.361  0.00  0.00    +0.000 C 
ATOM      2  C   UNL     1       4.244   5.211  18.312  0.00  0.00    +0.000 C 
ENDROOT
BRANCH   2   3
ATOM      3  C   UNL     1       5.630   5.179  18.626  0.00  0.00    +0.000 A 
ATOM      4  N   UNL     1       6.228   5.304  19.797  0.00  0.00    +0.000 NA
ATOM      5  N   UNL     1       7.538   4.964  19.604  0.00  0.00    +0.000 NA
ATOM      6  N   UNL     1       7.762   4.615  18.348  0.00  0.00    +0.000 NA
ATOM      7  N   UNL     1       6.596   4.822  17.679  0.00  0.00    +0.000 N 
BRANCH   7   8
ATOM      8  C   UNL     1       6.503   4.553  16.287  0.00  0.00    +0.000 A 
ATOM      9  C   UNL     1       5.512   3.669  15.836  0.00  0.00    +0.000 A 
ATOM     10  C   UNL     1       5.281   3.519  14.467  0.00  0.00    +0.000 A 
ATOM     11  C   UNL     1       6.071   4.200  13.543  0.00  0.00    +0.000 A 
ATOM     12  C   UNL     1       7.120   5.003  13.986  0.00  0.00    +0.000 A 
ATOM     13  C   UNL     1       7.338   5.178  15.354  0.00  0.00    +0.000 A 
ENDBRANCH   7   8
ENDBRANCH   2   3
BRANCH   1  15
ATOM     14  C   UNL     1       4.464   2.585  20.078  0.00  0.00    +0.000 C 
ATOM     15  N   UNL     1       3.711   2.790  18.830  0.00  0.00    +0.000 N 
ATOM     16  C   UNL     1       3.737   1.618  17.938  0.00  0.00    +0.000 C 
ENDBRANCH   1  15
BRANCH   2  17
ATOM     17  C   UNL     1       3.706   6.544  17.854  0.00  0.00    +0.000 C 
ATOM     18  O   UNL     1       4.014   6.972  16.741  0.00  0.00    +0.000 OA
BRANCH  17  19
ATOM     19  C   UNL     1       2.764   7.366  18.666  0.00  0.00    +0.000 A 
ATOM     20  C   UNL     1       2.338   7.025  19.954  0.00  0.00    +0.000 A 
ATOM     21  C   UNL     1       1.429   7.844  20.635  0.00  0.00    +0.000 A 
ATOM     22  C   UNL     1       0.976   9.034  20.058  0.00  0.00    +0.000 A 
ATOM     23 CL   UNL     1      -0.148   9.989  20.956  0.00  0.00    +0.000 Cl
ATOM     24  C   UNL     1       1.443   9.411  18.797  0.00  0.00    +0.000 A 
ATOM     25 CL   UNL     1       0.968  10.889  18.036  0.00  0.00    +0.000 Cl
ATOM     26  C   UNL     1       2.330   8.579  18.107  0.00  0.00    +0.000 A 
ENDBRANCH  17  19
ENDBRANCH   2  17
TORSDOF 5
ENDMDL
MODEL 7
REMARK VINA RESULT:      -7.2      1.379      1.688
REMARK  Name = 
REMARK  7 active torsions:
REMARK  status: ('A' for Active; 'I' for Inactive)
REMARK    1  A    between atoms: C_1  and  N_2
REMARK    2  A    between atoms: N_2  and  C_3
REMARK    3  A    between atoms: N_2  and  C_4
REMARK    4  A    between atoms: C_5  and  C_6
REMARK    5  A    between atoms: C_5  and  C_16
REMARK    6  A    between atoms: C_6  and  C_8
REMARK    7  A    between atoms: N_20  and  C_21
REMARK                            x       y       z     vdW  Elec       q    Type
REMARK                         _______ _______ _______ _____ _____    ______ ____
ROOT
ATOM      1  C   UNL     1       1.868   4.679  17.872  0.00  0.00    +0.000 C 
ATOM      2  C   UNL     1       2.826   5.491  18.353  0.00  0.00    +0.000 C 
ENDROOT
BRANCH   2   3
ATOM      3  C   UNL     1       3.969   4.966  19.017  0.00  0.00    +0.000 A 
ATOM      4  N   UNL     1       4.104   4.576  20.271  0.00  0.00    +0.000 NA
ATOM      5  N   UNL     1       5.310   3.936  20.352  0.00  0.00    +0.000 NA
ATOM      6  N   UNL     1       5.915   3.903  19.177  0.00  0.00    +0.000 NA
ATOM      7  N   UNL     1       5.136   4.623  18.325  0.00  0.00    +0.000 N 
BRANCH   7   8
ATOM      8  C   UNL     1       5.517   4.796  16.967  0.00  0.00    +0.000 A 
ATOM      9  C   UNL     1       6.517   5.732  16.662  0.00  0.00    +0.000 A 
ATOM     10  C   UNL     1       7.036   5.801  15.368  0.00  0.00    +0.000 A 
ATOM     11  C   UNL     1       6.523   4.985  14.361  0.00  0.00    +0.000 A 
ATOM     12  C   UNL     1       5.463   4.124  14.638  0.00  0.00    +0.000 A 
ATOM     13  C   UNL     1       4.959   4.031  15.938  0.00  0.00    +0.000 A 
ENDBRANCH   7   8
ENDBRANCH   2   3
BRANCH   1  15
ATOM     14  C   UNL     1       0.702   2.835  19.060  0.00  0.00    +0.000 C 
ATOM     15  N   UNL     1       1.598   3.306  17.991  0.00  0.00    +0.000 N 
ATOM     16  C   UNL     1       2.526   2.266  17.514  0.00  0.00    +0.000 C 
ENDBRANCH   1  15
BRANCH   2  17
ATOM     17  C   UNL     1       2.808   6.987  18.162  0.00  0.00    +0.000 C 
ATOM     18  O   UNL     1       3.393   7.483  17.199  0.00  0.00    +0.000 OA
BRANCH  17  19
ATOM     19  C   UNL     1       2.065   7.915  19.063  0.00  0.00    +0.000 A 
ATOM     20  C   UNL     1       1.808   7.656  20.413  0.00  0.00    +0.000 A 
ATOM     21  C   UNL     1       1.078   8.572  21.179  0.00  0.00    +0.000 A 
ATOM     22  C   UNL     1       0.641   9.777  20.619  0.00  0.00    +0.000 A 
ATOM     23 CL   UNL     1      -0.258  10.855  21.624  0.00  0.00    +0.000 Cl
ATOM     24  C   UNL     1       0.945  10.069  19.288  0.00  0.00    +0.000 A 
ATOM     25 CL   UNL     1       0.483  11.554  18.535  0.00  0.00    +0.000 Cl
ATOM     26  C   UNL     1       1.651   9.141  18.516  0.00  0.00    +0.000 A 
ENDBRANCH  17  19
ENDBRANCH   2  17
TORSDOF 5
ENDMDL
MODEL 8
REMARK VINA RESULT:      -7.1      0.779      1.032
REMARK  Name = 
REMARK  7 active torsions:
REMARK  status: ('A' for Active; 'I' for Inactive)
REMARK    1  A    between atoms: C_1  and  N_2
REMARK    2  A    between atoms: N_2  and  C_3
REMARK    3  A    between atoms: N_2  and  C_4
REMARK    4  A    between atoms: C_5  and  C_6
REMARK    5  A    between atoms: C_5  and  C_16
REMARK    6  A    between atoms: C_6  and  C_8
REMARK    7  A    between atoms: N_20  and  C_21
REMARK                            x       y       z     vdW  Elec       q    Type
REMARK                         _______ _______ _______ _____ _____    ______ ____
ROOT
ATOM      1  C   UNL     1       2.844   4.386  18.524  0.00  0.00    +0.000 C 
ATOM      2  C   UNL     1       3.638   5.471  18.532  0.00  0.00    +0.000 C 
ENDROOT
BRANCH   2   3
ATOM      3  C   UNL     1       5.030   5.361  18.801  0.00  0.00    +0.000 A 
ATOM      4  N   UNL     1       5.668   5.429  19.955  0.00  0.00    +0.000 NA
ATOM      5  N   UNL     1       6.953   5.028  19.714  0.00  0.00    +0.000 NA
ATOM      6  N   UNL     1       7.121   4.695  18.445  0.00  0.00    +0.000 NA
ATOM      7  N   UNL     1       5.947   4.976  17.818  0.00  0.00    +0.000 N 
BRANCH   7   8
ATOM      8  C   UNL     1       5.799   4.743  16.424  0.00  0.00    +0.000 A 
ATOM      9  C   UNL     1       5.601   5.843  15.574  0.00  0.00    +0.000 A 
ATOM     10  C   UNL     1       5.627   5.667  14.190  0.00  0.00    +0.000 A 
ATOM     11  C   UNL     1       5.789   4.395  13.646  0.00  0.00    +0.000 A 
ATOM     12  C   UNL     1       5.886   3.288  14.487  0.00  0.00    +0.000 A 
ATOM     13  C   UNL     1       5.890   3.461  15.873  0.00  0.00    +0.000 A 
ENDBRANCH   7   8
ENDBRANCH   2   3
BRANCH   1  15
ATOM     14  C   UNL     1       3.301   2.707  20.297  0.00  0.00    +0.000 C 
ATOM     15  N   UNL     1       3.018   3.042  18.892  0.00  0.00    +0.000 N 
ATOM     16  C   UNL     1       3.481   2.010  17.947  0.00  0.00    +0.000 C 
ENDBRANCH   1  15
BRANCH   2  17
ATOM     17  C   UNL     1       3.144   6.853  18.186  0.00  0.00    +0.000 C 
ATOM     18  O   UNL     1       3.428   7.343  17.091  0.00  0.00    +0.000 OA
BRANCH  17  19
ATOM     19  C   UNL     1       2.273   7.658  19.089  0.00  0.00    +0.000 A 
ATOM     20  C   UNL     1       1.979   7.306  20.410  0.00  0.00    +0.000 A 
ATOM     21  C   UNL     1       1.127   8.108  21.180  0.00  0.00    +0.000 A 
ATOM     22  C   UNL     1       0.602   9.293  20.655  0.00  0.00    +0.000 A 
ATOM     23 CL   UNL     1      -0.444  10.228  21.662  0.00  0.00    +0.000 Cl
ATOM     24  C   UNL     1       0.940   9.682  19.357  0.00  0.00    +0.000 A 
ATOM     25 CL   UNL     1       0.372  11.155  18.653  0.00  0.00    +0.000 Cl
ATOM     26  C   UNL     1       1.768   8.867  18.580  0.00  0.00    +0.000 A 
ENDBRANCH  17  19
ENDBRANCH   2  17
TORSDOF 5
ENDMDL
MODEL 9
REMARK VINA RESULT:      -7.1      1.993      4.104
REMARK  Name = 
REMARK  7 active torsions:
REMARK  status: ('A' for Active; 'I' for Inactive)
REMARK    1  A    between atoms: C_1  and  N_2
REMARK    2  A    between atoms: N_2  and  C_3
REMARK    3  A    between atoms: N_2  and  C_4
REMARK    4  A    between atoms: C_5  and  C_6
REMARK    5  A    between atoms: C_5  and  C_16
REMARK    6  A    between atoms: C_6  and  C_8
REMARK    7  A    between atoms: N_20  and  C_21
REMARK                            x       y       z     vdW  Elec       q    Type
REMARK                         _______ _______ _______ _____ _____    ______ ____
ROOT
ATOM      1  C   UNL     1       6.287   7.171  17.976  0.00  0.00    +0.000 C 
ATOM      2  C   UNL     1       5.462   6.752  17.001  0.00  0.00    +0.000 C 
ENDROOT
BRANCH   2   3
ATOM      3  C   UNL     1       5.817   5.666  16.154  0.00  0.00    +0.000 A 
ATOM      4  N   UNL     1       6.668   5.634  15.145  0.00  0.00    +0.000 NA
ATOM      5  N   UNL     1       6.830   4.318  14.813  0.00  0.00    +0.000 NA
ATOM      6  N   UNL     1       6.117   3.533  15.604  0.00  0.00    +0.000 NA
ATOM      7  N   UNL     1       5.394   4.357  16.409  0.00  0.00    +0.000 N 
BRANCH   7   8
ATOM      8  C   UNL     1       4.503   3.822  17.378  0.00  0.00    +0.000 A 
ATOM      9  C   UNL     1       3.199   3.487  16.982  0.00  0.00    +0.000 A 
ATOM     10  C   UNL     1       2.358   2.801  17.859  0.00  0.00    +0.000 A 
ATOM     11  C   UNL     1       2.787   2.498  19.150  0.00  0.00    +0.000 A 
ATOM     12  C   UNL     1       4.045   2.916  19.580  0.00  0.00    +0.000 A 
ATOM     13  C   UNL     1       4.901   3.578  18.696  0.00  0.00    +0.000 A 
ENDBRANCH   7   8
ENDBRANCH   2   3
BRANCH   1  15
ATOM     14  C   UNL     1       7.919   5.631  19.043  0.00  0.00    +0.000 C 
ATOM     15  N   UNL     1       7.616   6.881  18.326  0.00  0.00    +0.000 N 
ATOM     16  C   UNL     1       8.632   7.928  18.533  0.00  0.00    +0.000 C 
ENDBRANCH   1  15
BRANCH   2  17
ATOM     17  C   UNL     1       4.087   7.333  16.781  0.00  0.00    +0.000 C 
ATOM     18  O   UNL     1       3.695   7.545  15.633  0.00  0.00    +0.000 OA
BRANCH  17  19
ATOM     19  C   UNL     1       3.137   7.624  17.893  0.00  0.00    +0.000 A 
ATOM     20  C   UNL     1       2.414   8.816  18.012  0.00  0.00    +0.000 A 
ATOM     21  C   UNL     1       1.564   9.016  19.106  0.00  0.00    +0.000 A 
ATOM     22  C   UNL     1       1.388   8.011  20.062  0.00  0.00    +0.000 A 
ATOM     23 CL   UNL     1       0.325   8.333  21.385  0.00  0.00    +0.000 Cl
ATOM     24  C   UNL     1       2.060   6.796  19.917  0.00  0.00    +0.000 A 
ATOM     25 CL   UNL     1       1.860   5.488  21.029  0.00  0.00    +0.000 Cl
ATOM     26  C   UNL     1       2.931   6.607  18.840  0.00  0.00    +0.000 A 
ENDBRANCH  17  19
ENDBRANCH   2  17
TORSDOF 5
ENDMDL
