MODEL 1
REMARK VINA RESULT:      -8.0      0.000      0.000
REMARK  Name = 
REMARK  6 active torsions:
REMARK  status: ('A' for Active; 'I' for Inactive)
REMARK    1  A    between atoms: C_1  and  C_2
REMARK    2  A    between atoms: C_4  and  C_5
REMARK    3  A    between atoms: C_10  and  C_11
REMARK    4  A    between atoms: C_11  and  N_12
REMARK    5  A    between atoms: N_12  and  C_13
REMARK    6  A    between atoms: C_13  and  C_14
REMARK                            x       y       z     vdW  Elec       q    Type
REMARK                         _______ _______ _______ _____ _____    ______ ____
ROOT
ATOM      1  C   UNL     1      -1.228  12.359  18.543  0.00  0.00    +0.000 C 
ATOM      2  C   UNL     1      -0.539  11.235  19.221  0.00  0.00    +0.000 A 
ATOM      3  C   UNL     1      -0.744  10.754  20.528  0.00  0.00    +0.000 A 
ATOM      4  C   UNL     1       0.134   9.700  20.673  0.00  0.00    +0.000 A 
ATOM      5  C   UNL     1       0.391   8.840  21.856  0.00  0.00    +0.000 C 
ATOM      6  N   UNL     1       0.783   9.562  19.451  0.00  0.00    +0.000 N 
ATOM      7  C   UNL     1       1.727   8.553  19.065  0.00  0.00    +0.000 A 
ATOM      8  C   UNL     1       2.314   8.622  17.802  0.00  0.00    +0.000 A 
ATOM      9  C   UNL     1       3.246   7.645  17.442  0.00  0.00    +0.000 A 
ATOM     10  C   UNL     1       3.564   6.618  18.335  0.00  0.00    +0.000 A 
ATOM     11  C   UNL     1       2.911   6.618  19.560  0.00  0.00    +0.000 A 
ATOM     12  N   UNL     1       2.015   7.553  19.941  0.00  0.00    +0.000 NA
ATOM     13  N   UNL     1       0.402  10.541  18.578  0.00  0.00    +0.000 NA
ENDROOT
BRANCH  10  14
ATOM     14  C   UNL     1       4.551   5.537  17.994  0.00  0.00    +0.000 C 
BRANCH  14  15
ATOM     15  N   UNL     1       4.104   4.750  16.848  0.00  0.00    +0.000 NA
ATOM     16  H   UNL     1       4.769   4.862  16.084  0.00  0.00    +0.000 HD
BRANCH  15  17
ATOM     17  C   UNL     1       4.001   3.333  17.189  0.00  0.00    +0.000 C 
BRANCH  17  18
ATOM     18  C   UNL     1       3.105   3.139  18.391  0.00  0.00    +0.000 A 
ATOM     19  C   UNL     1       1.718   3.342  18.297  0.00  0.00    +0.000 A 
ATOM     20  C   UNL     1       0.898   3.165  19.415  0.00  0.00    +0.000 A 
ATOM     21  C   UNL     1       1.460   2.785  20.629  0.00  0.00    +0.000 A 
ATOM     22  F   UNL     1       0.668   2.625  21.697  0.00  0.00    +0.000 F 
ATOM     23  C   UNL     1       2.827   2.577  20.733  0.00  0.00    +0.000 A 
ATOM     24  F   UNL     1       3.367   2.210  21.904  0.00  0.00    +0.000 F 
ATOM     25  C   UNL     1       3.651   2.748  19.625  0.00  0.00    +0.000 A 
ENDBRANCH  17  18
ENDBRANCH  15  17
ENDBRANCH  14  15
ENDBRANCH  10  14
TORSDOF 4
ENDMDL
MODEL 2
REMARK VINA RESULT:      -7.6      0.969      1.924
REMARK  Name = 
REMARK  6 active torsions:
REMARK  status: ('A' for Active; 'I' for Inactive)
REMARK    1  A    between atoms: C_1  and  C_2
REMARK    2  A    between atoms: C_4  and  C_5
REMARK    3  A    between atoms: C_10  and  C_11
REMARK    4  A    between atoms: C_11  and  N_12
REMARK    5  A    between atoms: N_12  and  C_13
REMARK    6  A    between atoms: C_13  and  C_14
REMARK                            x       y       z     vdW  Elec       q    Type
REMARK                         _______ _______ _______ _____ _____    ______ ____
ROOT
ATOM      1  C   UNL     1      -0.865  10.222  23.211  0.00  0.00    +0.000 C 
ATOM      2  C   UNL     1      -0.315  10.117  21.839  0.00  0.00    +0.000 A 
ATOM      3  C   UNL     1      -0.458  11.028  20.775  0.00  0.00    +0.000 A 
ATOM      4  C   UNL     1       0.242  10.476  19.723  0.00  0.00    +0.000 A 
ATOM      5  C   UNL     1       0.405  10.972  18.333  0.00  0.00    +0.000 C 
ATOM      6  N   UNL     1       0.810   9.302  20.205  0.00  0.00    +0.000 N 
ATOM      7  C   UNL     1       1.703   8.411  19.521  0.00  0.00    +0.000 A 
ATOM      8  C   UNL     1       2.120   7.245  20.165  0.00  0.00    +0.000 A 
ATOM      9  C   UNL     1       2.975   6.375  19.484  0.00  0.00    +0.000 A 
ATOM     10  C   UNL     1       3.407   6.685  18.191  0.00  0.00    +0.000 A 
ATOM     11  C   UNL     1       2.959   7.879  17.643  0.00  0.00    +0.000 A 
ATOM     12  N   UNL     1       2.124   8.735  18.270  0.00  0.00    +0.000 NA
ATOM     13  N   UNL     1       0.422   9.061  21.492  0.00  0.00    +0.000 NA
ENDROOT
BRANCH  10  14
ATOM     14  C   UNL     1       4.335   5.789  17.419  0.00  0.00    +0.000 C 
BRANCH  14  15
ATOM     15  N   UNL     1       3.608   4.698  16.776  0.00  0.00    +0.000 NA
ATOM     16  H   UNL     1       3.846   4.674  15.785  0.00  0.00    +0.000 HD
BRANCH  15  17
ATOM     17  C   UNL     1       3.947   3.411  17.380  0.00  0.00    +0.000 C 
BRANCH  17  18
ATOM     18  C   UNL     1       3.065   3.136  18.575  0.00  0.00    +0.000 A 
ATOM     19  C   UNL     1       1.667   3.240  18.480  0.00  0.00    +0.000 A 
ATOM     20  C   UNL     1       0.860   2.988  19.593  0.00  0.00    +0.000 A 
ATOM     21  C   UNL     1       1.445   2.631  20.803  0.00  0.00    +0.000 A 
ATOM     22  F   UNL     1       0.664   2.399  21.867  0.00  0.00    +0.000 F 
ATOM     23  C   UNL     1       2.824   2.520  20.908  0.00  0.00    +0.000 A 
ATOM     24  F   UNL     1       3.386   2.175  22.075  0.00  0.00    +0.000 F 
ATOM     25  C   UNL     1       3.636   2.766  19.805  0.00  0.00    +0.000 A 
ENDBRANCH  17  18
ENDBRANCH  15  17
ENDBRANCH  14  15
ENDBRANCH  10  14
TORSDOF 4
ENDMDL
MODEL 3
REMARK VINA RESULT:      -7.5      3.249      4.948
REMARK  Name = 
REMARK  6 active torsions:
REMARK  status: ('A' for Active; 'I' for Inactive)
REMARK    1  A    between atoms: C_1  and  C_2
REMARK    2  A    between atoms: C_4  and  C_5
REMARK    3  A    between atoms: C_10  and  C_11
REMARK    4  A    between atoms: C_11  and  N_12
REMARK    5  A    between atoms: N_12  and  C_13
REMARK    6  A    between atoms: C_13  and  C_14
REMARK                            x       y       z     vdW  Elec       q    Type
REMARK                         _______ _______ _______ _____ _____    ______ ____
ROOT
ATOM      1  C   UNL     1       0.393   9.511  23.552  0.00  0.00    +0.000 C 
ATOM      2  C   UNL     1       0.749   9.210  22.145  0.00  0.00    +0.000 A 
ATOM      3  C   UNL     1       0.797  10.097  21.053  0.00  0.00    +0.000 A 
ATOM      4  C   UNL     1       1.187   9.330  19.975  0.00  0.00    +0.000 A 
ATOM      5  C   UNL     1       1.364   9.720  18.553  0.00  0.00    +0.000 C 
ATOM      6  N   UNL     1       1.404   8.048  20.466  0.00  0.00    +0.000 N 
ATOM      7  C   UNL     1       1.905   6.906  19.755  0.00  0.00    +0.000 A 
ATOM      8  C   UNL     1       1.996   5.683  20.418  0.00  0.00    +0.000 A 
ATOM      9  C   UNL     1       2.469   4.573  19.712  0.00  0.00    +0.000 A 
ATOM     10  C   UNL     1       2.850   4.704  18.374  0.00  0.00    +0.000 A 
ATOM     11  C   UNL     1       2.747   5.967  17.806  0.00  0.00    +0.000 A 
ATOM     12  N   UNL     1       2.284   7.055  18.458  0.00  0.00    +0.000 NA
ATOM     13  N   UNL     1       1.084   7.968  21.791  0.00  0.00    +0.000 NA
ENDROOT
BRANCH  10  14
ATOM     14  C   UNL     1       3.375   3.545  17.573  0.00  0.00    +0.000 C 
BRANCH  14  15
ATOM     15  N   UNL     1       4.817   3.388  17.746  0.00  0.00    +0.000 NA
ATOM     16  H   UNL     1       5.061   2.403  17.650  0.00  0.00    +0.000 HD
BRANCH  15  17
ATOM     17  C   UNL     1       5.554   4.163  16.751  0.00  0.00    +0.000 C 
BRANCH  17  18
ATOM     18  C   UNL     1       6.459   5.170  17.424  0.00  0.00    +0.000 A 
ATOM     19  C   UNL     1       7.110   4.862  18.630  0.00  0.00    +0.000 A 
ATOM     20  C   UNL     1       7.940   5.802  19.247  0.00  0.00    +0.000 A 
ATOM     21  C   UNL     1       8.123   7.050  18.663  0.00  0.00    +0.000 A 
ATOM     22  F   UNL     1       8.914   7.948  19.266  0.00  0.00    +0.000 F 
ATOM     23  C   UNL     1       7.489   7.364  17.470  0.00  0.00    +0.000 A 
ATOM     24  F   UNL     1       7.666   8.569  16.908  0.00  0.00    +0.000 F 
ATOM     25  C   UNL     1       6.663   6.434  16.846  0.00  0.00    +0.000 A 
ENDBRANCH  17  18
ENDBRANCH  15  17
ENDBRANCH  14  15
ENDBRANCH  10  14
TORSDOF 4
ENDMDL
MODEL 4
REMARK VINA RESULT:      -7.4      2.925      4.114
REMARK  Name = 
REMARK  6 active torsions:
REMARK  status: ('A' for Active; 'I' for Inactive)
REMARK    1  A    between atoms: C_1  and  C_2
REMARK    2  A    between atoms: C_4  and  C_5
REMARK    3  A    between atoms: C_10  and  C_11
REMARK    4  A    between atoms: C_11  and  N_12
REMARK    5  A    between atoms: N_12  and  C_13
REMARK    6  A    between atoms: C_13  and  C_14
REMARK                            x       y       z     vdW  Elec       q    Type
REMARK                         _______ _______ _______ _____ _____    ______ ____
ROOT
ATOM      1  C   UNL     1       1.030  12.614  18.467  0.00  0.00    +0.000 C 
ATOM      2  C   UNL     1       1.052  11.425  19.352  0.00  0.00    +0.000 A 
ATOM      3  C   UNL     1       0.624  11.331  20.689  0.00  0.00    +0.000 A 
ATOM      4  C   UNL     1       0.847  10.020  21.055  0.00  0.00    +0.000 A 
ATOM      5  C   UNL     1       0.627   9.354  22.363  0.00  0.00    +0.000 C 
ATOM      6  N   UNL     1       1.343   9.379  19.925  0.00  0.00    +0.000 N 
ATOM      7  C   UNL     1       1.650   7.986  19.767  0.00  0.00    +0.000 A 
ATOM      8  C   UNL     1       2.198   7.547  18.562  0.00  0.00    +0.000 A 
ATOM      9  C   UNL     1       2.509   6.192  18.424  0.00  0.00    +0.000 A 
ATOM     10  C   UNL     1       2.260   5.304  19.475  0.00  0.00    +0.000 A 
ATOM     11  C   UNL     1       1.689   5.830  20.626  0.00  0.00    +0.000 A 
ATOM     12  N   UNL     1       1.388   7.135  20.794  0.00  0.00    +0.000 NA
ATOM     13  N   UNL     1       1.515  10.260  18.896  0.00  0.00    +0.000 NA
ENDROOT
BRANCH  10  14
ATOM     14  C   UNL     1       2.566   3.836  19.374  0.00  0.00    +0.000 C 
BRANCH  14  15
ATOM     15  N   UNL     1       3.660   3.584  18.440  0.00  0.00    +0.000 NA
ATOM     16  H   UNL     1       3.616   4.263  17.680  0.00  0.00    +0.000 HD
BRANCH  15  17
ATOM     17  C   UNL     1       4.956   3.694  19.105  0.00  0.00    +0.000 C 
BRANCH  17  18
ATOM     18  C   UNL     1       5.792   4.779  18.466  0.00  0.00    +0.000 A 
ATOM     19  C   UNL     1       5.520   5.225  17.162  0.00  0.00    +0.000 A 
ATOM     20  C   UNL     1       6.302   6.225  16.577  0.00  0.00    +0.000 A 
ATOM     21  C   UNL     1       7.356   6.783  17.292  0.00  0.00    +0.000 A 
ATOM     22  F   UNL     1       8.105   7.736  16.721  0.00  0.00    +0.000 F 
ATOM     23  C   UNL     1       7.631   6.355  18.583  0.00  0.00    +0.000 A 
ATOM     24  F   UNL     1       8.648   6.894  19.271  0.00  0.00    +0.000 F 
ATOM     25  C   UNL     1       6.856   5.361  19.174  0.00  0.00    +0.000 A 
ENDBRANCH  17  18
ENDBRANCH  15  17
ENDBRANCH  14  15
ENDBRANCH  10  14
TORSDOF 4
ENDMDL
MODEL 5
REMARK VINA RESULT:      -7.3      1.294      2.436
REMARK  Name = 
REMARK  6 active torsions:
REMARK  status: ('A' for Active; 'I' for Inactive)
REMARK    1  A    between atoms: C_1  and  C_2
REMARK    2  A    between atoms: C_4  and  C_5
REMARK    3  A    between atoms: C_10  and  C_11
REMARK    4  A    between atoms: C_11  and  N_12
REMARK    5  A    between atoms: N_12  and  C_13
REMARK    6  A    between atoms: C_13  and  C_14
REMARK                            x       y       z     vdW  Elec       q    Type
REMARK                         _______ _______ _______ _____ _____    ______ ____
ROOT
ATOM      1  C   UNL     1      -0.756  10.013  23.331  0.00  0.00    +0.000 C 
ATOM      2  C   UNL     1      -0.245  10.040  21.940  0.00  0.00    +0.000 A 
ATOM      3  C   UNL     1      -0.425  11.044  20.969  0.00  0.00    +0.000 A 
ATOM      4  C   UNL     1       0.249  10.597  19.851  0.00  0.00    +0.000 A 
ATOM      5  C   UNL     1       0.369  11.220  18.509  0.00  0.00    +0.000 C 
ATOM      6  N   UNL     1       0.838   9.388  20.206  0.00  0.00    +0.000 N 
ATOM      7  C   UNL     1       1.716   8.572  19.418  0.00  0.00    +0.000 A 
ATOM      8  C   UNL     1       2.157   7.356  19.939  0.00  0.00    +0.000 A 
ATOM      9  C   UNL     1       2.998   6.559  19.157  0.00  0.00    +0.000 A 
ATOM     10  C   UNL     1       3.390   6.991  17.886  0.00  0.00    +0.000 A 
ATOM     11  C   UNL     1       2.920   8.227  17.464  0.00  0.00    +0.000 A 
ATOM     12  N   UNL     1       2.098   9.014  18.191  0.00  0.00    +0.000 NA
ATOM     13  N   UNL     1       0.488   9.026  21.476  0.00  0.00    +0.000 NA
ENDROOT
BRANCH  10  14
ATOM     14  C   UNL     1       4.301   6.178  17.009  0.00  0.00    +0.000 C 
BRANCH  14  15
ATOM     15  N   UNL     1       5.173   5.315  17.803  0.00  0.00    +0.000 NA
ATOM     16  H   UNL     1       5.040   5.523  18.792  0.00  0.00    +0.000 HD
BRANCH  15  17
ATOM     17  C   UNL     1       4.875   3.905  17.566  0.00  0.00    +0.000 C 
BRANCH  17  18
ATOM     18  C   UNL     1       3.807   3.419  18.519  0.00  0.00    +0.000 A 
ATOM     19  C   UNL     1       4.086   3.239  19.884  0.00  0.00    +0.000 A 
ATOM     20  C   UNL     1       3.094   2.784  20.757  0.00  0.00    +0.000 A 
ATOM     21  C   UNL     1       1.821   2.508  20.270  0.00  0.00    +0.000 A 
ATOM     22  F   UNL     1       0.878   2.065  21.112  0.00  0.00    +0.000 F 
ATOM     23  C   UNL     1       1.532   2.687  18.925  0.00  0.00    +0.000 A 
ATOM     24  F   UNL     1       0.304   2.421  18.457  0.00  0.00    +0.000 F 
ATOM     25  C   UNL     1       2.513   3.142  18.049  0.00  0.00    +0.000 A 
ENDBRANCH  17  18
ENDBRANCH  15  17
ENDBRANCH  14  15
ENDBRANCH  10  14
TORSDOF 4
ENDMDL
MODEL 6
REMARK VINA RESULT:      -7.3      3.261      4.422
REMARK  Name = 
REMARK  6 active torsions:
REMARK  status: ('A' for Active; 'I' for Inactive)
REMARK    1  A    between atoms: C_1  and  C_2
REMARK    2  A    between atoms: C_4  and  C_5
REMARK    3  A    between atoms: C_10  and  C_11
REMARK    4  A    between atoms: C_11  and  N_12
REMARK    5  A    between atoms: N_12  and  C_13
REMARK    6  A    between atoms: C_13  and  C_14
REMARK                            x       y       z     vdW  Elec       q    Type
REMARK                         _______ _______ _______ _____ _____    ______ ____
ROOT
ATOM      1  C   UNL     1       0.882  12.772  18.343  0.00  0.00    +0.000 C 
ATOM      2  C   UNL     1       0.938  11.597  19.245  0.00  0.00    +0.000 A 
ATOM      3  C   UNL     1       0.499  11.506  20.579  0.00  0.00    +0.000 A 
ATOM      4  C   UNL     1       0.767  10.209  20.965  0.00  0.00    +0.000 A 
ATOM      5  C   UNL     1       0.558   9.553  22.281  0.00  0.00    +0.000 C 
ATOM      6  N   UNL     1       1.298   9.571  19.850  0.00  0.00    +0.000 N 
ATOM      7  C   UNL     1       1.657   8.188  19.715  0.00  0.00    +0.000 A 
ATOM      8  C   UNL     1       2.234   7.752  18.522  0.00  0.00    +0.000 A 
ATOM      9  C   UNL     1       2.596   6.408  18.407  0.00  0.00    +0.000 A 
ATOM     10  C   UNL     1       2.368   5.527  19.468  0.00  0.00    +0.000 A 
ATOM     11  C   UNL     1       1.766   6.047  20.605  0.00  0.00    +0.000 A 
ATOM     12  N   UNL     1       1.415   7.343  20.752  0.00  0.00    +0.000 NA
ATOM     13  N   UNL     1       1.449  10.443  18.810  0.00  0.00    +0.000 NA
ENDROOT
BRANCH  10  14
ATOM     14  C   UNL     1       2.728   4.069  19.391  0.00  0.00    +0.000 C 
BRANCH  14  15
ATOM     15  N   UNL     1       3.478   3.770  18.174  0.00  0.00    +0.000 NA
ATOM     16  H   UNL     1       3.170   4.394  17.428  0.00  0.00    +0.000 HD
BRANCH  15  17
ATOM     17  C   UNL     1       4.913   3.948  18.382  0.00  0.00    +0.000 C 
BRANCH  17  18
ATOM     18  C   UNL     1       5.606   4.263  17.076  0.00  0.00    +0.000 A 
ATOM     19  C   UNL     1       6.906   4.796  17.060  0.00  0.00    +0.000 A 
ATOM     20  C   UNL     1       7.536   5.089  15.847  0.00  0.00    +0.000 A 
ATOM     21  C   UNL     1       6.872   4.850  14.649  0.00  0.00    +0.000 A 
ATOM     22  F   UNL     1       7.481   5.141  13.492  0.00  0.00    +0.000 F 
ATOM     23  C   UNL     1       5.591   4.319  14.652  0.00  0.00    +0.000 A 
ATOM     24  F   UNL     1       4.952   4.089  13.496  0.00  0.00    +0.000 F 
ATOM     25  C   UNL     1       4.956   4.021  15.855  0.00  0.00    +0.000 A 
ENDBRANCH  17  18
ENDBRANCH  15  17
ENDBRANCH  14  15
ENDBRANCH  10  14
TORSDOF 4
ENDMDL
MODEL 7
REMARK VINA RESULT:      -7.2      2.490      4.117
REMARK  Name = 
REMARK  6 active torsions:
REMARK  status: ('A' for Active; 'I' for Inactive)
REMARK    1  A    between atoms: C_1  and  C_2
REMARK    2  A    between atoms: C_4  and  C_5
REMARK    3  A    between atoms: C_10  and  C_11
REMARK    4  A    between atoms: C_11  and  N_12
REMARK    5  A    between atoms: N_12  and  C_13
REMARK    6  A    between atoms: C_13  and  C_14
REMARK                            x       y       z     vdW  Elec       q    Type
REMARK                         _______ _______ _______ _____ _____    ______ ____
ROOT
ATOM      1  C   UNL     1      -3.962  10.335  13.985  0.00  0.00    +0.000 C 
ATOM      2  C   UNL     1      -3.604  10.616  15.396  0.00  0.00    +0.000 A 
ATOM      3  C   UNL     1      -4.357  11.312  16.361  0.00  0.00    +0.000 A 
ATOM      4  C   UNL     1      -3.592  11.292  17.508  0.00  0.00    +0.000 A 
ATOM      5  C   UNL     1      -3.859  11.906  18.833  0.00  0.00    +0.000 C 
ATOM      6  N   UNL     1      -2.453  10.553  17.205  0.00  0.00    +0.000 N 
ATOM      7  C   UNL     1      -1.390  10.172  18.090  0.00  0.00    +0.000 A 
ATOM      8  C   UNL     1      -0.298   9.474  17.575  0.00  0.00    +0.000 A 
ATOM      9  C   UNL     1       0.740   9.123  18.441  0.00  0.00    +0.000 A 
ATOM     10  C   UNL     1       0.667   9.459  19.796  0.00  0.00    +0.000 A 
ATOM     11  C   UNL     1      -0.470  10.132  20.221  0.00  0.00    +0.000 A 
ATOM     12  N   UNL     1      -1.484  10.496  19.407  0.00  0.00    +0.000 NA
ATOM     13  N   UNL     1      -2.443  10.183  15.890  0.00  0.00    +0.000 NA
ENDROOT
BRANCH  10  14
ATOM     14  C   UNL     1       1.752   9.096  20.771  0.00  0.00    +0.000 C 
BRANCH  14  15
ATOM     15  N   UNL     1       1.829   7.651  20.967  0.00  0.00    +0.000 NA
ATOM     16  H   UNL     1       0.889   7.257  20.935  0.00  0.00    +0.000 HD
BRANCH  15  17
ATOM     17  C   UNL     1       2.647   7.022  19.932  0.00  0.00    +0.000 C 
BRANCH  17  18
ATOM     18  C   UNL     1       2.112   5.651  19.590  0.00  0.00    +0.000 A 
ATOM     19  C   UNL     1       2.034   5.218  18.256  0.00  0.00    +0.000 A 
ATOM     20  C   UNL     1       1.533   3.950  17.950  0.00  0.00    +0.000 A 
ATOM     21  C   UNL     1       1.108   3.110  18.974  0.00  0.00    +0.000 A 
ATOM     22  F   UNL     1       0.622   1.899  18.671  0.00  0.00    +0.000 F 
ATOM     23  C   UNL     1       1.185   3.524  20.296  0.00  0.00    +0.000 A 
ATOM     24  F   UNL     1       0.775   2.713  21.282  0.00  0.00    +0.000 F 
ATOM     25  C   UNL     1       1.685   4.784  20.611  0.00  0.00    +0.000 A 
ENDBRANCH  17  18
ENDBRANCH  15  17
ENDBRANCH  14  15
ENDBRANCH  10  14
TORSDOF 4
ENDMDL
MODEL 8
REMARK VINA RESULT:      -7.2      3.781      8.198
REMARK  Name = 
REMARK  6 active torsions:
REMARK  status: ('A' for Active; 'I' for Inactive)
REMARK    1  A    between atoms: C_1  and  C_2
REMARK    2  A    between atoms: C_4  and  C_5
REMARK    3  A    between atoms: C_10  and  C_11
REMARK    4  A    between atoms: C_11  and  N_12
REMARK    5  A    between atoms: N_12  and  C_13
REMARK    6  A    between atoms: C_13  and  C_14
REMARK                            x       y       z     vdW  Elec       q    Type
REMARK                         _______ _______ _______ _____ _____    ______ ____
ROOT
ATOM      1  C   UNL     1       4.057   2.289  19.146  0.00  0.00    +0.000 C 
ATOM      2  C   UNL     1       3.887   3.715  18.780  0.00  0.00    +0.000 A 
ATOM      3  C   UNL     1       4.402   4.390  17.657  0.00  0.00    +0.000 A 
ATOM      4  C   UNL     1       3.957   5.690  17.774  0.00  0.00    +0.000 A 
ATOM      5  C   UNL     1       4.223   6.862  16.902  0.00  0.00    +0.000 C 
ATOM      6  N   UNL     1       3.163   5.730  18.915  0.00  0.00    +0.000 N 
ATOM      7  C   UNL     1       2.400   6.836  19.419  0.00  0.00    +0.000 A 
ATOM      8  C   UNL     1       1.710   6.690  20.622  0.00  0.00    +0.000 A 
ATOM      9  C   UNL     1       0.984   7.778  21.113  0.00  0.00    +0.000 A 
ATOM     10  C   UNL     1       0.949   8.978  20.396  0.00  0.00    +0.000 A 
ATOM     11  C   UNL     1       1.646   9.020  19.196  0.00  0.00    +0.000 A 
ATOM     12  N   UNL     1       2.366   7.990  18.701  0.00  0.00    +0.000 NA
ATOM     13  N   UNL     1       3.166   4.525  19.558  0.00  0.00    +0.000 NA
ENDROOT
BRANCH  10  14
ATOM     14  C   UNL     1       0.175  10.175  20.874  0.00  0.00    +0.000 C 
BRANCH  14  15
ATOM     15  N   UNL     1       0.017  11.165  19.812  0.00  0.00    +0.000 NA
ATOM     16  H   UNL     1       0.212  10.726  18.912  0.00  0.00    +0.000 HD
BRANCH  15  17
ATOM     17  C   UNL     1      -1.339  11.707  19.795  0.00  0.00    +0.000 C 
BRANCH  17  18
ATOM     18  C   UNL     1      -2.074  11.265  18.550  0.00  0.00    +0.000 A 
ATOM     19  C   UNL     1      -1.500  10.337  17.665  0.00  0.00    +0.000 A 
ATOM     20  C   UNL     1      -2.185   9.938  16.513  0.00  0.00    +0.000 A 
ATOM     21  C   UNL     1      -3.443  10.464  16.242  0.00  0.00    +0.000 A 
ATOM     22  F   UNL     1      -4.089  10.083  15.132  0.00  0.00    +0.000 F 
ATOM     23  C   UNL     1      -4.022  11.378  17.111  0.00  0.00    +0.000 A 
ATOM     24  F   UNL     1      -5.235  11.884  16.848  0.00  0.00    +0.000 F 
ATOM     25  C   UNL     1      -3.349  11.779  18.262  0.00  0.00    +0.000 A 
ENDBRANCH  17  18
ENDBRANCH  15  17
ENDBRANCH  14  15
ENDBRANCH  10  14
TORSDOF 4
ENDMDL
MODEL 9
REMARK VINA RESULT:      -7.2      3.524      7.758
REMARK  Name = 
REMARK  6 active torsions:
REMARK  status: ('A' for Active; 'I' for Inactive)
REMARK    1  A    between atoms: C_1  and  C_2
REMARK    2  A    between atoms: C_4  and  C_5
REMARK    3  A    between atoms: C_10  and  C_11
REMARK    4  A    between atoms: C_11  and  N_12
REMARK    5  A    between atoms: N_12  and  C_13
REMARK    6  A    between atoms: C_13  and  C_14
REMARK                            x       y       z     vdW  Elec       q    Type
REMARK                         _______ _______ _______ _____ _____    ______ ____
ROOT
ATOM      1  C   UNL     1       6.111   3.508  13.030  0.00  0.00    +0.000 C 
ATOM      2  C   UNL     1       6.120   4.220  14.330  0.00  0.00    +0.000 A 
ATOM      3  C   UNL     1       7.133   5.038  14.864  0.00  0.00    +0.000 A 
ATOM      4  C   UNL     1       6.656   5.462  16.087  0.00  0.00    +0.000 A 
ATOM      5  C   UNL     1       7.311   6.312  17.113  0.00  0.00    +0.000 C 
ATOM      6  N   UNL     1       5.377   4.932  16.212  0.00  0.00    +0.000 N 
ATOM      7  C   UNL     1       4.431   5.155  17.268  0.00  0.00    +0.000 A 
ATOM      8  C   UNL     1       3.211   4.479  17.238  0.00  0.00    +0.000 A 
ATOM      9  C   UNL     1       2.304   4.690  18.279  0.00  0.00    +0.000 A 
ATOM     10  C   UNL     1       2.620   5.572  19.317  0.00  0.00    +0.000 A 
ATOM     11  C   UNL     1       3.847   6.218  19.247  0.00  0.00    +0.000 A 
ATOM     12  N   UNL     1       4.749   6.027  18.261  0.00  0.00    +0.000 NA
ATOM     13  N   UNL     1       5.072   4.127  15.152  0.00  0.00    +0.000 NA
ENDROOT
BRANCH  10  14
ATOM     14  C   UNL     1       1.676   5.842  20.455  0.00  0.00    +0.000 C 
BRANCH  14  15
ATOM     15  N   UNL     1       1.872   7.182  21.002  0.00  0.00    +0.000 NA
ATOM     16  H   UNL     1       2.361   7.757  20.316  0.00  0.00    +0.000 HD
BRANCH  15  17
ATOM     17  C   UNL     1       0.594   7.810  21.328  0.00  0.00    +0.000 C 
BRANCH  17  18
ATOM     18  C   UNL     1       0.484   9.167  20.671  0.00  0.00    +0.000 A 
ATOM     19  C   UNL     1      -0.340  10.167  21.213  0.00  0.00    +0.000 A 
ATOM     20  C   UNL     1      -0.439  11.417  20.595  0.00  0.00    +0.000 A 
ATOM     21  C   UNL     1       0.283  11.671  19.435  0.00  0.00    +0.000 A 
ATOM     22  F   UNL     1       0.176  12.869  18.845  0.00  0.00    +0.000 F 
ATOM     23  C   UNL     1       1.104  10.694  18.893  0.00  0.00    +0.000 A 
ATOM     24  F   UNL     1       1.801  10.941  17.774  0.00  0.00    +0.000 F 
ATOM     25  C   UNL     1       1.212   9.447  19.502  0.00  0.00    +0.000 A 
ENDBRANCH  17  18
ENDBRANCH  15  17
ENDBRANCH  14  15
ENDBRANCH  10  14
TORSDOF 4
ENDMDL
