MODEL 1
REMARK VINA RESULT:      -7.2      0.000      0.000
REMARK  Name = 
REMARK  6 active torsions:
REMARK  status: ('A' for Active; 'I' for Inactive)
REMARK    1  A    between atoms: C_1  and  N_2
REMARK    2  A    between atoms: C_7  and  C_8
REMARK    3  A    between atoms: N_10  and  C_11
REMARK    4  A    between atoms: C_16  and  C_17
REMARK    5  A    between atoms: C_17  and  N_18
REMARK    6  A    between atoms: C_19  and  C_21
REMARK                            x       y       z     vdW  Elec       q    Type
REMARK                         _______ _______ _______ _____ _____    ______ ____
ROOT
ATOM      1  C   UNL     1       1.813   3.220  19.313  0.00  0.00    +0.000 C 
ATOM      2  C   UNL     1       1.047   2.848  20.595  0.00  0.00    +0.000 C 
ATOM      3  C   UNL     1       1.943   2.768  21.829  0.00  0.00    +0.000 C 
ATOM      4  C   UNL     1       3.129   1.840  21.600  0.00  0.00    +0.000 C 
ATOM      5  C   UNL     1       3.921   2.238  20.357  0.00  0.00    +0.000 C 
ATOM      6  C   UNL     1       3.032   2.289  19.101  0.00  0.00    +0.000 C 
ENDROOT
BRANCH   1   9
ATOM      7  C   UNL     1       1.780   5.509  18.293  0.00  0.00    +0.000 C 
ATOM      8  O   UNL     1       1.187   5.171  17.296  0.00  0.00    +0.000 OA
ATOM      9  N   UNL     1       2.184   4.637  19.319  0.00  0.00    +0.000 N 
ATOM     10  H   UNL     1       2.663   5.038  20.119  0.00  0.00    +0.000 HD
BRANCH   7  17
ATOM     11  C   UNL     1      -1.326  11.310  19.984  0.00  0.00    +0.000 C 
ATOM     12  N   UNL     1      -0.488  10.205  19.581  0.00  0.00    +0.000 NA
ATOM     13  C   UNL     1      -0.241  10.135  18.127  0.00  0.00    +0.000 C 
ATOM     14  C   UNL     1       1.241  10.235  17.762  0.00  0.00    +0.000 C 
ATOM     15  C   UNL     1       2.032   9.139  18.473  0.00  0.00    +0.000 C 
ATOM     16  N   UNL     1       2.095   7.899  17.642  0.00  0.00    +0.000 NA
ATOM     17  C   UNL     1       2.203   6.946  18.520  0.00  0.00    +0.000 C 
ATOM     18  S   UNL     1       2.318   7.320  20.237  0.00  0.00    +0.000 S 
ATOM     19  C   UNL     1       1.306   8.717  19.767  0.00  0.00    +0.000 C 
ATOM     20  C   UNL     1       0.683   9.919  20.451  0.00  0.00    +0.000 C 
ENDBRANCH   7  17
ENDBRANCH   1   9
BRANCH   6  21
ATOM     21  C   UNL     1       3.840   2.697  17.860  0.00  0.00    +0.000 C 
BRANCH  21  22
ATOM     22  N   UNL     1       4.806   3.736  18.134  0.00  0.00    +0.000 N 
ATOM     23  C   UNL     1       5.629   4.269  17.163  0.00  0.00    +0.000 C 
ATOM     24  O   UNL     1       5.594   3.885  15.997  0.00  0.00    +0.000 OA
ATOM     25  H   UNL     1       4.842   4.142  19.063  0.00  0.00    +0.000 HD
BRANCH  23  26
ATOM     26  C   UNL     1       6.525   5.320  17.636  0.00  0.00    +0.000 A 
ATOM     27  C   UNL     1       7.530   5.233  18.586  0.00  0.00    +0.000 A 
ATOM     28  C   UNL     1       8.200   6.483  18.777  0.00  0.00    +0.000 A 
ATOM     29  C   UNL     1       7.668   7.459  17.980  0.00  0.00    +0.000 A 
ATOM     30 CL   UNL     1       8.146   9.103  17.886  0.00  0.00    +0.000 Cl
ATOM     31  S   UNL     1       6.411   6.916  17.001  0.00  0.00    +0.000 S 
ENDBRANCH  23  26
ENDBRANCH  21  22
ENDBRANCH   6  21
TORSDOF 5
ENDMDL
MODEL 2
REMARK VINA RESULT:      -7.0      2.228      2.560
REMARK  Name = 
REMARK  6 active torsions:
REMARK  status: ('A' for Active; 'I' for Inactive)
REMARK    1  A    between atoms: C_1  and  N_2
REMARK    2  A    between atoms: C_7  and  C_8
REMARK    3  A    between atoms: N_10  and  C_11
REMARK    4  A    between atoms: C_16  and  C_17
REMARK    5  A    between atoms: C_17  and  N_18
REMARK    6  A    between atoms: C_19  and  C_21
REMARK                            x       y       z     vdW  Elec       q    Type
REMARK                         _______ _______ _______ _____ _____    ______ ____
ROOT
ATOM      1  C   UNL     1       2.506   3.923  18.970  0.00  0.00    +0.000 C 
ATOM      2  C   UNL     1       1.076   3.394  19.180  0.00  0.00    +0.000 C 
ATOM      3  C   UNL     1       0.715   3.205  20.652  0.00  0.00    +0.000 C 
ATOM      4  C   UNL     1       1.740   2.339  21.372  0.00  0.00    +0.000 C 
ATOM      5  C   UNL     1       3.154   2.889  21.209  0.00  0.00    +0.000 C 
ATOM      6  C   UNL     1       3.539   3.052  19.727  0.00  0.00    +0.000 C 
ENDROOT
BRANCH   1   9
ATOM      7  C   UNL     1       2.083   6.346  18.492  0.00  0.00    +0.000 C 
ATOM      8  O   UNL     1       1.614   6.157  17.396  0.00  0.00    +0.000 OA
ATOM      9  N   UNL     1       2.598   5.339  19.328  0.00  0.00    +0.000 N 
ATOM     10  H   UNL     1       2.952   5.616  20.239  0.00  0.00    +0.000 HD
BRANCH   7  17
ATOM     11  C   UNL     1      -2.103  11.576  19.622  0.00  0.00    +0.000 C 
ATOM     12  N   UNL     1      -1.049  10.608  19.432  0.00  0.00    +0.000 NA
ATOM     13  C   UNL     1      -0.254  10.814  18.204  0.00  0.00    +0.000 C 
ATOM     14  C   UNL     1       1.230  11.056  18.480  0.00  0.00    +0.000 C 
ATOM     15  C   UNL     1       1.811   9.892  19.282  0.00  0.00    +0.000 C 
ATOM     16  N   UNL     1       2.337   8.827  18.375  0.00  0.00    +0.000 NA
ATOM     17  C   UNL     1       2.211   7.738  19.075  0.00  0.00    +0.000 C 
ATOM     18  S   UNL     1       1.611   7.803  20.730  0.00  0.00    +0.000 S 
ATOM     19  C   UNL     1       0.699   9.207  20.102  0.00  0.00    +0.000 C 
ATOM     20  C   UNL     1      -0.278  10.231  20.646  0.00  0.00    +0.000 C 
ENDBRANCH   7  17
ENDBRANCH   1   9
BRANCH   6  21
ATOM     21  C   UNL     1       4.962   3.612  19.577  0.00  0.00    +0.000 C 
BRANCH  21  22
ATOM     22  N   UNL     1       5.399   3.675  18.200  0.00  0.00    +0.000 N 
ATOM     23  C   UNL     1       5.639   4.865  17.545  0.00  0.00    +0.000 C 
ATOM     24  O   UNL     1       5.488   5.953  18.093  0.00  0.00    +0.000 OA
ATOM     25  H   UNL     1       5.604   2.811  17.709  0.00  0.00    +0.000 HD
BRANCH  23  26
ATOM     26  C   UNL     1       6.089   4.717  16.164  0.00  0.00    +0.000 A 
ATOM     27  C   UNL     1       7.184   5.303  15.547  0.00  0.00    +0.000 A 
ATOM     28  C   UNL     1       7.303   4.911  14.177  0.00  0.00    +0.000 A 
ATOM     29  C   UNL     1       6.293   4.062  13.813  0.00  0.00    +0.000 A 
ATOM     30 CL   UNL     1       6.032   3.353  12.273  0.00  0.00    +0.000 Cl
ATOM     31  S   UNL     1       5.227   3.710  15.066  0.00  0.00    +0.000 S 
ENDBRANCH  23  26
ENDBRANCH  21  22
ENDBRANCH   6  21
TORSDOF 5
ENDMDL
MODEL 3
REMARK VINA RESULT:      -7.0      7.475     11.920
REMARK  Name = 
REMARK  6 active torsions:
REMARK  status: ('A' for Active; 'I' for Inactive)
REMARK    1  A    between atoms: C_1  and  N_2
REMARK    2  A    between atoms: C_7  and  C_8
REMARK    3  A    between atoms: N_10  and  C_11
REMARK    4  A    between atoms: C_16  and  C_17
REMARK    5  A    between atoms: C_17  and  N_18
REMARK    6  A    between atoms: C_19  and  C_21
REMARK                            x       y       z     vdW  Elec       q    Type
REMARK                         _______ _______ _______ _____ _____    ______ ____
ROOT
ATOM      1  C   UNL     1      -6.414  12.211  18.082  0.00  0.00    +0.000 C 
ATOM      2  C   UNL     1      -6.724  13.106  16.870  0.00  0.00    +0.000 C 
ATOM      3  C   UNL     1      -6.889  14.580  17.236  0.00  0.00    +0.000 C 
ATOM      4  C   UNL     1      -7.916  14.769  18.345  0.00  0.00    +0.000 C 
ATOM      5  C   UNL     1      -7.583  13.921  19.570  0.00  0.00    +0.000 C 
ATOM      6  C   UNL     1      -7.447  12.428  19.215  0.00  0.00    +0.000 C 
ENDROOT
BRANCH   1   9
ATOM      7  C   UNL     1      -4.050  11.422  18.343  0.00  0.00    +0.000 C 
ATOM      8  O   UNL     1      -4.254  10.324  17.883  0.00  0.00    +0.000 OA
ATOM      9  N   UNL     1      -5.035  12.406  18.537  0.00  0.00    +0.000 N 
ATOM     10  H   UNL     1      -4.742  13.301  18.916  0.00  0.00    +0.000 HD
BRANCH   7  17
ATOM     11  C   UNL     1       0.230   9.507  23.259  0.00  0.00    +0.000 C 
ATOM     12  N   UNL     1      -0.541  10.088  22.186  0.00  0.00    +0.000 NA
ATOM     13  C   UNL     1      -1.285  11.305  22.568  0.00  0.00    +0.000 C 
ATOM     14  C   UNL     1      -0.883  12.537  21.755  0.00  0.00    +0.000 C 
ATOM     15  C   UNL     1      -1.070  12.264  20.264  0.00  0.00    +0.000 C 
ATOM     16  N   UNL     1      -2.447  12.641  19.819  0.00  0.00    +0.000 NA
ATOM     17  C   UNL     1      -2.674  11.845  18.816  0.00  0.00    +0.000 C 
ATOM     18  S   UNL     1      -1.429  10.731  18.258  0.00  0.00    +0.000 S 
ATOM     19  C   UNL     1      -0.959  10.752  19.983  0.00  0.00    +0.000 C 
ATOM     20  C   UNL     1       0.112  10.121  20.851  0.00  0.00    +0.000 C 
ENDBRANCH   7  17
ENDBRANCH   1   9
BRANCH   6  21
ATOM     21  C   UNL     1      -7.105  11.588  20.455  0.00  0.00    +0.000 C 
BRANCH  21  22
ATOM     22  N   UNL     1      -6.185  12.254  21.350  0.00  0.00    +0.000 N 
ATOM     23  C   UNL     1      -6.400  12.351  22.709  0.00  0.00    +0.000 C 
ATOM     24  O   UNL     1      -7.398  11.878  23.246  0.00  0.00    +0.000 OA
ATOM     25  H   UNL     1      -5.310  12.610  20.980  0.00  0.00    +0.000 HD
BRANCH  23  26
ATOM     26  C   UNL     1      -5.348  13.046  23.443  0.00  0.00    +0.000 A 
ATOM     27  C   UNL     1      -4.462  12.531  24.376  0.00  0.00    +0.000 A 
ATOM     28  C   UNL     1      -3.567  13.528  24.877  0.00  0.00    +0.000 A 
ATOM     29  C   UNL     1      -3.821  14.750  24.316  0.00  0.00    +0.000 A 
ATOM     30 CL   UNL     1      -3.008  16.228  24.627  0.00  0.00    +0.000 Cl
ATOM     31  S   UNL     1      -5.079  14.729  23.199  0.00  0.00    +0.000 S 
ENDBRANCH  23  26
ENDBRANCH  21  22
ENDBRANCH   6  21
TORSDOF 5
ENDMDL
MODEL 4
REMARK VINA RESULT:      -6.9      7.609     12.144
REMARK  Name = 
REMARK  6 active torsions:
REMARK  status: ('A' for Active; 'I' for Inactive)
REMARK    1  A    between atoms: C_1  and  N_2
REMARK    2  A    between atoms: C_7  and  C_8
REMARK    3  A    between atoms: N_10  and  C_11
REMARK    4  A    between atoms: C_16  and  C_17
REMARK    5  A    between atoms: C_17  and  N_18
REMARK    6  A    between atoms: C_19  and  C_21
REMARK                            x       y       z     vdW  Elec       q    Type
REMARK                         _______ _______ _______ _____ _____    ______ ____
ROOT
ATOM      1  C   UNL     1      -6.475  12.086  18.742  0.00  0.00    +0.000 C 
ATOM      2  C   UNL     1      -6.812  12.677  17.362  0.00  0.00    +0.000 C 
ATOM      3  C   UNL     1      -6.835  14.204  17.351  0.00  0.00    +0.000 C 
ATOM      4  C   UNL     1      -7.752  14.757  18.433  0.00  0.00    +0.000 C 
ATOM      5  C   UNL     1      -7.388  14.212  19.812  0.00  0.00    +0.000 C 
ATOM      6  C   UNL     1      -7.395  12.673  19.840  0.00  0.00    +0.000 C 
ENDROOT
BRANCH   1   9
ATOM      7  C   UNL     1      -4.067  11.457  18.449  0.00  0.00    +0.000 C 
ATOM      8  O   UNL     1      -4.290  10.524  17.715  0.00  0.00    +0.000 OA
ATOM      9  N   UNL     1      -5.054  12.257  19.051  0.00  0.00    +0.000 N 
ATOM     10  H   UNL     1      -4.746  13.027  19.637  0.00  0.00    +0.000 HD
BRANCH   7  17
ATOM     11  C   UNL     1       0.412   9.441  23.143  0.00  0.00    +0.000 C 
ATOM     12  N   UNL     1      -0.399  10.039  22.108  0.00  0.00    +0.000 NA
ATOM     13  C   UNL     1      -1.083  11.281  22.520  0.00  0.00    +0.000 C 
ATOM     14  C   UNL     1      -0.689  12.494  21.678  0.00  0.00    +0.000 C 
ATOM     15  C   UNL     1      -0.964  12.219  20.200  0.00  0.00    +0.000 C 
ATOM     16  N   UNL     1      -2.350  12.635  19.828  0.00  0.00    +0.000 NA
ATOM     17  C   UNL     1      -2.655  11.840  18.844  0.00  0.00    +0.000 C 
ATOM     18  S   UNL     1      -1.477  10.685  18.229  0.00  0.00    +0.000 S 
ATOM     19  C   UNL     1      -0.914  10.702  19.926  0.00  0.00    +0.000 C 
ATOM     20  C   UNL     1       0.183  10.044  20.740  0.00  0.00    +0.000 C 
ENDBRANCH   7  17
ENDBRANCH   1   9
BRANCH   6  21
ATOM     21  C   UNL     1      -7.020  12.137  21.231  0.00  0.00    +0.000 C 
BRANCH  21  22
ATOM     22  N   UNL     1      -6.472  13.157  22.097  0.00  0.00    +0.000 N 
ATOM     23  C   UNL     1      -5.165  13.141  22.537  0.00  0.00    +0.000 C 
ATOM     24  O   UNL     1      -4.382  12.249  22.223  0.00  0.00    +0.000 OA
ATOM     25  H   UNL     1      -7.047  13.956  22.342  0.00  0.00    +0.000 HD
BRANCH  23  26
ATOM     26  C   UNL     1      -4.797  14.266  23.391  0.00  0.00    +0.000 A 
ATOM     27  C   UNL     1      -3.633  14.452  24.120  0.00  0.00    +0.000 A 
ATOM     28  C   UNL     1      -3.637  15.691  24.835  0.00  0.00    +0.000 A 
ATOM     29  C   UNL     1      -4.802  16.379  24.630  0.00  0.00    +0.000 A 
ATOM     30 CL   UNL     1      -5.245  17.897  25.293  0.00  0.00    +0.000 Cl
ATOM     31  S   UNL     1      -5.872  15.596  23.594  0.00  0.00    +0.000 S 
ENDBRANCH  23  26
ENDBRANCH  21  22
ENDBRANCH   6  21
TORSDOF 5
ENDMDL
MODEL 5
REMARK VINA RESULT:      -6.9      7.084     11.976
REMARK  Name = 
REMARK  6 active torsions:
REMARK  status: ('A' for Active; 'I' for Inactive)
REMARK    1  A    between atoms: C_1  and  N_2
REMARK    2  A    between atoms: C_7  and  C_8
REMARK    3  A    between atoms: N_10  and  C_11
REMARK    4  A    between atoms: C_16  and  C_17
REMARK    5  A    between atoms: C_17  and  N_18
REMARK    6  A    between atoms: C_19  and  C_21
REMARK                            x       y       z     vdW  Elec       q    Type
REMARK                         _______ _______ _______ _____ _____    ______ ____
ROOT
ATOM      1  C   UNL     1      -6.334  12.085  18.392  0.00  0.00    +0.000 C 
ATOM      2  C   UNL     1      -6.711  12.740  17.052  0.00  0.00    +0.000 C 
ATOM      3  C   UNL     1      -6.727  14.266  17.113  0.00  0.00    +0.000 C 
ATOM      4  C   UNL     1      -7.608  14.772  18.247  0.00  0.00    +0.000 C 
ATOM      5  C   UNL     1      -7.204  14.163  19.587  0.00  0.00    +0.000 C 
ATOM      6  C   UNL     1      -7.217  12.624  19.545  0.00  0.00    +0.000 C 
ENDROOT
BRANCH   1   9
ATOM      7  C   UNL     1      -3.960  11.310  18.189  0.00  0.00    +0.000 C 
ATOM      8  O   UNL     1      -4.233  10.286  17.609  0.00  0.00    +0.000 OA
ATOM      9  N   UNL     1      -4.904  12.237  18.665  0.00  0.00    +0.000 N 
ATOM     10  H   UNL     1      -4.556  13.073  19.124  0.00  0.00    +0.000 HD
BRANCH   7  17
ATOM     11  C   UNL     1       0.717   9.300  22.689  0.00  0.00    +0.000 C 
ATOM     12  N   UNL     1      -0.136   9.895  21.687  0.00  0.00    +0.000 NA
ATOM     13  C   UNL     1      -0.791  11.147  22.118  0.00  0.00    +0.000 C 
ATOM     14  C   UNL     1      -0.426  12.349  21.246  0.00  0.00    +0.000 C 
ATOM     15  C   UNL     1      -0.773  12.062  19.786  0.00  0.00    +0.000 C 
ATOM     16  N   UNL     1      -2.172  12.486  19.474  0.00  0.00    +0.000 NA
ATOM     17  C   UNL     1      -2.529  11.684  18.514  0.00  0.00    +0.000 C 
ATOM     18  S   UNL     1      -1.390  10.513  17.856  0.00  0.00    +0.000 S 
ATOM     19  C   UNL     1      -0.748  10.542  19.525  0.00  0.00    +0.000 C 
ATOM     20  C   UNL     1       0.380   9.882  20.293  0.00  0.00    +0.000 C 
ENDBRANCH   7  17
ENDBRANCH   1   9
BRANCH   6  21
ATOM     21  C   UNL     1      -6.803  12.024  20.897  0.00  0.00    +0.000 C 
BRANCH  21  22
ATOM     22  N   UNL     1      -6.022  12.936  21.701  0.00  0.00    +0.000 N 
ATOM     23  C   UNL     1      -6.105  12.979  23.078  0.00  0.00    +0.000 C 
ATOM     24  O   UNL     1      -6.858  12.242  23.709  0.00  0.00    +0.000 OA
ATOM     25  H   UNL     1      -5.334  13.528  21.247  0.00  0.00    +0.000 HD
BRANCH  23  26
ATOM     26  C   UNL     1      -5.225  13.958  23.709  0.00  0.00    +0.000 A 
ATOM     27  C   UNL     1      -5.413  15.324  23.849  0.00  0.00    +0.000 A 
ATOM     28  C   UNL     1      -4.325  15.950  24.534  0.00  0.00    +0.000 A 
ATOM     29  C   UNL     1      -3.359  15.041  24.868  0.00  0.00    +0.000 A 
ATOM     30 CL   UNL     1      -1.881  15.344  25.683  0.00  0.00    +0.000 Cl
ATOM     31  S   UNL     1      -3.729  13.466  24.405  0.00  0.00    +0.000 S 
ENDBRANCH  23  26
ENDBRANCH  21  22
ENDBRANCH   6  21
TORSDOF 5
ENDMDL
MODEL 6
REMARK VINA RESULT:      -6.8      4.402      6.735
REMARK  Name = 
REMARK  6 active torsions:
REMARK  status: ('A' for Active; 'I' for Inactive)
REMARK    1  A    between atoms: C_1  and  N_2
REMARK    2  A    between atoms: C_7  and  C_8
REMARK    3  A    between atoms: N_10  and  C_11
REMARK    4  A    between atoms: C_16  and  C_17
REMARK    5  A    between atoms: C_17  and  N_18
REMARK    6  A    between atoms: C_19  and  C_21
REMARK                            x       y       z     vdW  Elec       q    Type
REMARK                         _______ _______ _______ _____ _____    ______ ____
ROOT
ATOM      1  C   UNL     1      -0.362  10.504  20.240  0.00  0.00    +0.000 C 
ATOM      2  C   UNL     1      -1.336  10.777  21.400  0.00  0.00    +0.000 C 
ATOM      3  C   UNL     1      -0.655  10.792  22.767  0.00  0.00    +0.000 C 
ATOM      4  C   UNL     1       0.152   9.522  23.004  0.00  0.00    +0.000 C 
ATOM      5  C   UNL     1       1.155   9.276  21.881  0.00  0.00    +0.000 C 
ATOM      6  C   UNL     1       0.472   9.226  20.501  0.00  0.00    +0.000 C 
ENDROOT
BRANCH   1   9
ATOM      7  C   UNL     1       0.094  12.659  19.045  0.00  0.00    +0.000 C 
ATOM      8  O   UNL     1      -0.879  12.592  18.333  0.00  0.00    +0.000 OA
ATOM      9  N   UNL     1       0.475  11.675  19.974  0.00  0.00    +0.000 N 
ATOM     10  H   UNL     1       1.306  11.848  20.532  0.00  0.00    +0.000 HD
BRANCH   7  17
ATOM     11  C   UNL     1       4.944  15.256  23.031  0.00  0.00    +0.000 C 
ATOM     12  N   UNL     1       3.938  14.891  22.062  0.00  0.00    +0.000 NA
ATOM     13  C   UNL     1       2.681  15.658  22.179  0.00  0.00    +0.000 C 
ATOM     14  C   UNL     1       2.338  16.449  20.917  0.00  0.00    +0.000 C 
ATOM     15  C   UNL     1       2.260  15.511  19.714  0.00  0.00    +0.000 C 
ATOM     16  N   UNL     1       0.874  14.978  19.540  0.00  0.00    +0.000 NA
ATOM     17  C   UNL     1       1.059  13.824  18.969  0.00  0.00    +0.000 C 
ATOM     18  S   UNL     1       2.679  13.294  18.528  0.00  0.00    +0.000 S 
ATOM     19  C   UNL     1       3.140  14.268  19.954  0.00  0.00    +0.000 C 
ATOM     20  C   UNL     1       4.418  14.645  20.677  0.00  0.00    +0.000 C 
ENDBRANCH   7  17
ENDBRANCH   1   9
BRANCH   6  21
ATOM     21  C   UNL     1       1.494   8.984  19.379  0.00  0.00    +0.000 C 
BRANCH  21  22
ATOM     22  N   UNL     1       2.042   7.647  19.397  0.00  0.00    +0.000 N 
ATOM     23  C   UNL     1       2.896   7.175  18.421  0.00  0.00    +0.000 C 
ATOM     24  O   UNL     1       3.242   7.867  17.467  0.00  0.00    +0.000 OA
ATOM     25  H   UNL     1       1.847   7.045  20.190  0.00  0.00    +0.000 HD
BRANCH  23  26
ATOM     26  C   UNL     1       3.354   5.804  18.625  0.00  0.00    +0.000 A 
ATOM     27  C   UNL     1       4.478   5.362  19.305  0.00  0.00    +0.000 A 
ATOM     28  C   UNL     1       4.588   3.936  19.294  0.00  0.00    +0.000 A 
ATOM     29  C   UNL     1       3.558   3.364  18.599  0.00  0.00    +0.000 A 
ATOM     30 CL   UNL     1       3.292   1.693  18.319  0.00  0.00    +0.000 Cl
ATOM     31  S   UNL     1       2.460   4.481  17.983  0.00  0.00    +0.000 S 
ENDBRANCH  23  26
ENDBRANCH  21  22
ENDBRANCH   6  21
TORSDOF 5
ENDMDL
MODEL 7
REMARK VINA RESULT:      -6.7      4.584      7.457
REMARK  Name = 
REMARK  6 active torsions:
REMARK  status: ('A' for Active; 'I' for Inactive)
REMARK    1  A    between atoms: C_1  and  N_2
REMARK    2  A    between atoms: C_7  and  C_8
REMARK    3  A    between atoms: N_10  and  C_11
REMARK    4  A    between atoms: C_16  and  C_17
REMARK    5  A    between atoms: C_17  and  N_18
REMARK    6  A    between atoms: C_19  and  C_21
REMARK                            x       y       z     vdW  Elec       q    Type
REMARK                         _______ _______ _______ _____ _____    ______ ____
ROOT
ATOM      1  C   UNL     1      -0.966  11.898  20.366  0.00  0.00    +0.000 C 
ATOM      2  C   UNL     1      -1.865  12.190  21.580  0.00  0.00    +0.000 C 
ATOM      3  C   UNL     1      -1.202  11.856  22.914  0.00  0.00    +0.000 C 
ATOM      4  C   UNL     1      -0.683  10.425  22.938  0.00  0.00    +0.000 C 
ATOM      5  C   UNL     1       0.251  10.146  21.764  0.00  0.00    +0.000 C 
ATOM      6  C   UNL     1      -0.421  10.449  20.411  0.00  0.00    +0.000 C 
ENDROOT
BRANCH   1   9
ATOM      7  C   UNL     1       0.237  13.704  19.113  0.00  0.00    +0.000 C 
ATOM      8  O   UNL     1      -0.430  13.600  18.112  0.00  0.00    +0.000 OA
ATOM      9  N   UNL     1       0.101  12.894  20.254  0.00  0.00    +0.000 N 
ATOM     10  H   UNL     1       0.708  13.086  21.046  0.00  0.00    +0.000 HD
BRANCH   7  17
ATOM     11  C   UNL     1       5.216  15.031  23.541  0.00  0.00    +0.000 C 
ATOM     12  N   UNL     1       4.213  14.945  22.506  0.00  0.00    +0.000 NA
ATOM     13  C   UNL     1       3.069  15.861  22.696  0.00  0.00    +0.000 C 
ATOM     14  C   UNL     1       2.896  16.854  21.547  0.00  0.00    +0.000 C 
ATOM     15  C   UNL     1       2.743  16.104  20.224  0.00  0.00    +0.000 C 
ATOM     16  N   UNL     1       1.306  15.803  19.944  0.00  0.00    +0.000 NA
ATOM     17  C   UNL     1       1.355  14.720  19.224  0.00  0.00    +0.000 C 
ATOM     18  S   UNL     1       2.905  14.028  18.754  0.00  0.00    +0.000 S 
ATOM     19  C   UNL     1       3.431  14.728  20.313  0.00  0.00    +0.000 C 
ATOM     20  C   UNL     1       4.716  14.819  21.113  0.00  0.00    +0.000 C 
ENDBRANCH   7  17
ENDBRANCH   1   9
BRANCH   6  21
ATOM     21  C   UNL     1       0.532  10.171  19.239  0.00  0.00    +0.000 C 
BRANCH  21  22
ATOM     22  N   UNL     1       1.256   8.929  19.385  0.00  0.00    +0.000 N 
ATOM     23  C   UNL     1       2.029   8.389  18.377  0.00  0.00    +0.000 C 
ATOM     24  O   UNL     1       2.144   8.934  17.282  0.00  0.00    +0.000 OA
ATOM     25  H   UNL     1       1.255   8.461  20.285  0.00  0.00    +0.000 HD
BRANCH  23  26
ATOM     26  C   UNL     1       2.694   7.137  18.725  0.00  0.00    +0.000 A 
ATOM     27  C   UNL     1       2.423   6.281  19.780  0.00  0.00    +0.000 A 
ATOM     28  C   UNL     1       3.291   5.145  19.789  0.00  0.00    +0.000 A 
ATOM     29  C   UNL     1       4.185   5.195  18.755  0.00  0.00    +0.000 A 
ATOM     30 CL   UNL     1       5.414   4.058  18.384  0.00  0.00    +0.000 Cl
ATOM     31  S   UNL     1       3.999   6.547  17.770  0.00  0.00    +0.000 S 
ENDBRANCH  23  26
ENDBRANCH  21  22
ENDBRANCH   6  21
TORSDOF 5
ENDMDL
MODEL 8
REMARK VINA RESULT:      -6.7      8.741     10.349
REMARK  Name = 
REMARK  6 active torsions:
REMARK  status: ('A' for Active; 'I' for Inactive)
REMARK    1  A    between atoms: C_1  and  N_2
REMARK    2  A    between atoms: C_7  and  C_8
REMARK    3  A    between atoms: N_10  and  C_11
REMARK    4  A    between atoms: C_16  and  C_17
REMARK    5  A    between atoms: C_17  and  N_18
REMARK    6  A    between atoms: C_19  and  C_21
REMARK                            x       y       z     vdW  Elec       q    Type
REMARK                         _______ _______ _______ _____ _____    ______ ____
ROOT
ATOM      1  C   UNL     1      10.168  12.681  18.914  0.00  0.00    +0.000 C 
ATOM      2  C   UNL     1      10.219  11.662  17.762  0.00  0.00    +0.000 C 
ATOM      3  C   UNL     1       9.192  10.541  17.905  0.00  0.00    +0.000 C 
ATOM      4  C   UNL     1       9.296   9.855  19.260  0.00  0.00    +0.000 C 
ATOM      5  C   UNL     1       9.194  10.857  20.407  0.00  0.00    +0.000 C 
ATOM      6  C   UNL     1      10.249  11.973  20.289  0.00  0.00    +0.000 C 
ENDROOT
BRANCH   1   9
ATOM      7  C   UNL     1       9.032  14.753  18.081  0.00  0.00    +0.000 C 
ATOM      8  O   UNL     1      10.027  15.229  17.589  0.00  0.00    +0.000 OA
ATOM      9  N   UNL     1       8.991  13.544  18.796  0.00  0.00    +0.000 N 
ATOM     10  H   UNL     1       8.091  13.234  19.151  0.00  0.00    +0.000 HD
BRANCH   7  17
ATOM     11  C   UNL     1       4.216  16.527  22.533  0.00  0.00    +0.000 C 
ATOM     12  N   UNL     1       5.091  16.207  21.430  0.00  0.00    +0.000 NA
ATOM     13  C   UNL     1       4.720  14.977  20.701  0.00  0.00    +0.000 C 
ATOM     14  C   UNL     1       4.408  15.222  19.225  0.00  0.00    +0.000 C 
ATOM     15  C   UNL     1       5.600  15.887  18.540  0.00  0.00    +0.000 C 
ATOM     16  N   UNL     1       6.539  14.864  17.987  0.00  0.00    +0.000 NA
ATOM     17  C   UNL     1       7.694  15.462  18.015  0.00  0.00    +0.000 C 
ATOM     18  S   UNL     1       7.824  17.135  18.548  0.00  0.00    +0.000 S 
ATOM     19  C   UNL     1       6.430  16.677  19.571  0.00  0.00    +0.000 C 
ATOM     20  C   UNL     1       5.528  17.351  20.586  0.00  0.00    +0.000 C 
ENDBRANCH   7  17
ENDBRANCH   1   9
BRANCH   6  21
ATOM     21  C   UNL     1      10.131  12.979  21.445  0.00  0.00    +0.000 C 
BRANCH  21  22
ATOM     22  N   UNL     1       9.310  12.493  22.531  0.00  0.00    +0.000 N 
ATOM     23  C   UNL     1       8.194  13.164  22.984  0.00  0.00    +0.000 C 
ATOM     24  O   UNL     1       7.828  14.228  22.492  0.00  0.00    +0.000 OA
ATOM     25  H   UNL     1       9.520  11.588  22.940  0.00  0.00    +0.000 HD
BRANCH  23  26
ATOM     26  C   UNL     1       7.490  12.503  24.079  0.00  0.00    +0.000 A 
ATOM     27  C   UNL     1       6.383  11.670  24.015  0.00  0.00    +0.000 A 
ATOM     28  C   UNL     1       5.981  11.209  25.307  0.00  0.00    +0.000 A 
ATOM     29  C   UNL     1       6.785  11.719  26.290  0.00  0.00    +0.000 A 
ATOM     30 CL   UNL     1       6.667  11.446  27.978  0.00  0.00    +0.000 Cl
ATOM     31  S   UNL     1       8.012  12.711  25.706  0.00  0.00    +0.000 S 
ENDBRANCH  23  26
ENDBRANCH  21  22
ENDBRANCH   6  21
TORSDOF 5
ENDMDL
MODEL 9
REMARK VINA RESULT:      -6.7      4.133      7.644
REMARK  Name = 
REMARK  6 active torsions:
REMARK  status: ('A' for Active; 'I' for Inactive)
REMARK    1  A    between atoms: C_1  and  N_2
REMARK    2  A    between atoms: C_7  and  C_8
REMARK    3  A    between atoms: N_10  and  C_11
REMARK    4  A    between atoms: C_16  and  C_17
REMARK    5  A    between atoms: C_17  and  N_18
REMARK    6  A    between atoms: C_19  and  C_21
REMARK                            x       y       z     vdW  Elec       q    Type
REMARK                         _______ _______ _______ _____ _____    ______ ____
ROOT
ATOM      1  C   UNL     1       0.003  11.959  18.918  0.00  0.00    +0.000 C 
ATOM      2  C   UNL     1      -0.986  12.646  17.960  0.00  0.00    +0.000 C 
ATOM      3  C   UNL     1      -2.306  11.890  17.814  0.00  0.00    +0.000 C 
ATOM      4  C   UNL     1      -2.077  10.435  17.429  0.00  0.00    +0.000 C 
ATOM      5  C   UNL     1      -1.136   9.735  18.406  0.00  0.00    +0.000 C 
ATOM      6  C   UNL     1       0.210  10.473  18.535  0.00  0.00    +0.000 C 
ENDROOT
BRANCH   1   9
ATOM      7  C   UNL     1       0.020  13.210  21.089  0.00  0.00    +0.000 C 
ATOM      8  O   UNL     1       0.828  14.033  20.729  0.00  0.00    +0.000 OA
ATOM      9  N   UNL     1      -0.417  12.124  20.311  0.00  0.00    +0.000 N 
ATOM     10  H   UNL     1      -1.114  11.505  20.713  0.00  0.00    +0.000 HD
BRANCH   7  17
ATOM     11  C   UNL     1      -6.201  14.025  23.695  0.00  0.00    +0.000 C 
ATOM     12  N   UNL     1      -4.807  13.873  23.352  0.00  0.00    +0.000 NA
ATOM     13  C   UNL     1      -4.026  15.125  23.428  0.00  0.00    +0.000 C 
ATOM     14  C   UNL     1      -2.871  15.054  24.428  0.00  0.00    +0.000 C 
ATOM     15  C   UNL     1      -1.946  13.890  24.080  0.00  0.00    +0.000 C 
ATOM     16  N   UNL     1      -0.869  14.324  23.139  0.00  0.00    +0.000 NA
ATOM     17  C   UNL     1      -0.584  13.241  22.477  0.00  0.00    +0.000 C 
ATOM     18  S   UNL     1      -1.378  11.719  22.869  0.00  0.00    +0.000 S 
ATOM     19  C   UNL     1      -2.728  12.802  23.317  0.00  0.00    +0.000 C 
ATOM     20  C   UNL     1      -4.131  12.657  23.875  0.00  0.00    +0.000 C 
ENDBRANCH   7  17
ENDBRANCH   1   9
BRANCH   6  21
ATOM     21  C   UNL     1       1.144   9.762  19.526  0.00  0.00    +0.000 C 
BRANCH  21  22
ATOM     22  N   UNL     1       1.801   8.609  18.952  0.00  0.00    +0.000 N 
ATOM     23  C   UNL     1       1.984   7.431  19.645  0.00  0.00    +0.000 C 
ATOM     24  O   UNL     1       1.602   7.289  20.803  0.00  0.00    +0.000 OA
ATOM     25  H   UNL     1       2.084   8.638  17.978  0.00  0.00    +0.000 HD
BRANCH  23  26
ATOM     26  C   UNL     1       2.655   6.379  18.887  0.00  0.00    +0.000 A 
ATOM     27  C   UNL     1       2.507   5.005  19.001  0.00  0.00    +0.000 A 
ATOM     28  C   UNL     1       3.335   4.295  18.077  0.00  0.00    +0.000 A 
ATOM     29  C   UNL     1       4.080   5.154  17.316  0.00  0.00    +0.000 A 
ATOM     30 CL   UNL     1       5.213   4.749  16.095  0.00  0.00    +0.000 Cl
ATOM     31  S   UNL     1       3.800   6.776  17.665  0.00  0.00    +0.000 S 
ENDBRANCH  23  26
ENDBRANCH  21  22
ENDBRANCH   6  21
TORSDOF 5
ENDMDL
