MODEL 1
REMARK VINA RESULT:      -7.4      0.000      0.000
REMARK  Name = 
REMARK  8 active torsions:
REMARK  status: ('A' for Active; 'I' for Inactive)
REMARK    1  A    between atoms: C_1  and  N_2
REMARK    2  A    between atoms: C_3  and  C_5
REMARK    3  A    between atoms: C_10  and  S_11
REMARK    4  A    between atoms: S_11  and  N_14
REMARK    5  A    between atoms: N_14  and  C_15
REMARK    6  A    between atoms: C_15  and  C_16
REMARK    7  A    between atoms: C_15  and  C_17
REMARK    8  A    between atoms: C_15  and  C_18
REMARK                            x       y       z     vdW  Elec       q    Type
REMARK                         _______ _______ _______ _____ _____    ______ ____
ROOT
ATOM      1  C   UNL     1       1.805   6.473  20.254  0.00  0.00    +0.000 A 
ATOM      2  C   UNL     1       0.903   5.447  20.528  0.00  0.00    +0.000 A 
ATOM      3  C   UNL     1       1.279   4.108  20.347  0.00  0.00    +0.000 A 
ATOM      4  C   UNL     1       2.524   3.774  19.798  0.00  0.00    +0.000 A 
ATOM      5 CL   UNL     1       2.890   2.091  19.675  0.00  0.00    +0.000 Cl
ATOM      6  C   UNL     1       3.388   4.793  19.411  0.00  0.00    +0.000 A 
ATOM      7  C   UNL     1       3.036   6.137  19.656  0.00  0.00    +0.000 A 
ENDROOT
BRANCH   1  10
ATOM      8  C   UNL     1       1.728   8.570  17.996  0.00  0.00    +0.000 C 
ATOM      9  N   UNL     1       1.463   8.836  19.411  0.00  0.00    +0.000 N 
ATOM     10  C   UNL     1       1.501   7.923  20.472  0.00  0.00    +0.000 C 
ATOM     11  O   UNL     1       1.214   8.227  21.631  0.00  0.00    +0.000 OA
ATOM     12  C   UNL     1       1.022  10.173  19.669  0.00  0.00    +0.000 A 
ATOM     13  C   UNL     1       1.484  10.912  20.758  0.00  0.00    +0.000 A 
ATOM     14  N   UNL     1       1.112  12.198  21.001  0.00  0.00    +0.000 NA
ATOM     15  C   UNL     1       0.206  12.707  20.141  0.00  0.00    +0.000 A 
ATOM     16  C   UNL     1      -0.273  11.982  19.066  0.00  0.00    +0.000 A 
ATOM     17  N   UNL     1       0.153  10.730  18.785  0.00  0.00    +0.000 NA
ENDBRANCH   1  10
BRANCH   6  18
ATOM     18  S   UNL     1       4.820   4.472  18.402  0.00  0.00    +0.000 S 
ATOM     19  O   UNL     1       5.708   3.644  19.181  0.00  0.00    +0.000 OA
ATOM     20  O   UNL     1       4.362   4.024  17.115  0.00  0.00    +0.000 OA
BRANCH  18  21
ATOM     21  N   UNL     1       5.603   5.949  18.226  0.00  0.00    +0.000 NA
ATOM     22  H   UNL     1       5.185   6.650  18.840  0.00  0.00    +0.000 HD
BRANCH  21  23
ATOM     23  C   UNL     1       7.032   6.130  17.876  0.00  0.00    +0.000 C 
ATOM     24  C   UNL     1       7.425   5.197  16.731  0.00  0.00    +0.000 C 
ATOM     25  C   UNL     1       7.195   7.587  17.398  0.00  0.00    +0.000 C 
ATOM     26  C   UNL     1       7.949   5.944  19.089  0.00  0.00    +0.000 C 
ENDBRANCH  21  23
ENDBRANCH  18  21
ENDBRANCH   6  18
TORSDOF 4
ENDMDL
MODEL 2
REMARK VINA RESULT:      -7.3      1.104      1.574
REMARK  Name = 
REMARK  8 active torsions:
REMARK  status: ('A' for Active; 'I' for Inactive)
REMARK    1  A    between atoms: C_1  and  N_2
REMARK    2  A    between atoms: C_3  and  C_5
REMARK    3  A    between atoms: C_10  and  S_11
REMARK    4  A    between atoms: S_11  and  N_14
REMARK    5  A    between atoms: N_14  and  C_15
REMARK    6  A    between atoms: C_15  and  C_16
REMARK    7  A    between atoms: C_15  and  C_17
REMARK    8  A    between atoms: C_15  and  C_18
REMARK                            x       y       z     vdW  Elec       q    Type
REMARK                         _______ _______ _______ _____ _____    ______ ____
ROOT
ATOM      1  C   UNL     1       1.885   6.996  19.880  0.00  0.00    +0.000 A 
ATOM      2  C   UNL     1       1.048   6.131  20.582  0.00  0.00    +0.000 A 
ATOM      3  C   UNL     1       1.459   4.819  20.860  0.00  0.00    +0.000 A 
ATOM      4  C   UNL     1       2.668   4.318  20.358  0.00  0.00    +0.000 A 
ATOM      5 CL   UNL     1       3.086   2.706  20.813  0.00  0.00    +0.000 Cl
ATOM      6  C   UNL     1       3.458   5.135  19.556  0.00  0.00    +0.000 A 
ATOM      7  C   UNL     1       3.076   6.475  19.334  0.00  0.00    +0.000 A 
ENDROOT
BRANCH   1  10
ATOM      8  C   UNL     1       0.798   8.963  21.990  0.00  0.00    +0.000 C 
ATOM      9  N   UNL     1       1.067   9.285  20.588  0.00  0.00    +0.000 N 
ATOM     10  C   UNL     1       1.545   8.425  19.591  0.00  0.00    +0.000 C 
ATOM     11  O   UNL     1       1.790   8.797  18.443  0.00  0.00    +0.000 OA
ATOM     12  C   UNL     1       0.902  10.672  20.278  0.00  0.00    +0.000 A 
ATOM     13  C   UNL     1       0.281  11.105  19.105  0.00  0.00    +0.000 A 
ATOM     14  N   UNL     1       0.076  12.417  18.808  0.00  0.00    +0.000 NA
ATOM     15  C   UNL     1       0.571  13.294  19.705  0.00  0.00    +0.000 A 
ATOM     16  C   UNL     1       1.203  12.882  20.863  0.00  0.00    +0.000 A 
ATOM     17  N   UNL     1       1.340  11.577  21.191  0.00  0.00    +0.000 NA
ENDBRANCH   1  10
BRANCH   6  18
ATOM     18  S   UNL     1       4.815   4.482  18.606  0.00  0.00    +0.000 S 
ATOM     19  O   UNL     1       5.643   3.729  19.516  0.00  0.00    +0.000 OA
ATOM     20  O   UNL     1       4.270   3.848  17.436  0.00  0.00    +0.000 OA
BRANCH  18  21
ATOM     21  N   UNL     1       5.734   5.809  18.138  0.00  0.00    +0.000 NA
ATOM     22  H   UNL     1       5.306   6.674  18.469  0.00  0.00    +0.000 HD
BRANCH  21  23
ATOM     23  C   UNL     1       7.204   5.816  17.952  0.00  0.00    +0.000 C 
ATOM     24  C   UNL     1       7.635   4.662  17.046  0.00  0.00    +0.000 C 
ATOM     25  C   UNL     1       7.561   7.145  17.254  0.00  0.00    +0.000 C 
ATOM     26  C   UNL     1       7.953   5.788  19.288  0.00  0.00    +0.000 C 
ENDBRANCH  21  23
ENDBRANCH  18  21
ENDBRANCH   6  18
TORSDOF 4
ENDMDL
MODEL 3
REMARK VINA RESULT:      -7.2      4.289      8.269
REMARK  Name = 
REMARK  8 active torsions:
REMARK  status: ('A' for Active; 'I' for Inactive)
REMARK    1  A    between atoms: C_1  and  N_2
REMARK    2  A    between atoms: C_3  and  C_5
REMARK    3  A    between atoms: C_10  and  S_11
REMARK    4  A    between atoms: S_11  and  N_14
REMARK    5  A    between atoms: N_14  and  C_15
REMARK    6  A    between atoms: C_15  and  C_16
REMARK    7  A    between atoms: C_15  and  C_17
REMARK    8  A    between atoms: C_15  and  C_18
REMARK                            x       y       z     vdW  Elec       q    Type
REMARK                         _______ _______ _______ _____ _____    ______ ____
ROOT
ATOM      1  C   UNL     1       1.197   9.178  19.279  0.00  0.00    +0.000 A 
ATOM      2  C   UNL     1       1.260   9.278  20.668  0.00  0.00    +0.000 A 
ATOM      3  C   UNL     1       0.344  10.081  21.361  0.00  0.00    +0.000 A 
ATOM      4  C   UNL     1      -0.588  10.873  20.676  0.00  0.00    +0.000 A 
ATOM      5 CL   UNL     1      -1.696  11.777  21.643  0.00  0.00    +0.000 Cl
ATOM      6  C   UNL     1      -0.583  10.873  19.285  0.00  0.00    +0.000 A 
ATOM      7  C   UNL     1       0.295  10.013  18.591  0.00  0.00    +0.000 A 
ENDROOT
BRANCH   1  10
ATOM      8  C   UNL     1       2.162   6.396  20.194  0.00  0.00    +0.000 C 
ATOM      9  N   UNL     1       2.502   7.037  18.923  0.00  0.00    +0.000 N 
ATOM     10  C   UNL     1       2.103   8.302  18.470  0.00  0.00    +0.000 C 
ATOM     11  O   UNL     1       2.399   8.742  17.359  0.00  0.00    +0.000 OA
ATOM     12  C   UNL     1       3.246   6.194  18.038  0.00  0.00    +0.000 A 
ATOM     13  C   UNL     1       4.329   6.665  17.294  0.00  0.00    +0.000 A 
ATOM     14  N   UNL     1       5.076   5.874  16.477  0.00  0.00    +0.000 NA
ATOM     15  C   UNL     1       4.664   4.593  16.383  0.00  0.00    +0.000 A 
ATOM     16  C   UNL     1       3.584   4.114  17.101  0.00  0.00    +0.000 A 
ATOM     17  N   UNL     1       2.888   4.885  17.967  0.00  0.00    +0.000 NA
ENDBRANCH   1  10
BRANCH   6  18
ATOM     18  S   UNL     1      -1.481  12.090  18.346  0.00  0.00    +0.000 S 
ATOM     19  O   UNL     1      -2.752  12.275  19.002  0.00  0.00    +0.000 OA
ATOM     20  O   UNL     1      -0.610  13.214  18.134  0.00  0.00    +0.000 OA
BRANCH  18  21
ATOM     21  N   UNL     1      -1.826  11.372  16.866  0.00  0.00    +0.000 NA
ATOM     22  H   UNL     1      -0.965  11.082  16.401  0.00  0.00    +0.000 HD
BRANCH  21  23
ATOM     23  C   UNL     1      -3.052  10.602  16.548  0.00  0.00    +0.000 C 
ATOM     24  C   UNL     1      -4.258  11.536  16.444  0.00  0.00    +0.000 C 
ATOM     25  C   UNL     1      -2.824   9.944  15.172  0.00  0.00    +0.000 C 
ATOM     26  C   UNL     1      -3.302   9.475  17.555  0.00  0.00    +0.000 C 
ENDBRANCH  21  23
ENDBRANCH  18  21
ENDBRANCH   6  18
TORSDOF 4
ENDMDL
MODEL 4
REMARK VINA RESULT:      -7.1      2.207      4.219
REMARK  Name = 
REMARK  8 active torsions:
REMARK  status: ('A' for Active; 'I' for Inactive)
REMARK    1  A    between atoms: C_1  and  N_2
REMARK    2  A    between atoms: C_3  and  C_5
REMARK    3  A    between atoms: C_10  and  S_11
REMARK    4  A    between atoms: S_11  and  N_14
REMARK    5  A    between atoms: N_14  and  C_15
REMARK    6  A    between atoms: C_15  and  C_16
REMARK    7  A    between atoms: C_15  and  C_17
REMARK    8  A    between atoms: C_15  and  C_18
REMARK                            x       y       z     vdW  Elec       q    Type
REMARK                         _______ _______ _______ _____ _____    ______ ____
ROOT
ATOM      1  C   UNL     1       3.276   7.377  17.682  0.00  0.00    +0.000 A 
ATOM      2  C   UNL     1       4.292   7.641  16.764  0.00  0.00    +0.000 A 
ATOM      3  C   UNL     1       5.156   6.617  16.353  0.00  0.00    +0.000 A 
ATOM      4  C   UNL     1       5.086   5.338  16.921  0.00  0.00    +0.000 A 
ATOM      5 CL   UNL     1       6.170   4.150  16.293  0.00  0.00    +0.000 Cl
ATOM      6  C   UNL     1       4.153   5.094  17.924  0.00  0.00    +0.000 A 
ATOM      7  C   UNL     1       3.240   6.106  18.289  0.00  0.00    +0.000 A 
ENDROOT
BRANCH   1  10
ATOM      8  C   UNL     1       1.959   7.383  20.469  0.00  0.00    +0.000 C 
ATOM      9  N   UNL     1       1.718   8.369  19.414  0.00  0.00    +0.000 N 
ATOM     10  C   UNL     1       2.279   8.400  18.131  0.00  0.00    +0.000 C 
ATOM     11  O   UNL     1       2.056   9.300  17.321  0.00  0.00    +0.000 OA
ATOM     12  C   UNL     1       0.887   9.458  19.827  0.00  0.00    +0.000 A 
ATOM     13  C   UNL     1      -0.118   9.979  19.011  0.00  0.00    +0.000 A 
ATOM     14  N   UNL     1      -0.948  10.986  19.397  0.00  0.00    +0.000 NA
ATOM     15  C   UNL     1      -0.699  11.500  20.619  0.00  0.00    +0.000 A 
ATOM     16  C   UNL     1       0.303  11.006  21.433  0.00  0.00    +0.000 A 
ATOM     17  N   UNL     1       1.079   9.957  21.076  0.00  0.00    +0.000 NA
ENDBRANCH   1  10
BRANCH   6  18
ATOM     18  S   UNL     1       4.224   3.626  18.930  0.00  0.00    +0.000 S 
ATOM     19  O   UNL     1       3.718   2.540  18.126  0.00  0.00    +0.000 OA
ATOM     20  O   UNL     1       5.540   3.546  19.502  0.00  0.00    +0.000 OA
BRANCH  18  21
ATOM     21  N   UNL     1       3.100   3.852  20.159  0.00  0.00    +0.000 NA
ATOM     22  H   UNL     1       3.089   4.828  20.457  0.00  0.00    +0.000 HD
BRANCH  21  23
ATOM     23  C   UNL     1       1.844   3.084  20.329  0.00  0.00    +0.000 C 
ATOM     24  C   UNL     1       1.730   2.555  21.759  0.00  0.00    +0.000 C 
ATOM     25  C   UNL     1       0.681   4.066  20.077  0.00  0.00    +0.000 C 
ATOM     26  C   UNL     1       1.717   1.954  19.303  0.00  0.00    +0.000 C 
ENDBRANCH  21  23
ENDBRANCH  18  21
ENDBRANCH   6  18
TORSDOF 4
ENDMDL
MODEL 5
REMARK VINA RESULT:      -7.0      1.422      1.691
REMARK  Name = 
REMARK  8 active torsions:
REMARK  status: ('A' for Active; 'I' for Inactive)
REMARK    1  A    between atoms: C_1  and  N_2
REMARK    2  A    between atoms: C_3  and  C_5
REMARK    3  A    between atoms: C_10  and  S_11
REMARK    4  A    between atoms: S_11  and  N_14
REMARK    5  A    between atoms: N_14  and  C_15
REMARK    6  A    between atoms: C_15  and  C_16
REMARK    7  A    between atoms: C_15  and  C_17
REMARK    8  A    between atoms: C_15  and  C_18
REMARK                            x       y       z     vdW  Elec       q    Type
REMARK                         _______ _______ _______ _____ _____    ______ ____
ROOT
ATOM      1  C   UNL     1       2.118   6.382  20.116  0.00  0.00    +0.000 A 
ATOM      2  C   UNL     1       1.376   5.208  20.226  0.00  0.00    +0.000 A 
ATOM      3  C   UNL     1       1.967   3.968  19.944  0.00  0.00    +0.000 A 
ATOM      4  C   UNL     1       3.278   3.886  19.455  0.00  0.00    +0.000 A 
ATOM      5 CL   UNL     1       3.911   2.301  19.197  0.00  0.00    +0.000 Cl
ATOM      6  C   UNL     1       3.991   5.059  19.229  0.00  0.00    +0.000 A 
ATOM      7  C   UNL     1       3.417   6.301  19.577  0.00  0.00    +0.000 A 
ENDROOT
BRANCH   1  10
ATOM      8  C   UNL     1       1.837   8.670  18.069  0.00  0.00    +0.000 C 
ATOM      9  N   UNL     1       1.455   8.742  19.481  0.00  0.00    +0.000 N 
ATOM     10  C   UNL     1       1.578   7.738  20.450  0.00  0.00    +0.000 C 
ATOM     11  O   UNL     1       1.183   7.871  21.609  0.00  0.00    +0.000 OA
ATOM     12  C   UNL     1       0.796   9.961  19.834  0.00  0.00    +0.000 A 
ATOM     13  C   UNL     1       1.075  10.643  21.020  0.00  0.00    +0.000 A 
ATOM     14  N   UNL     1       0.491  11.824  21.358  0.00  0.00    +0.000 NA
ATOM     15  C   UNL     1      -0.435  12.279  20.489  0.00  0.00    +0.000 A 
ATOM     16  C   UNL     1      -0.734  11.608  19.318  0.00  0.00    +0.000 A 
ATOM     17  N   UNL     1      -0.100  10.472  18.949  0.00  0.00    +0.000 NA
ENDBRANCH   1  10
BRANCH   6  18
ATOM     18  S   UNL     1       5.508   5.067  18.298  0.00  0.00    +0.000 S 
ATOM     19  O   UNL     1       5.896   6.447  18.136  0.00  0.00    +0.000 OA
ATOM     20  O   UNL     1       6.410   4.133  18.915  0.00  0.00    +0.000 OA
BRANCH  18  21
ATOM     21  N   UNL     1       5.110   4.517  16.760  0.00  0.00    +0.000 NA
ATOM     22  H   UNL     1       4.118   4.285  16.709  0.00  0.00    +0.000 HD
BRANCH  21  23
ATOM     23  C   UNL     1       5.766   4.938  15.498  0.00  0.00    +0.000 C 
ATOM     24  C   UNL     1       5.332   4.035  14.343  0.00  0.00    +0.000 C 
ATOM     25  C   UNL     1       5.288   6.374  15.203  0.00  0.00    +0.000 C 
ATOM     26  C   UNL     1       7.291   4.983  15.631  0.00  0.00    +0.000 C 
ENDBRANCH  21  23
ENDBRANCH  18  21
ENDBRANCH   6  18
TORSDOF 4
ENDMDL
MODEL 6
REMARK VINA RESULT:      -7.0      2.251      4.236
REMARK  Name = 
REMARK  8 active torsions:
REMARK  status: ('A' for Active; 'I' for Inactive)
REMARK    1  A    between atoms: C_1  and  N_2
REMARK    2  A    between atoms: C_3  and  C_5
REMARK    3  A    between atoms: C_10  and  S_11
REMARK    4  A    between atoms: S_11  and  N_14
REMARK    5  A    between atoms: N_14  and  C_15
REMARK    6  A    between atoms: C_15  and  C_16
REMARK    7  A    between atoms: C_15  and  C_17
REMARK    8  A    between atoms: C_15  and  C_18
REMARK                            x       y       z     vdW  Elec       q    Type
REMARK                         _______ _______ _______ _____ _____    ______ ____
ROOT
ATOM      1  C   UNL     1       3.101   7.556  17.826  0.00  0.00    +0.000 A 
ATOM      2  C   UNL     1       4.440   7.833  17.559  0.00  0.00    +0.000 A 
ATOM      3  C   UNL     1       5.309   6.806  17.161  0.00  0.00    +0.000 A 
ATOM      4  C   UNL     1       4.881   5.472  17.119  0.00  0.00    +0.000 A 
ATOM      5 CL   UNL     1       6.029   4.308  16.564  0.00  0.00    +0.000 Cl
ATOM      6  C   UNL     1       3.578   5.167  17.498  0.00  0.00    +0.000 A 
ATOM      7  C   UNL     1       2.687   6.210  17.832  0.00  0.00    +0.000 A 
ENDROOT
BRANCH   1  10
ATOM      8  C   UNL     1       1.781   7.750  20.605  0.00  0.00    +0.000 C 
ATOM      9  N   UNL     1       1.536   8.659  19.484  0.00  0.00    +0.000 N 
ATOM     10  C   UNL     1       2.098   8.603  18.202  0.00  0.00    +0.000 C 
ATOM     11  O   UNL     1       1.871   9.444  17.332  0.00  0.00    +0.000 OA
ATOM     12  C   UNL     1       0.699   9.770  19.820  0.00  0.00    +0.000 A 
ATOM     13  C   UNL     1      -0.308  10.228  18.969  0.00  0.00    +0.000 A 
ATOM     14  N   UNL     1      -1.143  11.255  19.283  0.00  0.00    +0.000 NA
ATOM     15  C   UNL     1      -0.898  11.854  20.467  0.00  0.00    +0.000 A 
ATOM     16  C   UNL     1       0.106  11.423  21.314  0.00  0.00    +0.000 A 
ATOM     17  N   UNL     1       0.887  10.355  21.031  0.00  0.00    +0.000 NA
ENDBRANCH   1  10
BRANCH   6  18
ATOM     18  S   UNL     1       3.060   3.492  17.804  0.00  0.00    +0.000 S 
ATOM     19  O   UNL     1       1.707   3.373  17.319  0.00  0.00    +0.000 OA
ATOM     20  O   UNL     1       4.084   2.615  17.303  0.00  0.00    +0.000 OA
BRANCH  18  21
ATOM     21  N   UNL     1       2.967   3.334  19.475  0.00  0.00    +0.000 NA
ATOM     22  H   UNL     1       3.669   3.919  19.929  0.00  0.00    +0.000 HD
BRANCH  21  23
ATOM     23  C   UNL     1       1.733   3.047  20.245  0.00  0.00    +0.000 C 
ATOM     24  C   UNL     1       0.967   1.884  19.615  0.00  0.00    +0.000 C 
ATOM     25  C   UNL     1       2.176   2.631  21.663  0.00  0.00    +0.000 C 
ATOM     26  C   UNL     1       0.845   4.288  20.391  0.00  0.00    +0.000 C 
ENDBRANCH  21  23
ENDBRANCH  18  21
ENDBRANCH   6  18
TORSDOF 4
ENDMDL
MODEL 7
REMARK VINA RESULT:      -6.9      2.088      2.643
REMARK  Name = 
REMARK  8 active torsions:
REMARK  status: ('A' for Active; 'I' for Inactive)
REMARK    1  A    between atoms: C_1  and  N_2
REMARK    2  A    between atoms: C_3  and  C_5
REMARK    3  A    between atoms: C_10  and  S_11
REMARK    4  A    between atoms: S_11  and  N_14
REMARK    5  A    between atoms: N_14  and  C_15
REMARK    6  A    between atoms: C_15  and  C_16
REMARK    7  A    between atoms: C_15  and  C_17
REMARK    8  A    between atoms: C_15  and  C_18
REMARK                            x       y       z     vdW  Elec       q    Type
REMARK                         _______ _______ _______ _____ _____    ______ ____
ROOT
ATOM      1  C   UNL     1       2.502   6.897  18.411  0.00  0.00    +0.000 A 
ATOM      2  C   UNL     1       1.729   5.757  18.197  0.00  0.00    +0.000 A 
ATOM      3  C   UNL     1       2.323   4.487  18.214  0.00  0.00    +0.000 A 
ATOM      4  C   UNL     1       3.711   4.339  18.345  0.00  0.00    +0.000 A 
ATOM      5 CL   UNL     1       4.314   2.723  18.403  0.00  0.00    +0.000 Cl
ATOM      6  C   UNL     1       4.507   5.476  18.440  0.00  0.00    +0.000 A 
ATOM      7  C   UNL     1       3.901   6.749  18.492  0.00  0.00    +0.000 A 
ENDROOT
BRANCH   1  10
ATOM      8  C   UNL     1       1.180   8.119  20.914  0.00  0.00    +0.000 C 
ATOM      9  N   UNL     1       1.358   8.800  19.630  0.00  0.00    +0.000 N 
ATOM     10  C   UNL     1       1.937   8.283  18.463  0.00  0.00    +0.000 C 
ATOM     11  O   UNL     1       2.090   8.948  17.438  0.00  0.00    +0.000 OA
ATOM     12  C   UNL     1       0.972  10.177  19.654  0.00  0.00    +0.000 A 
ATOM     13  C   UNL     1       0.260  10.770  18.610  0.00  0.00    +0.000 A 
ATOM     14  N   UNL     1      -0.153  12.066  18.628  0.00  0.00    +0.000 NA
ATOM     15  C   UNL     1       0.224  12.775  19.712  0.00  0.00    +0.000 A 
ATOM     16  C   UNL     1       0.943  12.207  20.747  0.00  0.00    +0.000 A 
ATOM     17  N   UNL     1       1.289  10.900  20.760  0.00  0.00    +0.000 NA
ENDBRANCH   1  10
BRANCH   6  18
ATOM     18  S   UNL     1       6.276   5.396  18.262  0.00  0.00    +0.000 S 
ATOM     19  O   UNL     1       6.721   6.711  17.871  0.00  0.00    +0.000 OA
ATOM     20  O   UNL     1       6.811   4.777  19.444  0.00  0.00    +0.000 OA
BRANCH  18  21
ATOM     21  N   UNL     1       6.564   4.400  16.939  0.00  0.00    +0.000 NA
ATOM     22  H   UNL     1       6.449   3.420  17.198  0.00  0.00    +0.000 HD
BRANCH  21  23
ATOM     23  C   UNL     1       6.307   4.754  15.522  0.00  0.00    +0.000 C 
ATOM     24  C   UNL     1       7.614   5.110  14.814  0.00  0.00    +0.000 C 
ATOM     25  C   UNL     1       5.711   3.501  14.849  0.00  0.00    +0.000 C 
ATOM     26  C   UNL     1       5.274   5.878  15.389  0.00  0.00    +0.000 C 
ENDBRANCH  21  23
ENDBRANCH  18  21
ENDBRANCH   6  18
TORSDOF 4
ENDMDL
MODEL 8
REMARK VINA RESULT:      -6.9      1.906      2.563
REMARK  Name = 
REMARK  8 active torsions:
REMARK  status: ('A' for Active; 'I' for Inactive)
REMARK    1  A    between atoms: C_1  and  N_2
REMARK    2  A    between atoms: C_3  and  C_5
REMARK    3  A    between atoms: C_10  and  S_11
REMARK    4  A    between atoms: S_11  and  N_14
REMARK    5  A    between atoms: N_14  and  C_15
REMARK    6  A    between atoms: C_15  and  C_16
REMARK    7  A    between atoms: C_15  and  C_17
REMARK    8  A    between atoms: C_15  and  C_18
REMARK                            x       y       z     vdW  Elec       q    Type
REMARK                         _______ _______ _______ _____ _____    ______ ____
ROOT
ATOM      1  C   UNL     1       2.469   6.819  19.267  0.00  0.00    +0.000 A 
ATOM      2  C   UNL     1       1.774   5.642  19.538  0.00  0.00    +0.000 A 
ATOM      3  C   UNL     1       2.470   4.445  19.759  0.00  0.00    +0.000 A 
ATOM      4  C   UNL     1       3.863   4.381  19.617  0.00  0.00    +0.000 A 
ATOM      5 CL   UNL     1       4.607   2.863  19.967  0.00  0.00    +0.000 Cl
ATOM      6  C   UNL     1       4.557   5.523  19.232  0.00  0.00    +0.000 A 
ATOM      7  C   UNL     1       3.863   6.742  19.076  0.00  0.00    +0.000 A 
ENDROOT
BRANCH   1  10
ATOM      8  C   UNL     1       1.210   8.459  21.554  0.00  0.00    +0.000 C 
ATOM      9  N   UNL     1       1.259   8.863  20.148  0.00  0.00    +0.000 N 
ATOM     10  C   UNL     1       1.805   8.147  19.074  0.00  0.00    +0.000 C 
ATOM     11  O   UNL     1       1.846   8.588  17.925  0.00  0.00    +0.000 OA
ATOM     12  C   UNL     1       0.773  10.188  19.915  0.00  0.00    +0.000 A 
ATOM     13  C   UNL     1      -0.043  10.501  18.827  0.00  0.00    +0.000 A 
ATOM     14  N   UNL     1      -0.551  11.744  18.607  0.00  0.00    +0.000 NA
ATOM     15  C   UNL     1      -0.165  12.688  19.490  0.00  0.00    +0.000 A 
ATOM     16  C   UNL     1       0.655  12.397  20.564  0.00  0.00    +0.000 A 
ATOM     17  N   UNL     1       1.100  11.146  20.821  0.00  0.00    +0.000 NA
ENDBRANCH   1  10
BRANCH   6  18
ATOM     18  S   UNL     1       6.254   5.450  18.698  0.00  0.00    +0.000 S 
ATOM     19  O   UNL     1       6.564   6.727  18.101  0.00  0.00    +0.000 OA
ATOM     20  O   UNL     1       7.041   4.960  19.796  0.00  0.00    +0.000 OA
BRANCH  18  21
ATOM     21  N   UNL     1       6.298   4.332  17.444  0.00  0.00    +0.000 NA
ATOM     22  H   UNL     1       6.515   3.402  17.802  0.00  0.00    +0.000 HD
BRANCH  21  23
ATOM     23  C   UNL     1       5.494   4.402  16.200  0.00  0.00    +0.000 C 
ATOM     24  C   UNL     1       5.263   5.857  15.792  0.00  0.00    +0.000 C 
ATOM     25  C   UNL     1       6.317   3.709  15.095  0.00  0.00    +0.000 C 
ATOM     26  C   UNL     1       4.171   3.639  16.328  0.00  0.00    +0.000 C 
ENDBRANCH  21  23
ENDBRANCH  18  21
ENDBRANCH   6  18
TORSDOF 4
ENDMDL
MODEL 9
REMARK VINA RESULT:      -6.8      1.156      1.600
REMARK  Name = 
REMARK  8 active torsions:
REMARK  status: ('A' for Active; 'I' for Inactive)
REMARK    1  A    between atoms: C_1  and  N_2
REMARK    2  A    between atoms: C_3  and  C_5
REMARK    3  A    between atoms: C_10  and  S_11
REMARK    4  A    between atoms: S_11  and  N_14
REMARK    5  A    between atoms: N_14  and  C_15
REMARK    6  A    between atoms: C_15  and  C_16
REMARK    7  A    between atoms: C_15  and  C_17
REMARK    8  A    between atoms: C_15  and  C_18
REMARK                            x       y       z     vdW  Elec       q    Type
REMARK                         _______ _______ _______ _____ _____    ______ ____
ROOT
ATOM      1  C   UNL     1       1.796   7.311  20.272  0.00  0.00    +0.000 A 
ATOM      2  C   UNL     1       1.272   6.207  20.942  0.00  0.00    +0.000 A 
ATOM      3  C   UNL     1       1.795   4.927  20.711  0.00  0.00    +0.000 A 
ATOM      4  C   UNL     1       2.780   4.712  19.737  0.00  0.00    +0.000 A 
ATOM      5 CL   UNL     1       3.378   3.100  19.584  0.00  0.00    +0.000 Cl
ATOM      6  C   UNL     1       3.227   5.788  18.978  0.00  0.00    +0.000 A 
ATOM      7  C   UNL     1       2.749   7.086  19.259  0.00  0.00    +0.000 A 
ENDROOT
BRANCH   1  10
ATOM      8  C   UNL     1       1.186   9.311  18.006  0.00  0.00    +0.000 C 
ATOM      9  N   UNL     1       1.053   9.584  19.438  0.00  0.00    +0.000 N 
ATOM     10  C   UNL     1       1.332   8.716  20.502  0.00  0.00    +0.000 C 
ATOM     11  O   UNL     1       1.143   9.017  21.681  0.00  0.00    +0.000 OA
ATOM     12  C   UNL     1       0.474  10.861  19.726  0.00  0.00    +0.000 A 
ATOM     13  C   UNL     1       0.958  11.686  20.742  0.00  0.00    +0.000 A 
ATOM     14  N   UNL     1       0.451  12.920  21.008  0.00  0.00    +0.000 NA
ATOM     15  C   UNL     1      -0.607  13.283  20.253  0.00  0.00    +0.000 A 
ATOM     16  C   UNL     1      -1.108  12.470  19.253  0.00  0.00    +0.000 A 
ATOM     17  N   UNL     1      -0.556  11.275  18.943  0.00  0.00    +0.000 NA
ENDBRANCH   1  10
BRANCH   6  18
ATOM     18  S   UNL     1       4.204   5.554  17.508  0.00  0.00    +0.000 S 
ATOM     19  O   UNL     1       3.686   4.386  16.839  0.00  0.00    +0.000 OA
ATOM     20  O   UNL     1       4.268   6.812  16.816  0.00  0.00    +0.000 OA
BRANCH  18  21
ATOM     21  N   UNL     1       5.744   5.136  18.038  0.00  0.00    +0.000 NA
ATOM     22  H   UNL     1       5.707   4.290  18.608  0.00  0.00    +0.000 HD
BRANCH  21  23
ATOM     23  C   UNL     1       7.007   5.400  17.308  0.00  0.00    +0.000 C 
ATOM     24  C   UNL     1       7.434   6.857  17.489  0.00  0.00    +0.000 C 
ATOM     25  C   UNL     1       8.085   4.493  17.936  0.00  0.00    +0.000 C 
ATOM     26  C   UNL     1       6.904   5.026  15.826  0.00  0.00    +0.000 C 
ENDBRANCH  21  23
ENDBRANCH  18  21
ENDBRANCH   6  18
TORSDOF 4
ENDMDL
