MODEL 1
REMARK VINA RESULT:      -7.6      0.000      0.000
REMARK  Name = 
REMARK  5 active torsions:
REMARK  status: ('A' for Active; 'I' for Inactive)
REMARK    1  A    between atoms: C_1  and  C_2
REMARK    2  A    between atoms: N_4  and  C_5
REMARK    3  A    between atoms: C_7  and  C_8
REMARK    4  A    between atoms: C_8  and  N_9
REMARK    5  A    between atoms: C_13  and  C_14
REMARK                            x       y       z     vdW  Elec       q    Type
REMARK                         _______ _______ _______ _____ _____    ______ ____
ROOT
ATOM      1  N   UNL     1       3.422   3.837  18.716  0.00  0.00    +0.000 N 
ATOM      2  C   UNL     1       2.963   2.834  19.541  0.00  0.00    +0.000 A 
ATOM      3  C   UNL     1       4.078   2.313  20.135  0.00  0.00    +0.000 A 
ATOM      4  N   UNL     1       5.200   2.917  19.645  0.00  0.00    +0.000 NA
ATOM      5  C   UNL     1       4.811   3.837  18.771  0.00  0.00    +0.000 A 
ENDROOT
BRANCH   5   6
ATOM      6  C   UNL     1       5.736   4.730  18.031  0.00  0.00    +0.000 A 
ATOM      7  C   UNL     1       6.361   5.782  18.707  0.00  0.00    +0.000 A 
ATOM      8  C   UNL     1       7.287   6.558  18.042  0.00  0.00    +0.000 A 
ATOM      9  N   UNL     1       7.602   6.398  16.747  0.00  0.00    +0.000 NA
ATOM     10  C   UNL     1       6.953   5.452  16.055  0.00  0.00    +0.000 A 
ATOM     11  C   UNL     1       7.249   5.355  14.702  0.00  0.00    +0.000 A 
ATOM     12  C   UNL     1       6.611   4.440  13.867  0.00  0.00    +0.000 A 
ATOM     13  C   UNL     1       5.659   3.587  14.399  0.00  0.00    +0.000 A 
ATOM     14  C   UNL     1       5.364   3.648  15.763  0.00  0.00    +0.000 A 
ATOM     15  C   UNL     1       5.994   4.581  16.630  0.00  0.00    +0.000 A 
ENDBRANCH   5   6
BRANCH   1  16
ATOM     16  C   UNL     1       2.514   4.673  17.941  0.00  0.00    +0.000 C 
BRANCH  16  23
ATOM     17  C   UNL     1       1.816   5.899  20.970  0.00  0.00    +0.000 C 
ATOM     18  C   UNL     1       2.064   6.612  19.689  0.00  0.00    +0.000 A 
ATOM     19  N   UNL     1       1.971   7.947  19.664  0.00  0.00    +0.000 NA
ATOM     20  N   UNL     1       2.242   8.279  18.399  0.00  0.00    +0.000 N 
ATOM     21  C   UNL     1       2.187   9.663  17.985  0.00  0.00    +0.000 C 
ATOM     22  C   UNL     1       2.499   7.205  17.603  0.00  0.00    +0.000 A 
ATOM     23  C   UNL     1       2.390   6.082  18.403  0.00  0.00    +0.000 A 
ENDBRANCH  16  23
ENDBRANCH   1  16
TORSDOF 3
ENDMDL
MODEL 2
REMARK VINA RESULT:      -7.5      0.801      1.517
REMARK  Name = 
REMARK  5 active torsions:
REMARK  status: ('A' for Active; 'I' for Inactive)
REMARK    1  A    between atoms: C_1  and  C_2
REMARK    2  A    between atoms: N_4  and  C_5
REMARK    3  A    between atoms: C_7  and  C_8
REMARK    4  A    between atoms: C_8  and  N_9
REMARK    5  A    between atoms: C_13  and  C_14
REMARK                            x       y       z     vdW  Elec       q    Type
REMARK                         _______ _______ _______ _____ _____    ______ ____
ROOT
ATOM      1  N   UNL     1       3.363   3.616  19.085  0.00  0.00    +0.000 N 
ATOM      2  C   UNL     1       2.872   2.592  19.865  0.00  0.00    +0.000 A 
ATOM      3  C   UNL     1       3.966   2.032  20.462  0.00  0.00    +0.000 A 
ATOM      4  N   UNL     1       5.107   2.634  20.014  0.00  0.00    +0.000 NA
ATOM      5  C   UNL     1       4.751   3.590  19.166  0.00  0.00    +0.000 A 
ENDROOT
BRANCH   5   6
ATOM      6  C   UNL     1       5.706   4.492  18.476  0.00  0.00    +0.000 A 
ATOM      7  C   UNL     1       6.421   5.433  19.222  0.00  0.00    +0.000 A 
ATOM      8  C   UNL     1       7.371   6.211  18.595  0.00  0.00    +0.000 A 
ATOM      9  N   UNL     1       7.628   6.159  17.280  0.00  0.00    +0.000 NA
ATOM     10  C   UNL     1       6.896   5.326  16.528  0.00  0.00    +0.000 A 
ATOM     11  C   UNL     1       7.135   5.343  15.161  0.00  0.00    +0.000 A 
ATOM     12  C   UNL     1       6.410   4.554  14.270  0.00  0.00    +0.000 A 
ATOM     13  C   UNL     1       5.424   3.714  14.759  0.00  0.00    +0.000 A 
ATOM     14  C   UNL     1       5.182   3.660  16.134  0.00  0.00    +0.000 A 
ATOM     15  C   UNL     1       5.903   4.464  17.058  0.00  0.00    +0.000 A 
ENDBRANCH   5   6
BRANCH   1  16
ATOM     16  C   UNL     1       2.485   4.494  18.323  0.00  0.00    +0.000 C 
BRANCH  16  23
ATOM     17  C   UNL     1       3.598   7.453  17.241  0.00  0.00    +0.000 C 
ATOM     18  C   UNL     1       2.793   7.122  18.447  0.00  0.00    +0.000 A 
ATOM     19  N   UNL     1       2.462   8.105  19.292  0.00  0.00    +0.000 NA
ATOM     20  N   UNL     1       1.757   7.500  20.252  0.00  0.00    +0.000 N 
ATOM     21  C   UNL     1       1.267   8.259  21.380  0.00  0.00    +0.000 C 
ATOM     22  C   UNL     1       1.628   6.158  20.062  0.00  0.00    +0.000 A 
ATOM     23  C   UNL     1       2.297   5.858  18.888  0.00  0.00    +0.000 A 
ENDBRANCH  16  23
ENDBRANCH   1  16
TORSDOF 3
ENDMDL
MODEL 3
REMARK VINA RESULT:      -7.4      1.625      6.126
REMARK  Name = 
REMARK  5 active torsions:
REMARK  status: ('A' for Active; 'I' for Inactive)
REMARK    1  A    between atoms: C_1  and  C_2
REMARK    2  A    between atoms: N_4  and  C_5
REMARK    3  A    between atoms: C_7  and  C_8
REMARK    4  A    between atoms: C_8  and  N_9
REMARK    5  A    between atoms: C_13  and  C_14
REMARK                            x       y       z     vdW  Elec       q    Type
REMARK                         _______ _______ _______ _____ _____    ______ ____
ROOT
ATOM      1  N   UNL     1       4.061   4.947  19.414  0.00  0.00    +0.000 N 
ATOM      2  C   UNL     1       3.871   3.627  19.758  0.00  0.00    +0.000 A 
ATOM      3  C   UNL     1       2.518   3.434  19.723  0.00  0.00    +0.000 A 
ATOM      4  N   UNL     1       1.881   4.608  19.442  0.00  0.00    +0.000 NA
ATOM      5  C   UNL     1       2.811   5.537  19.266  0.00  0.00    +0.000 A 
ENDROOT
BRANCH   5   6
ATOM      6  C   UNL     1       2.524   6.951  18.920  0.00  0.00    +0.000 A 
ATOM      7  C   UNL     1       2.995   7.471  17.711  0.00  0.00    +0.000 A 
ATOM      8  C   UNL     1       2.654   8.757  17.350  0.00  0.00    +0.000 A 
ATOM      9  N   UNL     1       1.923   9.579  18.119  0.00  0.00    +0.000 NA
ATOM     10  C   UNL     1       1.532   9.133  19.320  0.00  0.00    +0.000 A 
ATOM     11  C   UNL     1       0.837  10.028  20.123  0.00  0.00    +0.000 A 
ATOM     12  C   UNL     1       0.414   9.698  21.408  0.00  0.00    +0.000 A 
ATOM     13  C   UNL     1       0.681   8.433  21.904  0.00  0.00    +0.000 A 
ATOM     14  C   UNL     1       1.355   7.507  21.106  0.00  0.00    +0.000 A 
ATOM     15  C   UNL     1       1.805   7.827  19.796  0.00  0.00    +0.000 A 
ENDBRANCH   5   6
BRANCH   1  16
ATOM     16  C   UNL     1       5.392   5.526  19.289  0.00  0.00    +0.000 C 
BRANCH  16  23
ATOM     17  C   UNL     1       7.684   7.448  17.798  0.00  0.00    +0.000 C 
ATOM     18  C   UNL     1       6.973   6.246  17.288  0.00  0.00    +0.000 A 
ATOM     19  N   UNL     1       7.209   5.839  16.036  0.00  0.00    +0.000 NA
ATOM     20  N   UNL     1       6.436   4.761  15.881  0.00  0.00    +0.000 N 
ATOM     21  C   UNL     1       6.397   4.073  14.610  0.00  0.00    +0.000 C 
ATOM     22  C   UNL     1       5.701   4.462  16.987  0.00  0.00    +0.000 A 
ATOM     23  C   UNL     1       6.015   5.413  17.941  0.00  0.00    +0.000 A 
ENDBRANCH  16  23
ENDBRANCH   1  16
TORSDOF 3
ENDMDL
MODEL 4
REMARK VINA RESULT:      -7.2      1.392      2.017
REMARK  Name = 
REMARK  5 active torsions:
REMARK  status: ('A' for Active; 'I' for Inactive)
REMARK    1  A    between atoms: C_1  and  C_2
REMARK    2  A    between atoms: N_4  and  C_5
REMARK    3  A    between atoms: C_7  and  C_8
REMARK    4  A    between atoms: C_8  and  N_9
REMARK    5  A    between atoms: C_13  and  C_14
REMARK                            x       y       z     vdW  Elec       q    Type
REMARK                         _______ _______ _______ _____ _____    ______ ____
ROOT
ATOM      1  N   UNL     1       2.696   4.710  19.332  0.00  0.00    +0.000 N 
ATOM      2  C   UNL     1       1.496   4.041  19.234  0.00  0.00    +0.000 A 
ATOM      3  C   UNL     1       1.701   3.061  18.303  0.00  0.00    +0.000 A 
ATOM      4  N   UNL     1       2.959   3.160  17.782  0.00  0.00    +0.000 NA
ATOM      5  C   UNL     1       3.567   4.169  18.393  0.00  0.00    +0.000 A 
ENDROOT
BRANCH   5   6
ATOM      6  C   UNL     1       4.965   4.588  18.123  0.00  0.00    +0.000 A 
ATOM      7  C   UNL     1       5.765   5.031  19.179  0.00  0.00    +0.000 A 
ATOM      8  C   UNL     1       7.088   5.337  18.944  0.00  0.00    +0.000 A 
ATOM      9  N   UNL     1       7.662   5.281  17.732  0.00  0.00    +0.000 NA
ATOM     10  C   UNL     1       6.895   4.941  16.688  0.00  0.00    +0.000 A 
ATOM     11  C   UNL     1       7.497   4.959  15.437  0.00  0.00    +0.000 A 
ATOM     12  C   UNL     1       6.794   4.666  14.270  0.00  0.00    +0.000 A 
ATOM     13  C   UNL     1       5.453   4.334  14.354  0.00  0.00    +0.000 A 
ATOM     14  C   UNL     1       4.831   4.284  15.604  0.00  0.00    +0.000 A 
ATOM     15  C   UNL     1       5.527   4.589  16.805  0.00  0.00    +0.000 A 
ENDBRANCH   5   6
BRANCH   1  16
ATOM     16  C   UNL     1       2.894   5.804  20.274  0.00  0.00    +0.000 C 
BRANCH  16  23
ATOM     17  C   UNL     1       3.097   7.688  17.522  0.00  0.00    +0.000 C 
ATOM     18  C   UNL     1       2.312   7.902  18.766  0.00  0.00    +0.000 A 
ATOM     19  N   UNL     1       1.584   9.019  18.886  0.00  0.00    +0.000 NA
ATOM     20  N   UNL     1       1.010   8.919  20.088  0.00  0.00    +0.000 N 
ATOM     21  C   UNL     1       0.173   9.988  20.583  0.00  0.00    +0.000 C 
ATOM     22  C   UNL     1       1.348   7.781  20.753  0.00  0.00    +0.000 A 
ATOM     23  C   UNL     1       2.208   7.078  19.927  0.00  0.00    +0.000 A 
ENDBRANCH  16  23
ENDBRANCH   1  16
TORSDOF 3
ENDMDL
MODEL 5
REMARK VINA RESULT:      -7.2      1.153      2.439
REMARK  Name = 
REMARK  5 active torsions:
REMARK  status: ('A' for Active; 'I' for Inactive)
REMARK    1  A    between atoms: C_1  and  C_2
REMARK    2  A    between atoms: N_4  and  C_5
REMARK    3  A    between atoms: C_7  and  C_8
REMARK    4  A    between atoms: C_8  and  N_9
REMARK    5  A    between atoms: C_13  and  C_14
REMARK                            x       y       z     vdW  Elec       q    Type
REMARK                         _______ _______ _______ _____ _____    ______ ____
ROOT
ATOM      1  N   UNL     1       2.665   3.302  17.951  0.00  0.00    +0.000 N 
ATOM      2  C   UNL     1       2.243   2.189  18.643  0.00  0.00    +0.000 A 
ATOM      3  C   UNL     1       3.366   1.436  18.840  0.00  0.00    +0.000 A 
ATOM      4  N   UNL     1       4.438   2.018  18.228  0.00  0.00    +0.000 NA
ATOM      5  C   UNL     1       4.019   3.148  17.673  0.00  0.00    +0.000 A 
ENDROOT
BRANCH   5   6
ATOM      6  C   UNL     1       4.893   4.088  16.928  0.00  0.00    +0.000 A 
ATOM      7  C   UNL     1       4.795   4.159  15.536  0.00  0.00    +0.000 A 
ATOM      8  C   UNL     1       5.544   5.093  14.852  0.00  0.00    +0.000 A 
ATOM      9  N   UNL     1       6.416   5.926  15.441  0.00  0.00    +0.000 NA
ATOM     10  C   UNL     1       6.591   5.818  16.765  0.00  0.00    +0.000 A 
ATOM     11  C   UNL     1       7.549   6.644  17.338  0.00  0.00    +0.000 A 
ATOM     12  C   UNL     1       7.854   6.597  18.697  0.00  0.00    +0.000 A 
ATOM     13  C   UNL     1       7.174   5.708  19.512  0.00  0.00    +0.000 A 
ATOM     14  C   UNL     1       6.187   4.886  18.964  0.00  0.00    +0.000 A 
ATOM     15  C   UNL     1       5.869   4.910  17.579  0.00  0.00    +0.000 A 
ENDBRANCH   5   6
BRANCH   1  16
ATOM     16  C   UNL     1       1.753   4.382  17.596  0.00  0.00    +0.000 C 
BRANCH  16  23
ATOM     17  C   UNL     1       2.171   5.166  20.817  0.00  0.00    +0.000 C 
ATOM     18  C   UNL     1       2.186   6.041  19.615  0.00  0.00    +0.000 A 
ATOM     19  N   UNL     1       2.348   7.359  19.779  0.00  0.00    +0.000 NA
ATOM     20  N   UNL     1       2.316   7.857  18.540  0.00  0.00    +0.000 N 
ATOM     21  C   UNL     1       2.415   9.284  18.329  0.00  0.00    +0.000 C 
ATOM     22  C   UNL     1       2.130   6.909  17.582  0.00  0.00    +0.000 A 
ATOM     23  C   UNL     1       2.035   5.695  18.239  0.00  0.00    +0.000 A 
ENDBRANCH  16  23
ENDBRANCH   1  16
TORSDOF 3
ENDMDL
MODEL 6
REMARK VINA RESULT:      -7.1      1.396      2.153
REMARK  Name = 
REMARK  5 active torsions:
REMARK  status: ('A' for Active; 'I' for Inactive)
REMARK    1  A    between atoms: C_1  and  C_2
REMARK    2  A    between atoms: N_4  and  C_5
REMARK    3  A    between atoms: C_7  and  C_8
REMARK    4  A    between atoms: C_8  and  N_9
REMARK    5  A    between atoms: C_13  and  C_14
REMARK                            x       y       z     vdW  Elec       q    Type
REMARK                         _______ _______ _______ _____ _____    ______ ____
ROOT
ATOM      1  N   UNL     1       2.797   5.297  19.046  0.00  0.00    +0.000 N 
ATOM      2  C   UNL     1       1.783   4.598  19.662  0.00  0.00    +0.000 A 
ATOM      3  C   UNL     1       2.370   3.469  20.160  0.00  0.00    +0.000 A 
ATOM      4  N   UNL     1       3.687   3.426  19.805  0.00  0.00    +0.000 NA
ATOM      5  C   UNL     1       3.953   4.528  19.115  0.00  0.00    +0.000 A 
ENDROOT
BRANCH   5   6
ATOM      6  C   UNL     1       5.290   4.868  18.568  0.00  0.00    +0.000 A 
ATOM      7  C   UNL     1       6.257   5.419  19.412  0.00  0.00    +0.000 A 
ATOM      8  C   UNL     1       7.526   5.654  18.925  0.00  0.00    +0.000 A 
ATOM      9  N   UNL     1       7.890   5.428  17.653  0.00  0.00    +0.000 NA
ATOM     10  C   UNL     1       6.956   4.981  16.802  0.00  0.00    +0.000 A 
ATOM     11  C   UNL     1       7.343   4.822  15.478  0.00  0.00    +0.000 A 
ATOM     12  C   UNL     1       6.453   4.403  14.491  0.00  0.00    +0.000 A 
ATOM     13  C   UNL     1       5.142   4.124  14.836  0.00  0.00    +0.000 A 
ATOM     14  C   UNL     1       4.737   4.251  16.166  0.00  0.00    +0.000 A 
ATOM     15  C   UNL     1       5.624   4.686  17.187  0.00  0.00    +0.000 A 
ENDBRANCH   5   6
BRANCH   1  16
ATOM     16  C   UNL     1       2.574   6.600  18.433  0.00  0.00    +0.000 C 
BRANCH  16  23
ATOM     17  C   UNL     1       1.326   9.613  17.703  0.00  0.00    +0.000 C 
ATOM     18  C   UNL     1       1.447   8.926  19.016  0.00  0.00    +0.000 A 
ATOM     19  N   UNL     1       1.052   9.570  20.121  0.00  0.00    +0.000 NA
ATOM     20  N   UNL     1       1.284   8.707  21.114  0.00  0.00    +0.000 N 
ATOM     21  C   UNL     1       1.016   9.088  22.482  0.00  0.00    +0.000 C 
ATOM     22  C   UNL     1       1.824   7.531  20.691  0.00  0.00    +0.000 A 
ATOM     23  C   UNL     1       1.956   7.626  19.317  0.00  0.00    +0.000 A 
ENDBRANCH  16  23
ENDBRANCH   1  16
TORSDOF 3
ENDMDL
MODEL 7
REMARK VINA RESULT:      -7.1      2.339      6.327
REMARK  Name = 
REMARK  5 active torsions:
REMARK  status: ('A' for Active; 'I' for Inactive)
REMARK    1  A    between atoms: C_1  and  C_2
REMARK    2  A    between atoms: N_4  and  C_5
REMARK    3  A    between atoms: C_7  and  C_8
REMARK    4  A    between atoms: C_8  and  N_9
REMARK    5  A    between atoms: C_13  and  C_14
REMARK                            x       y       z     vdW  Elec       q    Type
REMARK                         _______ _______ _______ _____ _____    ______ ____
ROOT
ATOM      1  N   UNL     1       6.303   5.094  16.281  0.00  0.00    +0.000 N 
ATOM      2  C   UNL     1       7.643   4.802  16.407  0.00  0.00    +0.000 A 
ATOM      3  C   UNL     1       7.817   4.451  17.716  0.00  0.00    +0.000 A 
ATOM      4  N   UNL     1       6.645   4.590  18.402  0.00  0.00    +0.000 NA
ATOM      5  C   UNL     1       5.721   4.993  17.540  0.00  0.00    +0.000 A 
ENDROOT
BRANCH   5   6
ATOM      6  C   UNL     1       4.300   5.239  17.892  0.00  0.00    +0.000 A 
ATOM      7  C   UNL     1       3.848   6.552  18.044  0.00  0.00    +0.000 A 
ATOM      8  C   UNL     1       2.511   6.784  18.284  0.00  0.00    +0.000 A 
ATOM      9  N   UNL     1       1.601   5.809  18.434  0.00  0.00    +0.000 NA
ATOM     10  C   UNL     1       2.025   4.539  18.379  0.00  0.00    +0.000 A 
ATOM     11  C   UNL     1       1.074   3.553  18.606  0.00  0.00    +0.000 A 
ATOM     12  C   UNL     1       1.399   2.198  18.617  0.00  0.00    +0.000 A 
ATOM     13  C   UNL     1       2.709   1.814  18.383  0.00  0.00    +0.000 A 
ATOM     14  C   UNL     1       3.677   2.787  18.126  0.00  0.00    +0.000 A 
ATOM     15  C   UNL     1       3.370   4.175  18.121  0.00  0.00    +0.000 A 
ENDBRANCH   5   6
BRANCH   1  16
ATOM     16  C   UNL     1       5.711   5.464  15.002  0.00  0.00    +0.000 C 
BRANCH  16  23
ATOM     17  C   UNL     1       8.280   5.727  12.881  0.00  0.00    +0.000 C 
ATOM     18  C   UNL     1       7.177   4.731  12.921  0.00  0.00    +0.000 A 
ATOM     19  N   UNL     1       7.121   3.792  11.969  0.00  0.00    +0.000 NA
ATOM     20  N   UNL     1       6.041   3.068  12.274  0.00  0.00    +0.000 N 
ATOM     21  C   UNL     1       5.636   1.974  11.421  0.00  0.00    +0.000 C 
ATOM     22  C   UNL     1       5.392   3.511  13.386  0.00  0.00    +0.000 A 
ATOM     23  C   UNL     1       6.098   4.608  13.847  0.00  0.00    +0.000 A 
ENDBRANCH  16  23
ENDBRANCH   1  16
TORSDOF 3
ENDMDL
MODEL 8
REMARK VINA RESULT:      -7.1      1.308      2.808
REMARK  Name = 
REMARK  5 active torsions:
REMARK  status: ('A' for Active; 'I' for Inactive)
REMARK    1  A    between atoms: C_1  and  C_2
REMARK    2  A    between atoms: N_4  and  C_5
REMARK    3  A    between atoms: C_7  and  C_8
REMARK    4  A    between atoms: C_8  and  N_9
REMARK    5  A    between atoms: C_13  and  C_14
REMARK                            x       y       z     vdW  Elec       q    Type
REMARK                         _______ _______ _______ _____ _____    ______ ____
ROOT
ATOM      1  N   UNL     1       2.958   3.559  19.502  0.00  0.00    +0.000 N 
ATOM      2  C   UNL     1       2.767   2.731  20.587  0.00  0.00    +0.000 A 
ATOM      3  C   UNL     1       3.987   2.167  20.833  0.00  0.00    +0.000 A 
ATOM      4  N   UNL     1       4.891   2.568  19.893  0.00  0.00    +0.000 NA
ATOM      5  C   UNL     1       4.271   3.404  19.071  0.00  0.00    +0.000 A 
ENDROOT
BRANCH   5   6
ATOM      6  C   UNL     1       4.921   4.080  17.920  0.00  0.00    +0.000 A 
ATOM      7  C   UNL     1       4.530   3.749  16.620  0.00  0.00    +0.000 A 
ATOM      8  C   UNL     1       5.070   4.439  15.555  0.00  0.00    +0.000 A 
ATOM      9  N   UNL     1       6.002   5.395  15.682  0.00  0.00    +0.000 NA
ATOM     10  C   UNL     1       6.456   5.671  16.912  0.00  0.00    +0.000 A 
ATOM     11  C   UNL     1       7.470   6.616  17.007  0.00  0.00    +0.000 A 
ATOM     12  C   UNL     1       8.054   6.958  18.225  0.00  0.00    +0.000 A 
ATOM     13  C   UNL     1       7.607   6.348  19.385  0.00  0.00    +0.000 A 
ATOM     14  C   UNL     1       6.570   5.414  19.318  0.00  0.00    +0.000 A 
ATOM     15  C   UNL     1       5.968   5.043  18.085  0.00  0.00    +0.000 A 
ENDBRANCH   5   6
BRANCH   1  16
ATOM     16  C   UNL     1       1.886   4.386  18.965  0.00  0.00    +0.000 C 
BRANCH  16  23
ATOM     17  C   UNL     1       3.121   7.147  17.545  0.00  0.00    +0.000 C 
ATOM     18  C   UNL     1       2.422   6.977  18.846  0.00  0.00    +0.000 A 
ATOM     19  N   UNL     1       2.264   8.045  19.638  0.00  0.00    +0.000 NA
ATOM     20  N   UNL     1       1.616   7.576  20.708  0.00  0.00    +0.000 N 
ATOM     21  C   UNL     1       1.311   8.456  21.814  0.00  0.00    +0.000 C 
ATOM     22  C   UNL     1       1.357   6.242  20.640  0.00  0.00    +0.000 A 
ATOM     23  C   UNL     1       1.871   5.799  19.435  0.00  0.00    +0.000 A 
ENDBRANCH  16  23
ENDBRANCH   1  16
TORSDOF 3
ENDMDL
MODEL 9
REMARK VINA RESULT:      -7.0      1.286      5.708
REMARK  Name = 
REMARK  5 active torsions:
REMARK  status: ('A' for Active; 'I' for Inactive)
REMARK    1  A    between atoms: C_1  and  C_2
REMARK    2  A    between atoms: N_4  and  C_5
REMARK    3  A    between atoms: C_7  and  C_8
REMARK    4  A    between atoms: C_8  and  N_9
REMARK    5  A    between atoms: C_13  and  C_14
REMARK                            x       y       z     vdW  Elec       q    Type
REMARK                         _______ _______ _______ _____ _____    ______ ____
ROOT
ATOM      1  N   UNL     1       4.187   3.761  18.542  0.00  0.00    +0.000 N 
ATOM      2  C   UNL     1       3.846   2.426  18.562  0.00  0.00    +0.000 A 
ATOM      3  C   UNL     1       2.501   2.392  18.324  0.00  0.00    +0.000 A 
ATOM      4  N   UNL     1       2.005   3.660  18.232  0.00  0.00    +0.000 NA
ATOM      5  C   UNL     1       3.021   4.500  18.376  0.00  0.00    +0.000 A 
ENDROOT
BRANCH   5   6
ATOM      6  C   UNL     1       2.899   5.978  18.317  0.00  0.00    +0.000 A 
ATOM      7  C   UNL     1       3.515   6.676  17.274  0.00  0.00    +0.000 A 
ATOM      8  C   UNL     1       3.328   8.038  17.169  0.00  0.00    +0.000 A 
ATOM      9  N   UNL     1       2.619   8.763  18.047  0.00  0.00    +0.000 NA
ATOM     10  C   UNL     1       2.091   8.130  19.103  0.00  0.00    +0.000 A 
ATOM     11  C   UNL     1       1.421   8.916  20.032  0.00  0.00    +0.000 A 
ATOM     12  C   UNL     1       0.865   8.383  21.193  0.00  0.00    +0.000 A 
ATOM     13  C   UNL     1       0.969   7.022  21.429  0.00  0.00    +0.000 A 
ATOM     14  C   UNL     1       1.615   6.207  20.497  0.00  0.00    +0.000 A 
ATOM     15  C   UNL     1       2.199   6.733  19.312  0.00  0.00    +0.000 A 
ENDBRANCH   5   6
BRANCH   1  16
ATOM     16  C   UNL     1       5.565   4.206  18.707  0.00  0.00    +0.000 C 
BRANCH  16  23
ATOM     17  C   UNL     1       7.667   6.748  18.171  0.00  0.00    +0.000 C 
ATOM     18  C   UNL     1       7.127   5.743  17.218  0.00  0.00    +0.000 A 
ATOM     19  N   UNL     1       7.460   5.834  15.925  0.00  0.00    +0.000 NA
ATOM     20  N   UNL     1       6.829   4.812  15.342  0.00  0.00    +0.000 N 
ATOM     21  C   UNL     1       6.925   4.621  13.912  0.00  0.00    +0.000 C 
ATOM     22  C   UNL     1       6.092   4.067  16.211  0.00  0.00    +0.000 A 
ATOM     23  C   UNL     1       6.250   4.642  17.459  0.00  0.00    +0.000 A 
ENDBRANCH  16  23
ENDBRANCH   1  16
TORSDOF 3
ENDMDL
