MODEL 1
REMARK VINA RESULT:      -8.9      0.000      0.000
REMARK  Name = 
REMARK  7 active torsions:
REMARK  status: ('A' for Active; 'I' for Inactive)
REMARK    1  A    between atoms: C_1  and  O_2
REMARK    2  A    between atoms: O_2  and  C_3
REMARK    3  A    between atoms: C_6  and  C_7
REMARK    4  A    between atoms: C_14  and  N_15
REMARK    5  A    between atoms: C_23  and  N_24
REMARK    6  A    between atoms: N_24  and  S_25
REMARK    7  A    between atoms: S_25  and  C_28
REMARK                            x       y       z     vdW  Elec       q    Type
REMARK                         _______ _______ _______ _____ _____    ______ ____
ROOT
ATOM      1  C   UNL     1      -0.001   9.788  21.022  0.00  0.00    +0.000 A 
ATOM      2  N   UNL     1       0.591   8.692  21.533  0.00  0.00    +0.000 NA
ATOM      3  C   UNL     1       1.450   8.029  20.711  0.00  0.00    +0.000 A 
ATOM      4  C   UNL     1       1.758   8.372  19.386  0.00  0.00    +0.000 A 
ATOM      5  C   UNL     1       1.194   9.577  18.950  0.00  0.00    +0.000 A 
ATOM      6  C   UNL     1       0.308  10.293  19.761  0.00  0.00    +0.000 A 
ENDROOT
BRANCH   4   7
ATOM      7  C   UNL     1       2.497   7.462  18.467  0.00  0.00    +0.000 A 
ATOM      8  C   UNL     1       3.608   7.918  17.752  0.00  0.00    +0.000 A 
ATOM      9  C   UNL     1       4.339   7.074  16.922  0.00  0.00    +0.000 A 
ATOM     10  C   UNL     1       4.161   5.712  16.952  0.00  0.00    +0.000 A 
ATOM     11  N   UNL     1       5.070   5.006  16.274  0.00  0.00    +0.000 NA
ATOM     12  C   UNL     1       5.136   3.691  16.515  0.00  0.00    +0.000 A 
ATOM     13  C   UNL     1       4.304   3.046  17.402  0.00  0.00    +0.000 A 
ATOM     14  C   UNL     1       3.274   3.753  18.045  0.00  0.00    +0.000 A 
ATOM     15  C   UNL     1       3.163   5.158  17.786  0.00  0.00    +0.000 A 
ATOM     16  C   UNL     1       2.244   6.075  18.384  0.00  0.00    +0.000 A 
BRANCH  14  17
ATOM     17  N   UNL     1       2.608   3.034  19.041  0.00  0.00    +0.000 N 
ATOM     18  C   UNL     1       1.161   2.978  19.211  0.00  0.00    +0.000 C 
ATOM     19  C   UNL     1       0.940   3.312  20.685  0.00  0.00    +0.000 C 
ATOM     20  C   UNL     1       2.172   2.727  21.352  0.00  0.00    +0.000 C 
ATOM     21  C   UNL     1       3.283   3.045  20.352  0.00  0.00    +0.000 C 
ENDBRANCH  14  17
ENDBRANCH   4   7
BRANCH   1  23
ATOM     22  C   UNL     1      -0.805  10.296  23.170  0.00  0.00    +0.000 C 
ATOM     23  O   UNL     1      -0.961  10.452  21.762  0.00  0.00    +0.000 OA
ENDBRANCH   1  23
BRANCH   6  24
ATOM     24  N   UNL     1      -0.351  11.428  19.199  0.00  0.00    +0.000 N 
ATOM     25  H   UNL     1       0.232  12.107  18.709  0.00  0.00    +0.000 HD
BRANCH  24  26
ATOM     26  S   UNL     1      -1.746  11.105  18.288  0.00  0.00    +0.000 S 
ATOM     27  O   UNL     1      -1.552  11.765  17.018  0.00  0.00    +0.000 OA
ATOM     28  O   UNL     1      -2.039   9.691  18.337  0.00  0.00    +0.000 OA
BRANCH  26  29
ATOM     29  C   UNL     1      -2.996  11.969  19.155  0.00  0.00    +0.000 A 
ATOM     30  C   UNL     1      -2.676  12.766  20.260  0.00  0.00    +0.000 A 
ATOM     31  C   UNL     1      -3.702  13.421  20.941  0.00  0.00    +0.000 A 
ATOM     32  C   UNL     1      -5.016  13.256  20.517  0.00  0.00    +0.000 A 
ATOM     33  F   UNL     1      -5.994  13.905  21.161  0.00  0.00    +0.000 F 
ATOM     34  C   UNL     1      -5.337  12.469  19.419  0.00  0.00    +0.000 A 
ATOM     35  C   UNL     1      -4.316  11.822  18.740  0.00  0.00    +0.000 A 
ATOM     36  F   UNL     1      -4.632  11.060  17.685  0.00  0.00    +0.000 F 
ENDBRANCH  26  29
ENDBRANCH  24  26
ENDBRANCH   6  24
TORSDOF 6
ENDMDL
MODEL 2
REMARK VINA RESULT:      -8.7      4.772      9.324
REMARK  Name = 
REMARK  7 active torsions:
REMARK  status: ('A' for Active; 'I' for Inactive)
REMARK    1  A    between atoms: C_1  and  O_2
REMARK    2  A    between atoms: O_2  and  C_3
REMARK    3  A    between atoms: C_6  and  C_7
REMARK    4  A    between atoms: C_14  and  N_15
REMARK    5  A    between atoms: C_23  and  N_24
REMARK    6  A    between atoms: N_24  and  S_25
REMARK    7  A    between atoms: S_25  and  C_28
REMARK                            x       y       z     vdW  Elec       q    Type
REMARK                         _______ _______ _______ _____ _____    ______ ____
ROOT
ATOM      1  C   UNL     1       4.870   5.709  16.529  0.00  0.00    +0.000 A 
ATOM      2  N   UNL     1       4.559   6.999  16.300  0.00  0.00    +0.000 NA
ATOM      3  C   UNL     1       3.777   7.609  17.232  0.00  0.00    +0.000 A 
ATOM      4  C   UNL     1       3.255   7.015  18.392  0.00  0.00    +0.000 A 
ATOM      5  C   UNL     1       3.700   5.708  18.627  0.00  0.00    +0.000 A 
ATOM      6  C   UNL     1       4.506   5.043  17.698  0.00  0.00    +0.000 A 
ENDROOT
BRANCH   4   7
ATOM      7  C   UNL     1       2.201   7.659  19.224  0.00  0.00    +0.000 A 
ATOM      8  C   UNL     1       1.919   7.185  20.508  0.00  0.00    +0.000 A 
ATOM      9  C   UNL     1       0.969   7.798  21.320  0.00  0.00    +0.000 A 
ATOM     10  C   UNL     1       0.445   9.028  21.004  0.00  0.00    +0.000 A 
ATOM     11  N   UNL     1      -0.283   9.599  21.967  0.00  0.00    +0.000 NA
ATOM     12  C   UNL     1      -0.555  10.904  21.844  0.00  0.00    +0.000 A 
ATOM     13  C   UNL     1      -0.140  11.661  20.772  0.00  0.00    +0.000 A 
ATOM     14  C   UNL     1       0.536  11.055  19.700  0.00  0.00    +0.000 A 
ATOM     15  C   UNL     1       0.818   9.654  19.792  0.00  0.00    +0.000 A 
ATOM     16  C   UNL     1       1.552   8.859  18.858  0.00  0.00    +0.000 A 
BRANCH  14  17
ATOM     17  N   UNL     1       1.051  11.949  18.756  0.00  0.00    +0.000 N 
ATOM     18  C   UNL     1       2.416  11.939  18.248  0.00  0.00    +0.000 C 
ATOM     19  C   UNL     1       2.893  13.381  18.416  0.00  0.00    +0.000 C 
ATOM     20  C   UNL     1       1.622  14.183  18.202  0.00  0.00    +0.000 C 
ATOM     21  C   UNL     1       0.562  13.332  18.902  0.00  0.00    +0.000 C 
ENDBRANCH  14  17
ENDBRANCH   4   7
BRANCH   1  23
ATOM     22  C   UNL     1       6.983   4.998  15.790  0.00  0.00    +0.000 C 
ATOM     23  O   UNL     1       5.574   4.997  15.577  0.00  0.00    +0.000 OA
ENDBRANCH   1  23
BRANCH   6  24
ATOM     24  N   UNL     1       4.795   3.663  17.924  0.00  0.00    +0.000 N 
ATOM     25  H   UNL     1       5.283   3.427  18.788  0.00  0.00    +0.000 HD
BRANCH  24  26
ATOM     26  S   UNL     1       3.508   2.583  17.678  0.00  0.00    +0.000 S 
ATOM     27  O   UNL     1       2.662   3.196  16.680  0.00  0.00    +0.000 OA
ATOM     28  O   UNL     1       4.027   1.251  17.475  0.00  0.00    +0.000 OA
BRANCH  26  29
ATOM     29  C   UNL     1       2.653   2.629  19.204  0.00  0.00    +0.000 A 
ATOM     30  C   UNL     1       1.299   2.977  19.252  0.00  0.00    +0.000 A 
ATOM     31  C   UNL     1       0.657   3.026  20.489  0.00  0.00    +0.000 A 
ATOM     32  C   UNL     1       1.379   2.744  21.644  0.00  0.00    +0.000 A 
ATOM     33  F   UNL     1       0.752   2.772  22.826  0.00  0.00    +0.000 F 
ATOM     34  C   UNL     1       2.722   2.396  21.600  0.00  0.00    +0.000 A 
ATOM     35  C   UNL     1       3.358   2.343  20.369  0.00  0.00    +0.000 A 
ATOM     36  F   UNL     1       4.655   2.011  20.333  0.00  0.00    +0.000 F 
ENDBRANCH  26  29
ENDBRANCH  24  26
ENDBRANCH   6  24
TORSDOF 6
ENDMDL
MODEL 3
REMARK VINA RESULT:      -8.6      1.619      2.000
REMARK  Name = 
REMARK  7 active torsions:
REMARK  status: ('A' for Active; 'I' for Inactive)
REMARK    1  A    between atoms: C_1  and  O_2
REMARK    2  A    between atoms: O_2  and  C_3
REMARK    3  A    between atoms: C_6  and  C_7
REMARK    4  A    between atoms: C_14  and  N_15
REMARK    5  A    between atoms: C_23  and  N_24
REMARK    6  A    between atoms: N_24  and  S_25
REMARK    7  A    between atoms: S_25  and  C_28
REMARK                            x       y       z     vdW  Elec       q    Type
REMARK                         _______ _______ _______ _____ _____    ______ ____
ROOT
ATOM      1  C   UNL     1      -0.012   9.584  21.009  0.00  0.00    +0.000 A 
ATOM      2  N   UNL     1       0.698   8.565  21.531  0.00  0.00    +0.000 NA
ATOM      3  C   UNL     1       1.569   7.941  20.692  0.00  0.00    +0.000 A 
ATOM      4  C   UNL     1       1.782   8.250  19.340  0.00  0.00    +0.000 A 
ATOM      5  C   UNL     1       1.095   9.383  18.887  0.00  0.00    +0.000 A 
ATOM      6  C   UNL     1       0.191  10.057  19.714  0.00  0.00    +0.000 A 
ENDROOT
BRANCH   4   7
ATOM      7  C   UNL     1       2.551   7.366  18.421  0.00  0.00    +0.000 A 
ATOM      8  C   UNL     1       3.674   7.847  17.743  0.00  0.00    +0.000 A 
ATOM      9  C   UNL     1       4.433   7.027  16.913  0.00  0.00    +0.000 A 
ATOM     10  C   UNL     1       4.268   5.663  16.911  0.00  0.00    +0.000 A 
ATOM     11  N   UNL     1       5.199   4.979  16.241  0.00  0.00    +0.000 NA
ATOM     12  C   UNL     1       5.272   3.660  16.457  0.00  0.00    +0.000 A 
ATOM     13  C   UNL     1       4.425   2.989  17.310  0.00  0.00    +0.000 A 
ATOM     14  C   UNL     1       3.374   3.674  17.943  0.00  0.00    +0.000 A 
ATOM     15  C   UNL     1       3.255   5.083  17.710  0.00  0.00    +0.000 A 
ATOM     16  C   UNL     1       2.313   5.978  18.304  0.00  0.00    +0.000 A 
BRANCH  14  17
ATOM     17  N   UNL     1       2.690   2.928  18.908  0.00  0.00    +0.000 N 
ATOM     18  C   UNL     1       1.247   2.733  18.950  0.00  0.00    +0.000 C 
ATOM     19  C   UNL     1       0.858   3.097  20.382  0.00  0.00    +0.000 C 
ATOM     20  C   UNL     1       2.073   2.664  21.182  0.00  0.00    +0.000 C 
ATOM     21  C   UNL     1       3.237   3.056  20.271  0.00  0.00    +0.000 C 
ENDBRANCH  14  17
ENDBRANCH   4   7
BRANCH   1  23
ATOM     22  C   UNL     1      -0.657  10.291  23.153  0.00  0.00    +0.000 C 
ATOM     23  O   UNL     1      -0.988  10.196  21.771  0.00  0.00    +0.000 OA
ENDBRANCH   1  23
BRANCH   6  24
ATOM     24  N   UNL     1      -0.590  11.106  19.142  0.00  0.00    +0.000 N 
ATOM     25  H   UNL     1      -1.591  11.097  19.337  0.00  0.00    +0.000 HD
BRANCH  24  26
ATOM     26  S   UNL     1       0.020  12.679  19.334  0.00  0.00    +0.000 S 
ATOM     27  O   UNL     1       1.411  12.523  19.686  0.00  0.00    +0.000 OA
ATOM     28  O   UNL     1      -0.360  13.487  18.198  0.00  0.00    +0.000 OA
BRANCH  26  29
ATOM     29  C   UNL     1      -0.827  13.263  20.749  0.00  0.00    +0.000 A 
ATOM     30  C   UNL     1      -0.119  13.717  21.867  0.00  0.00    +0.000 A 
ATOM     31  C   UNL     1      -0.828  14.152  22.986  0.00  0.00    +0.000 A 
ATOM     32  C   UNL     1      -2.218  14.112  22.971  0.00  0.00    +0.000 A 
ATOM     33  F   UNL     1      -2.893  14.552  24.040  0.00  0.00    +0.000 F 
ATOM     34  C   UNL     1      -2.925  13.666  21.863  0.00  0.00    +0.000 A 
ATOM     35  C   UNL     1      -2.218  13.236  20.749  0.00  0.00    +0.000 A 
ATOM     36  F   UNL     1      -2.905  12.802  19.685  0.00  0.00    +0.000 F 
ENDBRANCH  26  29
ENDBRANCH  24  26
ENDBRANCH   6  24
TORSDOF 6
ENDMDL
MODEL 4
REMARK VINA RESULT:      -8.5      2.028      3.699
REMARK  Name = 
REMARK  7 active torsions:
REMARK  status: ('A' for Active; 'I' for Inactive)
REMARK    1  A    between atoms: C_1  and  O_2
REMARK    2  A    between atoms: O_2  and  C_3
REMARK    3  A    between atoms: C_6  and  C_7
REMARK    4  A    between atoms: C_14  and  N_15
REMARK    5  A    between atoms: C_23  and  N_24
REMARK    6  A    between atoms: N_24  and  S_25
REMARK    7  A    between atoms: S_25  and  C_28
REMARK                            x       y       z     vdW  Elec       q    Type
REMARK                         _______ _______ _______ _____ _____    ______ ____
ROOT
ATOM      1  C   UNL     1       1.494  11.267  18.490  0.00  0.00    +0.000 A 
ATOM      2  N   UNL     1       2.214  10.473  17.675  0.00  0.00    +0.000 NA
ATOM      3  C   UNL     1       2.336   9.170  18.051  0.00  0.00    +0.000 A 
ATOM      4  C   UNL     1       1.796   8.589  19.209  0.00  0.00    +0.000 A 
ATOM      5  C   UNL     1       0.971   9.439  19.956  0.00  0.00    +0.000 A 
ATOM      6  C   UNL     1       0.816  10.784  19.607  0.00  0.00    +0.000 A 
ENDROOT
BRANCH   4   7
ATOM      7  C   UNL     1       2.184   7.233  19.688  0.00  0.00    +0.000 A 
ATOM      8  C   UNL     1       1.299   6.467  20.450  0.00  0.00    +0.000 A 
ATOM      9  C   UNL     1       1.624   5.180  20.871  0.00  0.00    +0.000 A 
ATOM     10  C   UNL     1       2.711   4.514  20.360  0.00  0.00    +0.000 A 
ATOM     11  N   UNL     1       2.784   3.219  20.679  0.00  0.00    +0.000 NA
ATOM     12  C   UNL     1       3.628   2.456  19.974  0.00  0.00    +0.000 A 
ATOM     13  C   UNL     1       4.425   2.949  18.966  0.00  0.00    +0.000 A 
ATOM     14  C   UNL     1       4.438   4.327  18.687  0.00  0.00    +0.000 A 
ATOM     15  C   UNL     1       3.564   5.172  19.444  0.00  0.00    +0.000 A 
ATOM     16  C   UNL     1       3.365   6.577  19.277  0.00  0.00    +0.000 A 
BRANCH  14  17
ATOM     17  N   UNL     1       5.155   4.682  17.540  0.00  0.00    +0.000 N 
ATOM     18  C   UNL     1       4.795   4.310  16.178  0.00  0.00    +0.000 C 
ATOM     19  C   UNL     1       6.078   3.719  15.597  0.00  0.00    +0.000 C 
ATOM     20  C   UNL     1       7.164   4.519  16.292  0.00  0.00    +0.000 C 
ATOM     21  C   UNL     1       6.619   4.669  17.713  0.00  0.00    +0.000 C 
ENDBRANCH  14  17
ENDBRANCH   4   7
BRANCH   1  23
ATOM     22  C   UNL     1       2.620  13.328  18.501  0.00  0.00    +0.000 C 
ATOM     23  O   UNL     1       1.414  12.622  18.226  0.00  0.00    +0.000 OA
ENDBRANCH   1  23
BRANCH   6  24
ATOM     24  N   UNL     1       0.089  11.631  20.497  0.00  0.00    +0.000 N 
ATOM     25  H   UNL     1       0.607  12.386  20.945  0.00  0.00    +0.000 HD
BRANCH  24  26
ATOM     26  S   UNL     1      -1.398  12.216  19.922  0.00  0.00    +0.000 S 
ATOM     27  O   UNL     1      -1.139  13.554  19.446  0.00  0.00    +0.000 OA
ATOM     28  O   UNL     1      -1.999  11.234  19.049  0.00  0.00    +0.000 OA
BRANCH  26  29
ATOM     29  C   UNL     1      -2.363  12.344  21.376  0.00  0.00    +0.000 A 
ATOM     30  C   UNL     1      -1.849  11.937  22.612  0.00  0.00    +0.000 A 
ATOM     31  C   UNL     1      -2.656  12.031  23.744  0.00  0.00    +0.000 A 
ATOM     32  C   UNL     1      -3.954  12.511  23.619  0.00  0.00    +0.000 A 
ATOM     33  F   UNL     1      -4.717  12.619  24.713  0.00  0.00    +0.000 F 
ATOM     34  C   UNL     1      -4.468  12.919  22.395  0.00  0.00    +0.000 A 
ATOM     35  C   UNL     1      -3.663  12.828  21.269  0.00  0.00    +0.000 A 
ATOM     36  F   UNL     1      -4.165  13.218  20.091  0.00  0.00    +0.000 F 
ENDBRANCH  26  29
ENDBRANCH  24  26
ENDBRANCH   6  24
TORSDOF 6
ENDMDL
MODEL 5
REMARK VINA RESULT:      -8.5      2.387      2.838
REMARK  Name = 
REMARK  7 active torsions:
REMARK  status: ('A' for Active; 'I' for Inactive)
REMARK    1  A    between atoms: C_1  and  O_2
REMARK    2  A    between atoms: O_2  and  C_3
REMARK    3  A    between atoms: C_6  and  C_7
REMARK    4  A    between atoms: C_14  and  N_15
REMARK    5  A    between atoms: C_23  and  N_24
REMARK    6  A    between atoms: N_24  and  S_25
REMARK    7  A    between atoms: S_25  and  C_28
REMARK                            x       y       z     vdW  Elec       q    Type
REMARK                         _______ _______ _______ _____ _____    ______ ____
ROOT
ATOM      1  C   UNL     1       0.162   9.789  21.061  0.00  0.00    +0.000 A 
ATOM      2  N   UNL     1       0.490   8.560  21.501  0.00  0.00    +0.000 NA
ATOM      3  C   UNL     1       1.331   7.837  20.712  0.00  0.00    +0.000 A 
ATOM      4  C   UNL     1       1.871   8.249  19.483  0.00  0.00    +0.000 A 
ATOM      5  C   UNL     1       1.579   9.573  19.134  0.00  0.00    +0.000 A 
ATOM      6  C   UNL     1       0.721  10.353  19.915  0.00  0.00    +0.000 A 
ENDROOT
BRANCH   4   7
ATOM      7  C   UNL     1       2.567   7.316  18.555  0.00  0.00    +0.000 A 
ATOM      8  C   UNL     1       3.671   7.742  17.812  0.00  0.00    +0.000 A 
ATOM      9  C   UNL     1       4.364   6.875  16.971  0.00  0.00    +0.000 A 
ATOM     10  C   UNL     1       4.156   5.518  17.015  0.00  0.00    +0.000 A 
ATOM     11  N   UNL     1       5.032   4.786  16.322  0.00  0.00    +0.000 NA
ATOM     12  C   UNL     1       5.073   3.472  16.571  0.00  0.00    +0.000 A 
ATOM     13  C   UNL     1       4.247   2.852  17.481  0.00  0.00    +0.000 A 
ATOM     14  C   UNL     1       3.249   3.588  18.142  0.00  0.00    +0.000 A 
ATOM     15  C   UNL     1       3.164   4.993  17.876  0.00  0.00    +0.000 A 
ATOM     16  C   UNL     1       2.280   5.934  18.487  0.00  0.00    +0.000 A 
BRANCH  14  17
ATOM     17  N   UNL     1       2.589   2.890  19.158  0.00  0.00    +0.000 N 
ATOM     18  C   UNL     1       1.145   2.851  19.347  0.00  0.00    +0.000 C 
ATOM     19  C   UNL     1       0.946   3.210  20.818  0.00  0.00    +0.000 C 
ATOM     20  C   UNL     1       2.181   2.624  21.478  0.00  0.00    +0.000 C 
ATOM     21  C   UNL     1       3.282   2.915  20.459  0.00  0.00    +0.000 C 
ENDBRANCH  14  17
ENDBRANCH   4   7
BRANCH   1  23
ATOM     22  C   UNL     1      -0.809  10.242  23.151  0.00  0.00    +0.000 C 
ATOM     23  O   UNL     1      -0.766  10.539  21.758  0.00  0.00    +0.000 OA
ENDBRANCH   1  23
BRANCH   6  24
ATOM     24  N   UNL     1       0.342  11.638  19.421  0.00  0.00    +0.000 N 
ATOM     25  H   UNL     1      -0.616  11.938  19.599  0.00  0.00    +0.000 HD
BRANCH  24  26
ATOM     26  S   UNL     1       1.416  12.910  19.753  0.00  0.00    +0.000 S 
ATOM     27  O   UNL     1       1.766  12.779  21.148  0.00  0.00    +0.000 OA
ATOM     28  O   UNL     1       2.448  12.948  18.743  0.00  0.00    +0.000 OA
BRANCH  26  29
ATOM     29  C   UNL     1       0.410  14.332  19.585  0.00  0.00    +0.000 A 
ATOM     30  C   UNL     1       0.772  15.361  18.709  0.00  0.00    +0.000 A 
ATOM     31  C   UNL     1      -0.041  16.490  18.620  0.00  0.00    +0.000 A 
ATOM     32  C   UNL     1      -1.181  16.574  19.412  0.00  0.00    +0.000 A 
ATOM     33  F   UNL     1      -1.970  17.651  19.306  0.00  0.00    +0.000 F 
ATOM     34  C   UNL     1      -1.546  15.554  20.280  0.00  0.00    +0.000 A 
ATOM     35  C   UNL     1      -0.738  14.429  20.365  0.00  0.00    +0.000 A 
ATOM     36  F   UNL     1      -1.091  13.451  21.208  0.00  0.00    +0.000 F 
ENDBRANCH  26  29
ENDBRANCH  24  26
ENDBRANCH   6  24
TORSDOF 6
ENDMDL
MODEL 6
REMARK VINA RESULT:      -8.5      3.306      3.983
REMARK  Name = 
REMARK  7 active torsions:
REMARK  status: ('A' for Active; 'I' for Inactive)
REMARK    1  A    between atoms: C_1  and  O_2
REMARK    2  A    between atoms: O_2  and  C_3
REMARK    3  A    between atoms: C_6  and  C_7
REMARK    4  A    between atoms: C_14  and  N_15
REMARK    5  A    between atoms: C_23  and  N_24
REMARK    6  A    between atoms: N_24  and  S_25
REMARK    7  A    between atoms: S_25  and  C_28
REMARK                            x       y       z     vdW  Elec       q    Type
REMARK                         _______ _______ _______ _____ _____    ______ ____
ROOT
ATOM      1  C   UNL     1      -0.039  10.006  20.933  0.00  0.00    +0.000 A 
ATOM      2  N   UNL     1       0.184   8.732  21.308  0.00  0.00    +0.000 NA
ATOM      3  C   UNL     1       1.065   8.023  20.551  0.00  0.00    +0.000 A 
ATOM      4  C   UNL     1       1.744   8.490  19.415  0.00  0.00    +0.000 A 
ATOM      5  C   UNL     1       1.552   9.849  19.140  0.00  0.00    +0.000 A 
ATOM      6  C   UNL     1       0.658  10.617  19.892  0.00  0.00    +0.000 A 
ENDROOT
BRANCH   4   7
ATOM      7  C   UNL     1       2.486   7.588  18.490  0.00  0.00    +0.000 A 
ATOM      8  C   UNL     1       3.601   8.050  17.786  0.00  0.00    +0.000 A 
ATOM      9  C   UNL     1       4.335   7.214  16.950  0.00  0.00    +0.000 A 
ATOM     10  C   UNL     1       4.154   5.852  16.965  0.00  0.00    +0.000 A 
ATOM     11  N   UNL     1       5.065   5.151  16.284  0.00  0.00    +0.000 NA
ATOM     12  C   UNL     1       5.127   3.834  16.511  0.00  0.00    +0.000 A 
ATOM     13  C   UNL     1       4.289   3.181  17.386  0.00  0.00    +0.000 A 
ATOM     14  C   UNL     1       3.258   3.883  18.032  0.00  0.00    +0.000 A 
ATOM     15  C   UNL     1       3.151   5.291  17.788  0.00  0.00    +0.000 A 
ATOM     16  C   UNL     1       2.230   6.203  18.391  0.00  0.00    +0.000 A 
BRANCH  14  17
ATOM     17  N   UNL     1       2.585   3.154  19.017  0.00  0.00    +0.000 N 
ATOM     18  C   UNL     1       1.140   2.985  19.095  0.00  0.00    +0.000 C 
ATOM     19  C   UNL     1       0.792   3.362  20.533  0.00  0.00    +0.000 C 
ATOM     20  C   UNL     1       2.018   2.912  21.307  0.00  0.00    +0.000 C 
ATOM     21  C   UNL     1       3.166   3.279  20.366  0.00  0.00    +0.000 C 
ENDBRANCH  14  17
ENDBRANCH   4   7
BRANCH   1  23
ATOM     22  C   UNL     1      -0.886  10.699  23.011  0.00  0.00    +0.000 C 
ATOM     23  O   UNL     1      -0.997  10.753  21.591  0.00  0.00    +0.000 OA
ENDBRANCH   1  23
BRANCH   6  24
ATOM     24  N   UNL     1       0.392  11.953  19.463  0.00  0.00    +0.000 N 
ATOM     25  H   UNL     1      -0.549  12.153  19.126  0.00  0.00    +0.000 HD
BRANCH  24  26
ATOM     26  S   UNL     1       0.903  13.188  20.510  0.00  0.00    +0.000 S 
ATOM     27  O   UNL     1      -0.301  13.744  21.083  0.00  0.00    +0.000 OA
ATOM     28  O   UNL     1       1.956  12.693  21.365  0.00  0.00    +0.000 OA
BRANCH  26  29
ATOM     29  C   UNL     1       1.575  14.380  19.420  0.00  0.00    +0.000 A 
ATOM     30  C   UNL     1       1.059  15.680  19.379  0.00  0.00    +0.000 A 
ATOM     31  C   UNL     1       1.604  16.596  18.480  0.00  0.00    +0.000 A 
ATOM     32  C   UNL     1       2.634  16.194  17.637  0.00  0.00    +0.000 A 
ATOM     33  F   UNL     1       3.168  17.084  16.791  0.00  0.00    +0.000 F 
ATOM     34  C   UNL     1       3.152  14.906  17.676  0.00  0.00    +0.000 A 
ATOM     35  C   UNL     1       2.611  13.997  18.574  0.00  0.00    +0.000 A 
ATOM     36  F   UNL     1       3.110  12.755  18.604  0.00  0.00    +0.000 F 
ENDBRANCH  26  29
ENDBRANCH  24  26
ENDBRANCH   6  24
TORSDOF 6
ENDMDL
MODEL 7
REMARK VINA RESULT:      -8.4      1.546      2.078
REMARK  Name = 
REMARK  7 active torsions:
REMARK  status: ('A' for Active; 'I' for Inactive)
REMARK    1  A    between atoms: C_1  and  O_2
REMARK    2  A    between atoms: O_2  and  C_3
REMARK    3  A    between atoms: C_6  and  C_7
REMARK    4  A    between atoms: C_14  and  N_15
REMARK    5  A    between atoms: C_23  and  N_24
REMARK    6  A    between atoms: N_24  and  S_25
REMARK    7  A    between atoms: S_25  and  C_28
REMARK                            x       y       z     vdW  Elec       q    Type
REMARK                         _______ _______ _______ _____ _____    ______ ____
ROOT
ATOM      1  C   UNL     1      -0.014   9.627  20.972  0.00  0.00    +0.000 A 
ATOM      2  N   UNL     1       0.689   8.609  21.504  0.00  0.00    +0.000 NA
ATOM      3  C   UNL     1       1.563   7.977  20.674  0.00  0.00    +0.000 A 
ATOM      4  C   UNL     1       1.784   8.277  19.321  0.00  0.00    +0.000 A 
ATOM      5  C   UNL     1       1.103   9.409  18.857  0.00  0.00    +0.000 A 
ATOM      6  C   UNL     1       0.197  10.091  19.675  0.00  0.00    +0.000 A 
ENDROOT
BRANCH   4   7
ATOM      7  C   UNL     1       2.555   7.384  18.411  0.00  0.00    +0.000 A 
ATOM      8  C   UNL     1       3.689   7.854  17.744  0.00  0.00    +0.000 A 
ATOM      9  C   UNL     1       4.449   7.026  16.924  0.00  0.00    +0.000 A 
ATOM     10  C   UNL     1       4.271   5.663  16.922  0.00  0.00    +0.000 A 
ATOM     11  N   UNL     1       5.204   4.970  16.263  0.00  0.00    +0.000 NA
ATOM     12  C   UNL     1       5.262   3.651  16.481  0.00  0.00    +0.000 A 
ATOM     13  C   UNL     1       4.400   2.990  17.326  0.00  0.00    +0.000 A 
ATOM     14  C   UNL     1       3.348   3.685  17.947  0.00  0.00    +0.000 A 
ATOM     15  C   UNL     1       3.245   5.094  17.711  0.00  0.00    +0.000 A 
ATOM     16  C   UNL     1       2.305   5.999  18.293  0.00  0.00    +0.000 A 
BRANCH  14  17
ATOM     17  N   UNL     1       2.648   2.946  18.905  0.00  0.00    +0.000 N 
ATOM     18  C   UNL     1       1.210   2.715  18.900  0.00  0.00    +0.000 C 
ATOM     19  C   UNL     1       0.759   3.106  20.306  0.00  0.00    +0.000 C 
ATOM     20  C   UNL     1       1.953   2.725  21.162  0.00  0.00    +0.000 C 
ATOM     21  C   UNL     1       3.140   3.123  20.284  0.00  0.00    +0.000 C 
ENDBRANCH  14  17
ENDBRANCH   4   7
BRANCH   1  23
ATOM     22  C   UNL     1      -0.635  10.419  23.094  0.00  0.00    +0.000 C 
ATOM     23  O   UNL     1      -0.993  10.247  21.725  0.00  0.00    +0.000 OA
ENDBRANCH   1  23
BRANCH   6  24
ATOM     24  N   UNL     1      -0.578  11.140  19.093  0.00  0.00    +0.000 N 
ATOM     25  H   UNL     1      -1.588  11.095  19.222  0.00  0.00    +0.000 HD
BRANCH  24  26
ATOM     26  S   UNL     1      -0.029  12.720  19.383  0.00  0.00    +0.000 S 
ATOM     27  O   UNL     1       1.003  12.604  20.387  0.00  0.00    +0.000 OA
ATOM     28  O   UNL     1       0.247  13.375  18.126  0.00  0.00    +0.000 OA
BRANCH  26  29
ATOM     29  C   UNL     1      -1.413  13.490  20.127  0.00  0.00    +0.000 A 
ATOM     30  C   UNL     1      -2.649  12.836  20.183  0.00  0.00    +0.000 A 
ATOM     31  C   UNL     1      -3.735  13.490  20.762  0.00  0.00    +0.000 A 
ATOM     32  C   UNL     1      -3.571  14.780  21.256  0.00  0.00    +0.000 A 
ATOM     33  F   UNL     1      -4.612  15.394  21.830  0.00  0.00    +0.000 F 
ATOM     34  C   UNL     1      -2.346  15.432  21.205  0.00  0.00    +0.000 A 
ATOM     35  C   UNL     1      -1.265  14.778  20.633  0.00  0.00    +0.000 A 
ATOM     36  F   UNL     1      -0.087  15.413  20.582  0.00  0.00    +0.000 F 
ENDBRANCH  26  29
ENDBRANCH  24  26
ENDBRANCH   6  24
TORSDOF 6
ENDMDL
MODEL 8
REMARK VINA RESULT:      -8.3      2.790      4.303
REMARK  Name = 
REMARK  7 active torsions:
REMARK  status: ('A' for Active; 'I' for Inactive)
REMARK    1  A    between atoms: C_1  and  O_2
REMARK    2  A    between atoms: O_2  and  C_3
REMARK    3  A    between atoms: C_6  and  C_7
REMARK    4  A    between atoms: C_14  and  N_15
REMARK    5  A    between atoms: C_23  and  N_24
REMARK    6  A    between atoms: N_24  and  S_25
REMARK    7  A    between atoms: S_25  and  C_28
REMARK                            x       y       z     vdW  Elec       q    Type
REMARK                         _______ _______ _______ _____ _____    ______ ____
ROOT
ATOM      1  C   UNL     1       1.355  10.956  18.822  0.00  0.00    +0.000 A 
ATOM      2  N   UNL     1       1.631  10.081  17.836  0.00  0.00    +0.000 NA
ATOM      3  C   UNL     1       1.815   8.785  18.208  0.00  0.00    +0.000 A 
ATOM      4  C   UNL     1       1.759   8.285  19.518  0.00  0.00    +0.000 A 
ATOM      5  C   UNL     1       1.364   9.221  20.482  0.00  0.00    +0.000 A 
ATOM      6  C   UNL     1       1.162  10.562  20.145  0.00  0.00    +0.000 A 
ENDROOT
BRANCH   4   7
ATOM      7  C   UNL     1       2.225   6.918  19.881  0.00  0.00    +0.000 A 
ATOM      8  C   UNL     1       1.412   6.063  20.630  0.00  0.00    +0.000 A 
ATOM      9  C   UNL     1       1.809   4.766  20.943  0.00  0.00    +0.000 A 
ATOM     10  C   UNL     1       2.893   4.184  20.333  0.00  0.00    +0.000 A 
ATOM     11  N   UNL     1       3.034   2.874  20.556  0.00  0.00    +0.000 NA
ATOM     12  C   UNL     1       3.868   2.198  19.758  0.00  0.00    +0.000 A 
ATOM     13  C   UNL     1       4.592   2.793  18.748  0.00  0.00    +0.000 A 
ATOM     14  C   UNL     1       4.536   4.186  18.567  0.00  0.00    +0.000 A 
ATOM     15  C   UNL     1       3.670   4.939  19.424  0.00  0.00    +0.000 A 
ATOM     16  C   UNL     1       3.408   6.342  19.366  0.00  0.00    +0.000 A 
BRANCH  14  17
ATOM     17  N   UNL     1       5.176   4.648  17.414  0.00  0.00    +0.000 N 
ATOM     18  C   UNL     1       4.780   4.329  16.049  0.00  0.00    +0.000 C 
ATOM     19  C   UNL     1       6.070   3.855  15.382  0.00  0.00    +0.000 C 
ATOM     20  C   UNL     1       7.134   4.685  16.076  0.00  0.00    +0.000 C 
ATOM     21  C   UNL     1       6.645   4.721  17.524  0.00  0.00    +0.000 C 
ENDBRANCH  14  17
ENDBRANCH   4   7
BRANCH   1  23
ATOM     22  C   UNL     1       2.493  12.892  18.134  0.00  0.00    +0.000 C 
ATOM     23  O   UNL     1       1.258  12.303  18.531  0.00  0.00    +0.000 OA
ENDBRANCH   1  23
BRANCH   6  24
ATOM     24  N   UNL     1       0.914  11.492  21.200  0.00  0.00    +0.000 N 
ATOM     25  H   UNL     1       1.037  12.481  20.984  0.00  0.00    +0.000 HD
BRANCH  24  26
ATOM     26  S   UNL     1      -0.528  11.267  22.068  0.00  0.00    +0.000 S 
ATOM     27  O   UNL     1      -1.514  10.855  21.097  0.00  0.00    +0.000 OA
ATOM     28  O   UNL     1      -0.269  10.454  23.233  0.00  0.00    +0.000 OA
BRANCH  26  29
ATOM     29  C   UNL     1      -0.935  12.887  22.589  0.00  0.00    +0.000 A 
ATOM     30  C   UNL     1      -0.108  13.968  22.265  0.00  0.00    +0.000 A 
ATOM     31  C   UNL     1      -0.452  15.241  22.718  0.00  0.00    +0.000 A 
ATOM     32  C   UNL     1      -1.595  15.405  23.491  0.00  0.00    +0.000 A 
ATOM     33  F   UNL     1      -1.932  16.632  23.905  0.00  0.00    +0.000 F 
ATOM     34  C   UNL     1      -2.420  14.335  23.812  0.00  0.00    +0.000 A 
ATOM     35  C   UNL     1      -2.080  13.070  23.357  0.00  0.00    +0.000 A 
ATOM     36  F   UNL     1      -2.876  12.040  23.674  0.00  0.00    +0.000 F 
ENDBRANCH  26  29
ENDBRANCH  24  26
ENDBRANCH   6  24
TORSDOF 6
ENDMDL
MODEL 9
REMARK VINA RESULT:      -8.3      2.394      4.023
REMARK  Name = 
REMARK  7 active torsions:
REMARK  status: ('A' for Active; 'I' for Inactive)
REMARK    1  A    between atoms: C_1  and  O_2
REMARK    2  A    between atoms: O_2  and  C_3
REMARK    3  A    between atoms: C_6  and  C_7
REMARK    4  A    between atoms: C_14  and  N_15
REMARK    5  A    between atoms: C_23  and  N_24
REMARK    6  A    between atoms: N_24  and  S_25
REMARK    7  A    between atoms: S_25  and  C_28
REMARK                            x       y       z     vdW  Elec       q    Type
REMARK                         _______ _______ _______ _____ _____    ______ ____
ROOT
ATOM      1  C   UNL     1       1.078  11.064  18.704  0.00  0.00    +0.000 A 
ATOM      2  N   UNL     1       2.073  10.482  18.008  0.00  0.00    +0.000 NA
ATOM      3  C   UNL     1       2.338   9.181  18.303  0.00  0.00    +0.000 A 
ATOM      4  C   UNL     1       1.685   8.401  19.270  0.00  0.00    +0.000 A 
ATOM      5  C   UNL     1       0.593   9.029  19.883  0.00  0.00    +0.000 A 
ATOM      6  C   UNL     1       0.283  10.364  19.609  0.00  0.00    +0.000 A 
ENDROOT
BRANCH   4   7
ATOM      7  C   UNL     1       2.196   7.076  19.720  0.00  0.00    +0.000 A 
ATOM      8  C   UNL     1       1.421   6.255  20.542  0.00  0.00    +0.000 A 
ATOM      9  C   UNL     1       1.860   4.995  20.938  0.00  0.00    +0.000 A 
ATOM     10  C   UNL     1       2.951   4.401  20.350  0.00  0.00    +0.000 A 
ATOM     11  N   UNL     1       3.133   3.115  20.662  0.00  0.00    +0.000 NA
ATOM     12  C   UNL     1       3.974   2.408  19.898  0.00  0.00    +0.000 A 
ATOM     13  C   UNL     1       4.663   2.949  18.836  0.00  0.00    +0.000 A 
ATOM     14  C   UNL     1       4.564   4.323  18.559  0.00  0.00    +0.000 A 
ATOM     15  C   UNL     1       3.691   5.111  19.377  0.00  0.00    +0.000 A 
ATOM     16  C   UNL     1       3.387   6.499  19.225  0.00  0.00    +0.000 A 
BRANCH  14  17
ATOM     17  N   UNL     1       5.171   4.721  17.364  0.00  0.00    +0.000 N 
ATOM     18  C   UNL     1       4.766   4.291  16.033  0.00  0.00    +0.000 C 
ATOM     19  C   UNL     1       6.060   3.810  15.380  0.00  0.00    +0.000 C 
ATOM     20  C   UNL     1       7.107   4.722  15.994  0.00  0.00    +0.000 C 
ATOM     21  C   UNL     1       6.638   4.848  17.444  0.00  0.00    +0.000 C 
ENDBRANCH  14  17
ENDBRANCH   4   7
BRANCH   1  23
ATOM     22  C   UNL     1       1.986  13.184  18.258  0.00  0.00    +0.000 C 
ATOM     23  O   UNL     1       0.821  12.411  18.532  0.00  0.00    +0.000 OA
ENDBRANCH   1  23
BRANCH   6  24
ATOM     24  N   UNL     1      -0.743  10.988  20.382  0.00  0.00    +0.000 N 
ATOM     25  H   UNL     1      -1.611  10.467  20.507  0.00  0.00    +0.000 HD
BRANCH  24  26
ATOM     26  S   UNL     1      -0.256  11.658  21.864  0.00  0.00    +0.000 S 
ATOM     27  O   UNL     1       0.011  10.539  22.737  0.00  0.00    +0.000 OA
ATOM     28  O   UNL     1       0.758  12.660  21.632  0.00  0.00    +0.000 OA
BRANCH  26  29
ATOM     29  C   UNL     1      -1.708  12.449  22.439  0.00  0.00    +0.000 A 
ATOM     30  C   UNL     1      -2.449  11.901  23.491  0.00  0.00    +0.000 A 
ATOM     31  C   UNL     1      -3.614  12.546  23.906  0.00  0.00    +0.000 A 
ATOM     32  C   UNL     1      -4.019  13.706  23.256  0.00  0.00    +0.000 A 
ATOM     33  F   UNL     1      -5.126  14.333  23.673  0.00  0.00    +0.000 F 
ATOM     34  C   UNL     1      -3.285  14.255  22.213  0.00  0.00    +0.000 A 
ATOM     35  C   UNL     1      -2.124  13.615  21.805  0.00  0.00    +0.000 A 
ATOM     36  F   UNL     1      -1.423  14.146  20.795  0.00  0.00    +0.000 F 
ENDBRANCH  26  29
ENDBRANCH  24  26
ENDBRANCH   6  24
TORSDOF 6
ENDMDL
