MODEL 1
REMARK VINA RESULT:      -8.9      0.000      0.000
REMARK  Name = 
REMARK  3 active torsions:
REMARK  status: ('A' for Active; 'I' for Inactive)
REMARK    1  A    between atoms: C_1  and  C_2
REMARK    2  A    between atoms: N_5  and  C_6
REMARK    3  A    between atoms: C_17  and  C_18
REMARK                            x       y       z     vdW  Elec       q    Type
REMARK                         _______ _______ _______ _____ _____    ______ ____
ROOT
ATOM      1  C   UNL     1       2.162   3.835  21.425  0.00  0.00    +0.000 C 
ATOM      2  C   UNL     1       2.361   4.959  20.455  0.00  0.00    +0.000 A 
ATOM      3  N   UNL     1       3.176   4.743  19.405  0.00  0.00    +0.000 NA
ATOM      4  C   UNL     1       3.308   5.735  18.517  0.00  0.00    +0.000 A 
ATOM      5  N   UNL     1       4.162   5.617  17.440  0.00  0.00    +0.000 N 
ATOM      6  C   UNL     1       2.680   6.949  18.702  0.00  0.00    +0.000 A 
ATOM      7  C   UNL     1       1.912   7.119  19.838  0.00  0.00    +0.000 A 
ATOM      8  N   UNL     1       1.722   6.114  20.714  0.00  0.00    +0.000 NA
ATOM      9  H   UNL     1       3.890   6.051  16.568  0.00  0.00    +0.000 HD
ENDROOT
BRANCH   5  10
ATOM     10  C   UNL     1       5.222   4.623  17.381  0.00  0.00    +0.000 C 
ATOM     11  C   UNL     1       6.356   5.157  18.264  0.00  0.00    +0.000 C 
ATOM     12  C   UNL     1       7.672   4.540  17.852  0.00  0.00    +0.000 C 
ATOM     13  O   UNL     1       8.013   4.890  16.509  0.00  0.00    +0.000 OA
ATOM     14  C   UNL     1       7.024   4.620  15.600  0.00  0.00    +0.000 A 
ATOM     15  C   UNL     1       7.427   4.549  14.265  0.00  0.00    +0.000 A 
ATOM     16  C   UNL     1       6.500   4.255  13.268  0.00  0.00    +0.000 A 
ATOM     17  C   UNL     1       5.170   4.015  13.607  0.00  0.00    +0.000 A 
ATOM     18  C   UNL     1       4.763   4.106  14.939  0.00  0.00    +0.000 A 
ATOM     19  C   UNL     1       5.681   4.451  15.948  0.00  0.00    +0.000 A 
ENDBRANCH   5  10
BRANCH   7  20
ATOM     20  C   UNL     1       1.293   8.419  20.176  0.00  0.00    +0.000 A 
ATOM     21  C   UNL     1       1.327   9.498  19.281  0.00  0.00    +0.000 A 
ATOM     22  C   UNL     1       0.749  10.739  19.595  0.00  0.00    +0.000 A 
ATOM     23  C   UNL     1       0.111  10.923  20.837  0.00  0.00    +0.000 A 
ATOM     24  N   UNL     1      -0.497  12.082  21.288  0.00  0.00    +0.000 NA
ATOM     25  C   UNL     1      -0.991  11.886  22.485  0.00  0.00    +0.000 A 
ATOM     26  S   UNL     1      -0.771  10.325  23.153  0.00  0.00    +0.000 S 
ATOM     27  C   UNL     1       0.065   9.846  21.724  0.00  0.00    +0.000 A 
ATOM     28  C   UNL     1       0.639   8.603  21.411  0.00  0.00    +0.000 A 
ENDBRANCH   7  20
TORSDOF 2
ENDMDL
MODEL 2
REMARK VINA RESULT:      -8.7      1.027      1.388
REMARK  Name = 
REMARK  3 active torsions:
REMARK  status: ('A' for Active; 'I' for Inactive)
REMARK    1  A    between atoms: C_1  and  C_2
REMARK    2  A    between atoms: N_5  and  C_6
REMARK    3  A    between atoms: C_17  and  C_18
REMARK                            x       y       z     vdW  Elec       q    Type
REMARK                         _______ _______ _______ _____ _____    ______ ____
ROOT
ATOM      1  C   UNL     1       1.839   3.630  21.500  0.00  0.00    +0.000 C 
ATOM      2  C   UNL     1       2.134   4.844  20.674  0.00  0.00    +0.000 A 
ATOM      3  N   UNL     1       3.029   4.720  19.674  0.00  0.00    +0.000 NA
ATOM      4  C   UNL     1       3.249   5.795  18.911  0.00  0.00    +0.000 A 
ATOM      5  N   UNL     1       4.185   5.771  17.898  0.00  0.00    +0.000 N 
ATOM      6  C   UNL     1       2.627   6.998  19.173  0.00  0.00    +0.000 A 
ATOM      7  C   UNL     1       1.772   7.068  20.256  0.00  0.00    +0.000 A 
ATOM      8  N   UNL     1       1.494   5.981  21.002  0.00  0.00    +0.000 NA
ATOM      9  H   UNL     1       3.993   6.300  17.059  0.00  0.00    +0.000 HD
ENDROOT
BRANCH   5  10
ATOM     10  C   UNL     1       5.231   4.763  17.818  0.00  0.00    +0.000 C 
ATOM     11  C   UNL     1       6.392   5.286  18.672  0.00  0.00    +0.000 C 
ATOM     12  C   UNL     1       7.690   4.650  18.231  0.00  0.00    +0.000 C 
ATOM     13  O   UNL     1       8.003   4.990  16.878  0.00  0.00    +0.000 OA
ATOM     14  C   UNL     1       6.990   4.729  15.995  0.00  0.00    +0.000 A 
ATOM     15  C   UNL     1       7.360   4.647  14.651  0.00  0.00    +0.000 A 
ATOM     16  C   UNL     1       6.405   4.361  13.677  0.00  0.00    +0.000 A 
ATOM     17  C   UNL     1       5.080   4.140  14.050  0.00  0.00    +0.000 A 
ATOM     18  C   UNL     1       4.707   4.242  15.391  0.00  0.00    +0.000 A 
ATOM     19  C   UNL     1       5.653   4.579  16.376  0.00  0.00    +0.000 A 
ENDBRANCH   5  10
BRANCH   7  20
ATOM     20  C   UNL     1       1.148   8.339  20.680  0.00  0.00    +0.000 A 
ATOM     21  C   UNL     1       0.606   8.494  21.965  0.00  0.00    +0.000 A 
ATOM     22  C   UNL     1       0.004   9.695  22.374  0.00  0.00    +0.000 A 
ATOM     23  C   UNL     1      -0.064  10.786  21.487  0.00  0.00    +0.000 A 
ATOM     24  N   UNL     1      -0.626  12.025  21.745  0.00  0.00    +0.000 NA
ATOM     25  C   UNL     1      -0.503  12.794  20.692  0.00  0.00    +0.000 A 
ATOM     26  S   UNL     1       0.283  12.108  19.336  0.00  0.00    +0.000 S 
ATOM     27  C   UNL     1       0.487  10.639  20.213  0.00  0.00    +0.000 A 
ATOM     28  C   UNL     1       1.092   9.440  19.801  0.00  0.00    +0.000 A 
ENDBRANCH   7  20
TORSDOF 2
ENDMDL
MODEL 3
REMARK VINA RESULT:      -8.0      1.339      2.630
REMARK  Name = 
REMARK  3 active torsions:
REMARK  status: ('A' for Active; 'I' for Inactive)
REMARK    1  A    between atoms: C_1  and  C_2
REMARK    2  A    between atoms: N_5  and  C_6
REMARK    3  A    between atoms: C_17  and  C_18
REMARK                            x       y       z     vdW  Elec       q    Type
REMARK                         _______ _______ _______ _____ _____    ______ ____
ROOT
ATOM      1  C   UNL     1       3.332   4.128  19.657  0.00  0.00    +0.000 C 
ATOM      2  C   UNL     1       3.223   5.447  18.957  0.00  0.00    +0.000 A 
ATOM      3  N   UNL     1       3.917   5.609  17.814  0.00  0.00    +0.000 NA
ATOM      4  C   UNL     1       3.774   6.772  17.169  0.00  0.00    +0.000 A 
ATOM      5  N   UNL     1       4.487   7.042  16.019  0.00  0.00    +0.000 N 
ATOM      6  C   UNL     1       2.993   7.785  17.685  0.00  0.00    +0.000 A 
ATOM      7  C   UNL     1       2.362   7.570  18.896  0.00  0.00    +0.000 A 
ATOM      8  N   UNL     1       2.449   6.385  19.531  0.00  0.00    +0.000 NA
ATOM      9  H   UNL     1       4.039   7.592  15.299  0.00  0.00    +0.000 HD
ENDROOT
BRANCH   5  10
ATOM     10  C   UNL     1       5.674   6.293  15.636  0.00  0.00    +0.000 C 
ATOM     11  C   UNL     1       5.184   4.905  15.212  0.00  0.00    +0.000 C 
ATOM     12  C   UNL     1       6.302   3.896  15.339  0.00  0.00    +0.000 C 
ATOM     13  O   UNL     1       6.739   3.770  16.694  0.00  0.00    +0.000 OA
ATOM     14  C   UNL     1       7.069   4.963  17.281  0.00  0.00    +0.000 A 
ATOM     15  C   UNL     1       7.870   4.880  18.421  0.00  0.00    +0.000 A 
ATOM     16  C   UNL     1       8.279   6.039  19.076  0.00  0.00    +0.000 A 
ATOM     17  C   UNL     1       7.900   7.285  18.581  0.00  0.00    +0.000 A 
ATOM     18  C   UNL     1       7.082   7.368  17.453  0.00  0.00    +0.000 A 
ATOM     19  C   UNL     1       6.622   6.203  16.813  0.00  0.00    +0.000 A 
ENDBRANCH   5  10
BRANCH   7  20
ATOM     20  C   UNL     1       1.596   8.634  19.579  0.00  0.00    +0.000 A 
ATOM     21  C   UNL     1       1.281   9.838  18.931  0.00  0.00    +0.000 A 
ATOM     22  C   UNL     1       0.561  10.858  19.573  0.00  0.00    +0.000 A 
ATOM     23  C   UNL     1       0.131  10.685  20.903  0.00  0.00    +0.000 A 
ATOM     24  N   UNL     1      -0.581  11.596  21.665  0.00  0.00    +0.000 NA
ATOM     25  C   UNL     1      -0.813  11.095  22.852  0.00  0.00    +0.000 A 
ATOM     26  S   UNL     1      -0.209   9.520  23.145  0.00  0.00    +0.000 S 
ATOM     27  C   UNL     1       0.431   9.483  21.545  0.00  0.00    +0.000 A 
ATOM     28  C   UNL     1       1.149   8.459  20.904  0.00  0.00    +0.000 A 
ENDBRANCH   7  20
TORSDOF 2
ENDMDL
MODEL 4
REMARK VINA RESULT:      -7.9      1.402      1.752
REMARK  Name = 
REMARK  3 active torsions:
REMARK  status: ('A' for Active; 'I' for Inactive)
REMARK    1  A    between atoms: C_1  and  C_2
REMARK    2  A    between atoms: N_5  and  C_6
REMARK    3  A    between atoms: C_17  and  C_18
REMARK                            x       y       z     vdW  Elec       q    Type
REMARK                         _______ _______ _______ _____ _____    ______ ____
ROOT
ATOM      1  C   UNL     1       1.980   4.443  21.198  0.00  0.00    +0.000 C 
ATOM      2  C   UNL     1       2.269   5.498  20.175  0.00  0.00    +0.000 A 
ATOM      3  N   UNL     1       3.094   5.177  19.159  0.00  0.00    +0.000 NA
ATOM      4  C   UNL     1       3.306   6.108  18.224  0.00  0.00    +0.000 A 
ATOM      5  N   UNL     1       4.176   5.881  17.177  0.00  0.00    +0.000 N 
ATOM      6  C   UNL     1       2.749   7.366  18.327  0.00  0.00    +0.000 A 
ATOM      7  C   UNL     1       1.967   7.644  19.432  0.00  0.00    +0.000 A 
ATOM      8  N   UNL     1       1.695   6.701  20.355  0.00  0.00    +0.000 NA
ATOM      9  H   UNL     1       3.951   6.282  16.277  0.00  0.00    +0.000 HD
ENDROOT
BRANCH   5  10
ATOM     10  C   UNL     1       5.175   4.825  17.199  0.00  0.00    +0.000 C 
ATOM     11  C   UNL     1       6.326   5.345  18.066  0.00  0.00    +0.000 C 
ATOM     12  C   UNL     1       7.609   4.626  17.716  0.00  0.00    +0.000 C 
ATOM     13  O   UNL     1       7.988   4.869  16.360  0.00  0.00    +0.000 OA
ATOM     14  C   UNL     1       6.997   4.600  15.453  0.00  0.00    +0.000 A 
ATOM     15  C   UNL     1       7.413   4.420  14.133  0.00  0.00    +0.000 A 
ATOM     16  C   UNL     1       6.482   4.118  13.140  0.00  0.00    +0.000 A 
ATOM     17  C   UNL     1       5.136   3.980  13.471  0.00  0.00    +0.000 A 
ATOM     18  C   UNL     1       4.718   4.181  14.788  0.00  0.00    +0.000 A 
ATOM     19  C   UNL     1       5.641   4.534  15.788  0.00  0.00    +0.000 A 
ENDBRANCH   5  10
BRANCH   7  20
ATOM     20  C   UNL     1       1.421   8.995  19.683  0.00  0.00    +0.000 A 
ATOM     21  C   UNL     1       0.513   9.232  20.726  0.00  0.00    +0.000 A 
ATOM     22  C   UNL     1      -0.019  10.509  20.968  0.00  0.00    +0.000 A 
ATOM     23  C   UNL     1       0.361  11.595  20.156  0.00  0.00    +0.000 A 
ATOM     24  N   UNL     1      -0.077  12.903  20.269  0.00  0.00    +0.000 NA
ATOM     25  C   UNL     1       0.491  13.642  19.349  0.00  0.00    +0.000 A 
ATOM     26  S   UNL     1       1.577  12.843  18.295  0.00  0.00    +0.000 S 
ATOM     27  C   UNL     1       1.275  11.364  19.126  0.00  0.00    +0.000 A 
ATOM     28  C   UNL     1       1.811  10.088  18.883  0.00  0.00    +0.000 A 
ENDBRANCH   7  20
TORSDOF 2
ENDMDL
MODEL 5
REMARK VINA RESULT:      -7.9      1.539      2.873
REMARK  Name = 
REMARK  3 active torsions:
REMARK  status: ('A' for Active; 'I' for Inactive)
REMARK    1  A    between atoms: C_1  and  C_2
REMARK    2  A    between atoms: N_5  and  C_6
REMARK    3  A    between atoms: C_17  and  C_18
REMARK                            x       y       z     vdW  Elec       q    Type
REMARK                         _______ _______ _______ _____ _____    ______ ____
ROOT
ATOM      1  C   UNL     1       3.431   3.848  19.490  0.00  0.00    +0.000 C 
ATOM      2  C   UNL     1       3.297   5.223  18.911  0.00  0.00    +0.000 A 
ATOM      3  N   UNL     1       3.963   5.490  17.771  0.00  0.00    +0.000 NA
ATOM      4  C   UNL     1       3.798   6.703  17.234  0.00  0.00    +0.000 A 
ATOM      5  N   UNL     1       4.481   7.078  16.096  0.00  0.00    +0.000 N 
ATOM      6  C   UNL     1       3.023   7.661  17.856  0.00  0.00    +0.000 A 
ATOM      7  C   UNL     1       2.424   7.336  19.057  0.00  0.00    +0.000 A 
ATOM      8  N   UNL     1       2.532   6.100  19.584  0.00  0.00    +0.000 NA
ATOM      9  H   UNL     1       4.012   7.685  15.438  0.00  0.00    +0.000 HD
ENDROOT
BRANCH   5  10
ATOM     10  C   UNL     1       5.662   6.376  15.620  0.00  0.00    +0.000 C 
ATOM     11  C   UNL     1       5.164   5.048  15.040  0.00  0.00    +0.000 C 
ATOM     12  C   UNL     1       6.278   4.027  15.041  0.00  0.00    +0.000 C 
ATOM     13  O   UNL     1       6.722   3.742  16.369  0.00  0.00    +0.000 OA
ATOM     14  C   UNL     1       7.061   4.857  17.089  0.00  0.00    +0.000 A 
ATOM     15  C   UNL     1       7.868   4.639  18.207  0.00  0.00    +0.000 A 
ATOM     16  C   UNL     1       8.287   5.712  18.990  0.00  0.00    +0.000 A 
ATOM     17  C   UNL     1       7.910   7.009  18.647  0.00  0.00    +0.000 A 
ATOM     18  C   UNL     1       7.085   7.225  17.541  0.00  0.00    +0.000 A 
ATOM     19  C   UNL     1       6.617   6.145  16.772  0.00  0.00    +0.000 A 
ENDBRANCH   5  10
BRANCH   7  20
ATOM     20  C   UNL     1       1.668   8.330  19.849  0.00  0.00    +0.000 A 
ATOM     21  C   UNL     1       1.395   8.124  21.209  0.00  0.00    +0.000 A 
ATOM     22  C   UNL     1       0.671   9.058  21.968  0.00  0.00    +0.000 A 
ATOM     23  C   UNL     1       0.201  10.241  21.366  0.00  0.00    +0.000 A 
ATOM     24  N   UNL     1      -0.525  11.248  21.980  0.00  0.00    +0.000 NA
ATOM     25  C   UNL     1      -0.784  12.197  21.116  0.00  0.00    +0.000 A 
ATOM     26  S   UNL     1      -0.188  11.964  19.528  0.00  0.00    +0.000 S 
ATOM     27  C   UNL     1       0.484  10.454  20.016  0.00  0.00    +0.000 A 
ATOM     28  C   UNL     1       1.210   9.523  19.255  0.00  0.00    +0.000 A 
ENDBRANCH   7  20
TORSDOF 2
ENDMDL
MODEL 6
REMARK VINA RESULT:      -7.8      2.038      2.856
REMARK  Name = 
REMARK  3 active torsions:
REMARK  status: ('A' for Active; 'I' for Inactive)
REMARK    1  A    between atoms: C_1  and  C_2
REMARK    2  A    between atoms: N_5  and  C_6
REMARK    3  A    between atoms: C_17  and  C_18
REMARK                            x       y       z     vdW  Elec       q    Type
REMARK                         _______ _______ _______ _____ _____    ______ ____
ROOT
ATOM      1  C   UNL     1       1.984   4.182  21.063  0.00  0.00    +0.000 C 
ATOM      2  C   UNL     1       2.061   5.497  20.351  0.00  0.00    +0.000 A 
ATOM      3  N   UNL     1       2.738   5.541  19.187  0.00  0.00    +0.000 NA
ATOM      4  C   UNL     1       2.759   6.708  18.534  0.00  0.00    +0.000 A 
ATOM      5  N   UNL     1       3.470   6.854  17.361  0.00  0.00    +0.000 N 
ATOM      6  C   UNL     1       2.161   7.833  19.061  0.00  0.00    +0.000 A 
ATOM      7  C   UNL     1       1.542   7.728  20.291  0.00  0.00    +0.000 A 
ATOM      8  N   UNL     1       1.461   6.549  20.938  0.00  0.00    +0.000 NA
ATOM      9  H   UNL     1       3.092   7.463  16.648  0.00  0.00    +0.000 HD
ENDROOT
BRANCH   5  10
ATOM     10  C   UNL     1       4.513   5.927  16.952  0.00  0.00    +0.000 C 
ATOM     11  C   UNL     1       4.123   4.564  17.534  0.00  0.00    +0.000 C 
ATOM     12  C   UNL     1       5.346   3.686  17.671  0.00  0.00    +0.000 C 
ATOM     13  O   UNL     1       6.294   4.253  18.578  0.00  0.00    +0.000 OA
ATOM     14  C   UNL     1       6.634   5.547  18.285  0.00  0.00    +0.000 A 
ATOM     15  C   UNL     1       7.821   6.009  18.856  0.00  0.00    +0.000 A 
ATOM     16  C   UNL     1       8.265   7.304  18.599  0.00  0.00    +0.000 A 
ATOM     17  C   UNL     1       7.529   8.134  17.755  0.00  0.00    +0.000 A 
ATOM     18  C   UNL     1       6.332   7.679  17.201  0.00  0.00    +0.000 A 
ATOM     19  C   UNL     1       5.849   6.391  17.493  0.00  0.00    +0.000 A 
ENDBRANCH   5  10
BRANCH   7  20
ATOM     20  C   UNL     1       0.972   8.903  20.984  0.00  0.00    +0.000 A 
ATOM     21  C   UNL     1       0.380   8.789  22.250  0.00  0.00    +0.000 A 
ATOM     22  C   UNL     1      -0.172   9.897  22.913  0.00  0.00    +0.000 A 
ATOM     23  C   UNL     1      -0.135  11.168  22.308  0.00  0.00    +0.000 A 
ATOM     24  N   UNL     1      -0.637  12.347  22.833  0.00  0.00    +0.000 NA
ATOM     25  C   UNL     1      -0.421  13.331  21.997  0.00  0.00    +0.000 A 
ATOM     26  S   UNL     1       0.388  12.931  20.543  0.00  0.00    +0.000 S 
ATOM     27  C   UNL     1       0.466  11.287  21.054  0.00  0.00    +0.000 A 
ATOM     28  C   UNL     1       1.021  10.181  20.390  0.00  0.00    +0.000 A 
ENDBRANCH   7  20
TORSDOF 2
ENDMDL
MODEL 7
REMARK VINA RESULT:      -7.8      4.141      8.794
REMARK  Name = 
REMARK  3 active torsions:
REMARK  status: ('A' for Active; 'I' for Inactive)
REMARK    1  A    between atoms: C_1  and  C_2
REMARK    2  A    between atoms: N_5  and  C_6
REMARK    3  A    between atoms: C_17  and  C_18
REMARK                            x       y       z     vdW  Elec       q    Type
REMARK                         _______ _______ _______ _____ _____    ______ ____
ROOT
ATOM      1  C   UNL     1      -0.300   9.757  22.878  0.00  0.00    +0.000 C 
ATOM      2  C   UNL     1       0.303   9.617  21.514  0.00  0.00    +0.000 A 
ATOM      3  N   UNL     1       0.150  10.641  20.653  0.00  0.00    +0.000 NA
ATOM      4  C   UNL     1       0.734  10.528  19.455  0.00  0.00    +0.000 A 
ATOM      5  N   UNL     1       0.585  11.507  18.495  0.00  0.00    +0.000 N 
ATOM      6  C   UNL     1       1.416   9.384  19.097  0.00  0.00    +0.000 A 
ATOM      7  C   UNL     1       1.476   8.347  20.009  0.00  0.00    +0.000 A 
ATOM      8  N   UNL     1       0.942   8.465  21.241  0.00  0.00    +0.000 NA
ATOM      9  H   UNL     1       1.367  11.696  17.883  0.00  0.00    +0.000 HD
ENDROOT
BRANCH   5  10
ATOM     10  C   UNL     1      -0.469  12.508  18.548  0.00  0.00    +0.000 C 
ATOM     11  C   UNL     1      -0.502  13.015  19.993  0.00  0.00    +0.000 C 
ATOM     12  C   UNL     1      -1.859  13.601  20.310  0.00  0.00    +0.000 C 
ATOM     13  O   UNL     1      -2.888  12.615  20.208  0.00  0.00    +0.000 OA
ATOM     14  C   UNL     1      -2.895  11.946  19.013  0.00  0.00    +0.000 A 
ATOM     15  C   UNL     1      -4.084  11.287  18.692  0.00  0.00    +0.000 A 
ATOM     16  C   UNL     1      -4.199  10.597  17.486  0.00  0.00    +0.000 A 
ATOM     17  C   UNL     1      -3.130  10.580  16.594  0.00  0.00    +0.000 A 
ATOM     18  C   UNL     1      -1.934  11.221  16.924  0.00  0.00    +0.000 A 
ATOM     19  C   UNL     1      -1.790  11.878  18.159  0.00  0.00    +0.000 A 
ENDBRANCH   5  10
BRANCH   7  20
ATOM     20  C   UNL     1       2.088   7.044  19.674  0.00  0.00    +0.000 A 
ATOM     21  C   UNL     1       2.879   6.883  18.527  0.00  0.00    +0.000 A 
ATOM     22  C   UNL     1       3.458   5.647  18.195  0.00  0.00    +0.000 A 
ATOM     23  C   UNL     1       3.254   4.529  19.026  0.00  0.00    +0.000 A 
ATOM     24  N   UNL     1       3.754   3.253  18.829  0.00  0.00    +0.000 NA
ATOM     25  C   UNL     1       3.367   2.471  19.806  0.00  0.00    +0.000 A 
ATOM     26  S   UNL     1       2.391   3.188  21.015  0.00  0.00    +0.000 S 
ATOM     27  C   UNL     1       2.478   4.691  20.175  0.00  0.00    +0.000 A 
ATOM     28  C   UNL     1       1.900   5.926  20.511  0.00  0.00    +0.000 A 
ENDBRANCH   7  20
TORSDOF 2
ENDMDL
MODEL 8
REMARK VINA RESULT:      -7.7      4.069      8.907
REMARK  Name = 
REMARK  3 active torsions:
REMARK  status: ('A' for Active; 'I' for Inactive)
REMARK    1  A    between atoms: C_1  and  C_2
REMARK    2  A    between atoms: N_5  and  C_6
REMARK    3  A    between atoms: C_17  and  C_18
REMARK                            x       y       z     vdW  Elec       q    Type
REMARK                         _______ _______ _______ _____ _____    ______ ____
ROOT
ATOM      1  C   UNL     1      -0.307   9.741  22.925  0.00  0.00    +0.000 C 
ATOM      2  C   UNL     1       0.291   9.595  21.559  0.00  0.00    +0.000 A 
ATOM      3  N   UNL     1       0.129  10.613  20.692  0.00  0.00    +0.000 NA
ATOM      4  C   UNL     1       0.709  10.495  19.493  0.00  0.00    +0.000 A 
ATOM      5  N   UNL     1       0.551  11.467  18.527  0.00  0.00    +0.000 N 
ATOM      6  C   UNL     1       1.395   9.352  19.140  0.00  0.00    +0.000 A 
ATOM      7  C   UNL     1       1.463   8.322  20.058  0.00  0.00    +0.000 A 
ATOM      8  N   UNL     1       0.934   8.445  21.291  0.00  0.00    +0.000 NA
ATOM      9  H   UNL     1       1.330  11.656  17.911  0.00  0.00    +0.000 HD
ENDROOT
BRANCH   5  10
ATOM     10  C   UNL     1      -0.507  12.463  18.578  0.00  0.00    +0.000 C 
ATOM     11  C   UNL     1      -0.585  12.928  20.036  0.00  0.00    +0.000 C 
ATOM     12  C   UNL     1      -1.952  13.501  20.329  0.00  0.00    +0.000 C 
ATOM     13  O   UNL     1      -2.975  12.516  20.168  0.00  0.00    +0.000 OA
ATOM     14  C   UNL     1      -2.944  11.882  18.954  0.00  0.00    +0.000 A 
ATOM     15  C   UNL     1      -4.120  11.230  18.578  0.00  0.00    +0.000 A 
ATOM     16  C   UNL     1      -4.197  10.576  17.350  0.00  0.00    +0.000 A 
ATOM     17  C   UNL     1      -3.101  10.588  16.489  0.00  0.00    +0.000 A 
ATOM     18  C   UNL     1      -1.919  11.222  16.874  0.00  0.00    +0.000 A 
ATOM     19  C   UNL     1      -1.814  11.842  18.132  0.00  0.00    +0.000 A 
ENDBRANCH   5  10
BRANCH   7  20
ATOM     20  C   UNL     1       2.080   7.019  19.728  0.00  0.00    +0.000 A 
ATOM     21  C   UNL     1       1.834   5.877  20.505  0.00  0.00    +0.000 A 
ATOM     22  C   UNL     1       2.421   4.638  20.206  0.00  0.00    +0.000 A 
ATOM     23  C   UNL     1       3.282   4.516  19.097  0.00  0.00    +0.000 A 
ATOM     24  N   UNL     1       3.933   3.368  18.681  0.00  0.00    +0.000 NA
ATOM     25  C   UNL     1       4.643   3.625  17.611  0.00  0.00    +0.000 A 
ATOM     26  S   UNL     1       4.587   5.234  17.029  0.00  0.00    +0.000 S 
ATOM     27  C   UNL     1       3.517   5.648  18.315  0.00  0.00    +0.000 A 
ATOM     28  C   UNL     1       2.929   6.889  18.610  0.00  0.00    +0.000 A 
ENDBRANCH   7  20
TORSDOF 2
ENDMDL
MODEL 9
REMARK VINA RESULT:      -7.6      4.319     10.194
REMARK  Name = 
REMARK  3 active torsions:
REMARK  status: ('A' for Active; 'I' for Inactive)
REMARK    1  A    between atoms: C_1  and  C_2
REMARK    2  A    between atoms: N_5  and  C_6
REMARK    3  A    between atoms: C_17  and  C_18
REMARK                            x       y       z     vdW  Elec       q    Type
REMARK                         _______ _______ _______ _____ _____    ______ ____
ROOT
ATOM      1  C   UNL     1       2.424  13.044  17.963  0.00  0.00    +0.000 C 
ATOM      2  C   UNL     1       1.675  11.898  18.570  0.00  0.00    +0.000 A 
ATOM      3  N   UNL     1       0.557  12.178  19.267  0.00  0.00    +0.000 NA
ATOM      4  C   UNL     1      -0.132  11.145  19.763  0.00  0.00    +0.000 A 
ATOM      5  N   UNL     1      -1.260  11.344  20.532  0.00  0.00    +0.000 N 
ATOM      6  C   UNL     1       0.317   9.849  19.614  0.00  0.00    +0.000 A 
ATOM      7  C   UNL     1       1.507   9.643  18.943  0.00  0.00    +0.000 A 
ATOM      8  N   UNL     1       2.185  10.666  18.388  0.00  0.00    +0.000 NA
ATOM      9  H   UNL     1      -2.016  10.679  20.449  0.00  0.00    +0.000 HD
ENDROOT
BRANCH   5  10
ATOM     10  C   UNL     1      -1.568  12.619  21.162  0.00  0.00    +0.000 C 
ATOM     11  C   UNL     1      -0.873  12.598  22.527  0.00  0.00    +0.000 C 
ATOM     12  C   UNL     1      -1.552  13.563  23.472  0.00  0.00    +0.000 C 
ATOM     13  O   UNL     1      -2.911  13.190  23.709  0.00  0.00    +0.000 OA
ATOM     14  C   UNL     1      -3.641  13.010  22.564  0.00  0.00    +0.000 A 
ATOM     15  C   UNL     1      -5.028  13.053  22.714  0.00  0.00    +0.000 A 
ATOM     16  C   UNL     1      -5.858  12.904  21.604  0.00  0.00    +0.000 A 
ATOM     17  C   UNL     1      -5.299  12.728  20.340  0.00  0.00    +0.000 A 
ATOM     18  C   UNL     1      -3.912  12.664  20.193  0.00  0.00    +0.000 A 
ATOM     19  C   UNL     1      -3.067  12.764  21.313  0.00  0.00    +0.000 A 
ENDBRANCH   5  10
BRANCH   7  20
ATOM     20  C   UNL     1       2.121   8.303  18.832  0.00  0.00    +0.000 A 
ATOM     21  C   UNL     1       2.954   7.969  17.754  0.00  0.00    +0.000 A 
ATOM     22  C   UNL     1       3.535   6.696  17.635  0.00  0.00    +0.000 A 
ATOM     23  C   UNL     1       3.290   5.716  18.615  0.00  0.00    +0.000 A 
ATOM     24  N   UNL     1       3.786   4.424  18.632  0.00  0.00    +0.000 NA
ATOM     25  C   UNL     1       3.355   3.798  19.698  0.00  0.00    +0.000 A 
ATOM     26  S   UNL     1       2.339   4.691  20.747  0.00  0.00    +0.000 S 
ATOM     27  C   UNL     1       2.472   6.050  19.695  0.00  0.00    +0.000 A 
ATOM     28  C   UNL     1       1.891   7.323  19.819  0.00  0.00    +0.000 A 
ENDBRANCH   7  20
TORSDOF 2
ENDMDL
