MODEL 1
REMARK VINA RESULT:      -6.8      0.000      0.000
REMARK  Name = 
REMARK  15 active torsions:
REMARK  status: ('A' for Active; 'I' for Inactive)
REMARK    1  A    between atoms: C_1  and  C_2
REMARK    2  A    between atoms: C_6  and  C_7
REMARK    3  A    between atoms: C_8  and  O_9
REMARK    4  A    between atoms: O_9  and  C_10
REMARK    5  A    between atoms: C_10  and  C_11
REMARK    6  A    between atoms: C_11  and  O_12
REMARK    7  A    between atoms: C_11  and  C_13
REMARK    8  A    between atoms: C_13  and  N_14
REMARK    9  A    between atoms: N_14  and  C_15
REMARK   10  A    between atoms: C_15  and  C_16
REMARK   11  A    between atoms: C_17  and  C_18
REMARK   12  A    between atoms: N_20  and  C_21
REMARK   13  A    between atoms: C_22  and  N_23
REMARK   14  A    between atoms: N_23  and  C_24
REMARK   15  A    between atoms: N_23  and  C_25
REMARK                            x       y       z     vdW  Elec       q    Type
REMARK                         _______ _______ _______ _____ _____    ______ ____
ROOT
ATOM      1  C   UNL     1       2.512   8.421  17.957  0.00  0.00    +0.000 C 
ENDROOT
BRANCH   1   2
ATOM      2  N   UNL     1       2.457   7.275  18.872  0.00  0.00    +0.000 NA
ATOM      3  H   UNL     1       1.644   7.350  19.472  0.00  0.00    +0.000 HD
BRANCH   2   4
ATOM      4  C   UNL     1       2.401   6.002  18.153  0.00  0.00    +0.000 C 
BRANCH   4   5
ATOM      5  C   UNL     1       3.389   4.982  18.648  0.00  0.00    +0.000 A 
ATOM      6  C   UNL     1       4.819   4.990  18.582  0.00  0.00    +0.000 A 
ATOM      7  C   UNL     1       5.800   5.924  17.961  0.00  0.00    +0.000 C 
ATOM      8  N   UNL     1       5.344   3.954  19.235  0.00  0.00    +0.000 NA
ATOM      9  N   UNL     1       4.289   3.238  19.647  0.00  0.00    +0.000 N 
ATOM     10  C   UNL     1       4.593   1.960  20.248  0.00  0.00    +0.000 C 
ATOM     11  C   UNL     1       3.060   3.808  19.337  0.00  0.00    +0.000 A 
BRANCH  11  12
ATOM     12  N   UNL     1       1.849   3.224  19.656  0.00  0.00    +0.000 N 
ATOM     13  C   UNL     1       1.088   2.366  18.752  0.00  0.00    +0.000 C 
ATOM     14  C   UNL     1       1.321   3.213  21.017  0.00  0.00    +0.000 C 
ENDBRANCH  11  12
ENDBRANCH   4   5
ENDBRANCH   2   4
ENDBRANCH   1   2
BRANCH   1  15
ATOM     15  C   UNL     1       1.417   9.503  18.148  0.00  0.00    +0.000 C 
BRANCH  15  16
ATOM     16  O   UNL     1       1.952  10.772  17.763  0.00  0.00    +0.000 OA
ATOM     17  H   UNL     1       1.366  11.165  17.094  0.00  0.00    +0.000 HD
ENDBRANCH  15  16
BRANCH  15  18
ATOM     18  C   UNL     1       0.951   9.498  19.613  0.00  0.00    +0.000 C 
BRANCH  18  19
ATOM     19  O   UNL     1       0.946  10.788  20.187  0.00  0.00    +0.000 OA
BRANCH  19  27
ATOM     20  C   UNL     1       0.379   9.445  23.032  0.00  0.00    +0.000 C 
ATOM     21  C   UNL     1      -0.350  10.569  22.341  0.00  0.00    +0.000 A 
ATOM     22  C   UNL     1      -1.431  11.107  23.074  0.00  0.00    +0.000 A 
ATOM     23  C   UNL     1      -2.215  12.139  22.574  0.00  0.00    +0.000 A 
ATOM     24  C   UNL     1      -1.948  12.657  21.316  0.00  0.00    +0.000 A 
ATOM     25  C   UNL     1      -0.883  12.154  20.555  0.00  0.00    +0.000 A 
ATOM     26  C   UNL     1      -0.641  12.723  19.179  0.00  0.00    +0.000 C 
ATOM     27  C   UNL     1      -0.065  11.114  21.064  0.00  0.00    +0.000 A 
ENDBRANCH  19  27
ENDBRANCH  18  19
ENDBRANCH  15  18
ENDBRANCH   1  15
TORSDOF 9
ENDMDL
MODEL 2
REMARK VINA RESULT:      -6.7      0.540      1.819
REMARK  Name = 
REMARK  15 active torsions:
REMARK  status: ('A' for Active; 'I' for Inactive)
REMARK    1  A    between atoms: C_1  and  C_2
REMARK    2  A    between atoms: C_6  and  C_7
REMARK    3  A    between atoms: C_8  and  O_9
REMARK    4  A    between atoms: O_9  and  C_10
REMARK    5  A    between atoms: C_10  and  C_11
REMARK    6  A    between atoms: C_11  and  O_12
REMARK    7  A    between atoms: C_11  and  C_13
REMARK    8  A    between atoms: C_13  and  N_14
REMARK    9  A    between atoms: N_14  and  C_15
REMARK   10  A    between atoms: C_15  and  C_16
REMARK   11  A    between atoms: C_17  and  C_18
REMARK   12  A    between atoms: N_20  and  C_21
REMARK   13  A    between atoms: C_22  and  N_23
REMARK   14  A    between atoms: N_23  and  C_24
REMARK   15  A    between atoms: N_23  and  C_25
REMARK                            x       y       z     vdW  Elec       q    Type
REMARK                         _______ _______ _______ _____ _____    ______ ____
ROOT
ATOM      1  C   UNL     1       2.343   8.447  17.741  0.00  0.00    +0.000 C 
ENDROOT
BRANCH   1   2
ATOM      2  N   UNL     1       2.544   7.352  18.697  0.00  0.00    +0.000 NA
ATOM      3  H   UNL     1       1.868   7.420  19.449  0.00  0.00    +0.000 HD
BRANCH   2   4
ATOM      4  C   UNL     1       2.418   6.040  18.062  0.00  0.00    +0.000 C 
BRANCH   4   5
ATOM      5  C   UNL     1       3.400   5.022  18.572  0.00  0.00    +0.000 A 
ATOM      6  C   UNL     1       4.831   5.025  18.514  0.00  0.00    +0.000 A 
ATOM      7  C   UNL     1       5.818   5.950  17.889  0.00  0.00    +0.000 C 
ATOM      8  N   UNL     1       5.350   3.994  19.180  0.00  0.00    +0.000 NA
ATOM      9  N   UNL     1       4.290   3.286  19.595  0.00  0.00    +0.000 N 
ATOM     10  C   UNL     1       4.587   2.014  20.210  0.00  0.00    +0.000 C 
ATOM     11  C   UNL     1       3.065   3.856  19.272  0.00  0.00    +0.000 A 
BRANCH  11  12
ATOM     12  N   UNL     1       1.850   3.279  19.591  0.00  0.00    +0.000 N 
ATOM     13  C   UNL     1       1.161   2.301  18.754  0.00  0.00    +0.000 C 
ATOM     14  C   UNL     1       1.245   3.412  20.913  0.00  0.00    +0.000 C 
ENDBRANCH  11  12
ENDBRANCH   4   5
ENDBRANCH   2   4
ENDBRANCH   1   2
BRANCH   1  15
ATOM     15  C   UNL     1       1.383   9.580  18.189  0.00  0.00    +0.000 C 
BRANCH  15  16
ATOM     16  O   UNL     1       1.902  10.831  17.730  0.00  0.00    +0.000 OA
ATOM     17  H   UNL     1       1.896  11.459  18.472  0.00  0.00    +0.000 HD
ENDBRANCH  15  16
BRANCH  15  18
ATOM     18  C   UNL     1       1.240   9.546  19.719  0.00  0.00    +0.000 C 
BRANCH  18  19
ATOM     19  O   UNL     1      -0.107   9.512  20.140  0.00  0.00    +0.000 OA
BRANCH  19  27
ATOM     20  C   UNL     1      -1.336  12.015  18.577  0.00  0.00    +0.000 C 
ATOM     21  C   UNL     1      -1.226  11.773  20.061  0.00  0.00    +0.000 A 
ATOM     22  C   UNL     1      -1.759  12.803  20.865  0.00  0.00    +0.000 A 
ATOM     23  C   UNL     1      -1.724  12.742  22.252  0.00  0.00    +0.000 A 
ATOM     24  C   UNL     1      -1.142  11.650  22.878  0.00  0.00    +0.000 A 
ATOM     25  C   UNL     1      -0.603  10.604  22.117  0.00  0.00    +0.000 A 
ATOM     26  C   UNL     1       0.047   9.446  22.833  0.00  0.00    +0.000 C 
ATOM     27  C   UNL     1      -0.650  10.647  20.701  0.00  0.00    +0.000 A 
ENDBRANCH  19  27
ENDBRANCH  18  19
ENDBRANCH  15  18
ENDBRANCH   1  15
TORSDOF 9
ENDMDL
MODEL 3
REMARK VINA RESULT:      -6.6      1.062      1.222
REMARK  Name = 
REMARK  15 active torsions:
REMARK  status: ('A' for Active; 'I' for Inactive)
REMARK    1  A    between atoms: C_1  and  C_2
REMARK    2  A    between atoms: C_6  and  C_7
REMARK    3  A    between atoms: C_8  and  O_9
REMARK    4  A    between atoms: O_9  and  C_10
REMARK    5  A    between atoms: C_10  and  C_11
REMARK    6  A    between atoms: C_11  and  O_12
REMARK    7  A    between atoms: C_11  and  C_13
REMARK    8  A    between atoms: C_13  and  N_14
REMARK    9  A    between atoms: N_14  and  C_15
REMARK   10  A    between atoms: C_15  and  C_16
REMARK   11  A    between atoms: C_17  and  C_18
REMARK   12  A    between atoms: N_20  and  C_21
REMARK   13  A    between atoms: C_22  and  N_23
REMARK   14  A    between atoms: N_23  and  C_24
REMARK   15  A    between atoms: N_23  and  C_25
REMARK                            x       y       z     vdW  Elec       q    Type
REMARK                         _______ _______ _______ _____ _____    ______ ____
ROOT
ATOM      1  C   UNL     1       2.562   8.511  17.940  0.00  0.00    +0.000 C 
ENDROOT
BRANCH   1   2
ATOM      2  N   UNL     1       2.087   7.127  18.061  0.00  0.00    +0.000 NA
ATOM      3  H   UNL     1       2.153   6.659  17.164  0.00  0.00    +0.000 HD
BRANCH   2   4
ATOM      4  C   UNL     1       2.855   6.368  19.049  0.00  0.00    +0.000 C 
BRANCH   4   5
ATOM      5  C   UNL     1       3.316   5.025  18.558  0.00  0.00    +0.000 A 
ATOM      6  C   UNL     1       4.232   4.703  17.505  0.00  0.00    +0.000 A 
ATOM      7  C   UNL     1       4.966   5.534  16.510  0.00  0.00    +0.000 C 
ATOM      8  N   UNL     1       4.470   3.393  17.449  0.00  0.00    +0.000 NA
ATOM      9  N   UNL     1       3.670   2.858  18.381  0.00  0.00    +0.000 N 
ATOM     10  C   UNL     1       3.617   1.415  18.410  0.00  0.00    +0.000 C 
ATOM     11  C   UNL     1       2.943   3.792  19.109  0.00  0.00    +0.000 A 
BRANCH  11  12
ATOM     12  N   UNL     1       2.047   3.450  20.104  0.00  0.00    +0.000 N 
ATOM     13  C   UNL     1       2.330   3.553  21.533  0.00  0.00    +0.000 C 
ATOM     14  C   UNL     1       0.640   3.177  19.829  0.00  0.00    +0.000 C 
ENDBRANCH  11  12
ENDBRANCH   4   5
ENDBRANCH   2   4
ENDBRANCH   1   2
BRANCH   1  15
ATOM     15  C   UNL     1       1.483   9.618  18.074  0.00  0.00    +0.000 C 
BRANCH  15  16
ATOM     16  O   UNL     1       1.994  10.827  17.509  0.00  0.00    +0.000 OA
ATOM     17  H   UNL     1       2.020  11.507  18.204  0.00  0.00    +0.000 HD
ENDBRANCH  15  16
BRANCH  15  18
ATOM     18  C   UNL     1       1.114   9.788  19.555  0.00  0.00    +0.000 C 
BRANCH  18  19
ATOM     19  O   UNL     1      -0.280   9.878  19.763  0.00  0.00    +0.000 OA
BRANCH  19  27
ATOM     20  C   UNL     1      -0.094   9.443  22.924  0.00  0.00    +0.000 C 
ATOM     21  C   UNL     1      -0.674  10.599  22.149  0.00  0.00    +0.000 A 
ATOM     22  C   UNL     1      -1.195  11.639  22.948  0.00  0.00    +0.000 A 
ATOM     23  C   UNL     1      -1.777  12.770  22.390  0.00  0.00    +0.000 A 
ATOM     24  C   UNL     1      -1.867  12.888  21.012  0.00  0.00    +0.000 A 
ATOM     25  C   UNL     1      -1.361  11.879  20.181  0.00  0.00    +0.000 A 
ATOM     26  C   UNL     1      -1.502  12.029  18.687  0.00  0.00    +0.000 C 
ATOM     27  C   UNL     1      -0.747  10.730  20.739  0.00  0.00    +0.000 A 
ENDBRANCH  19  27
ENDBRANCH  18  19
ENDBRANCH  15  18
ENDBRANCH   1  15
TORSDOF 9
ENDMDL
MODEL 4
REMARK VINA RESULT:      -6.6      0.865      1.910
REMARK  Name = 
REMARK  15 active torsions:
REMARK  status: ('A' for Active; 'I' for Inactive)
REMARK    1  A    between atoms: C_1  and  C_2
REMARK    2  A    between atoms: C_6  and  C_7
REMARK    3  A    between atoms: C_8  and  O_9
REMARK    4  A    between atoms: O_9  and  C_10
REMARK    5  A    between atoms: C_10  and  C_11
REMARK    6  A    between atoms: C_11  and  O_12
REMARK    7  A    between atoms: C_11  and  C_13
REMARK    8  A    between atoms: C_13  and  N_14
REMARK    9  A    between atoms: N_14  and  C_15
REMARK   10  A    between atoms: C_15  and  C_16
REMARK   11  A    between atoms: C_17  and  C_18
REMARK   12  A    between atoms: N_20  and  C_21
REMARK   13  A    between atoms: C_22  and  N_23
REMARK   14  A    between atoms: N_23  and  C_24
REMARK   15  A    between atoms: N_23  and  C_25
REMARK                            x       y       z     vdW  Elec       q    Type
REMARK                         _______ _______ _______ _____ _____    ______ ____
ROOT
ATOM      1  C   UNL     1       1.927   8.213  18.820  0.00  0.00    +0.000 C 
ENDROOT
BRANCH   1   2
ATOM      2  N   UNL     1       3.091   7.577  18.192  0.00  0.00    +0.000 NA
ATOM      3  H   UNL     1       3.863   7.542  18.848  0.00  0.00    +0.000 HD
BRANCH   2   4
ATOM      4  C   UNL     1       2.794   6.219  17.736  0.00  0.00    +0.000 C 
BRANCH   4   5
ATOM      5  C   UNL     1       3.658   5.164  18.368  0.00  0.00    +0.000 A 
ATOM      6  C   UNL     1       5.086   5.047  18.392  0.00  0.00    +0.000 A 
ATOM      7  C   UNL     1       6.179   5.843  17.766  0.00  0.00    +0.000 C 
ATOM      8  N   UNL     1       5.479   4.027  19.154  0.00  0.00    +0.000 NA
ATOM      9  N   UNL     1       4.343   3.437  19.552  0.00  0.00    +0.000 N 
ATOM     10  C   UNL     1       4.499   2.192  20.266  0.00  0.00    +0.000 C 
ATOM     11  C   UNL     1       3.189   4.081  19.122  0.00  0.00    +0.000 A 
BRANCH  11  12
ATOM     12  N   UNL     1       1.915   3.628  19.407  0.00  0.00    +0.000 N 
ATOM     13  C   UNL     1       1.053   4.197  20.438  0.00  0.00    +0.000 C 
ATOM     14  C   UNL     1       1.209   2.686  18.543  0.00  0.00    +0.000 C 
ENDBRANCH  11  12
ENDBRANCH   4   5
ENDBRANCH   2   4
ENDBRANCH   1   2
BRANCH   1  15
ATOM     15  C   UNL     1       1.245   9.345  18.007  0.00  0.00    +0.000 C 
BRANCH  15  16
ATOM     16  O   UNL     1       2.258  10.165  17.421  0.00  0.00    +0.000 OA
ATOM     17  H   UNL     1       1.831  10.826  16.852  0.00  0.00    +0.000 HD
ENDBRANCH  15  16
BRANCH  15  18
ATOM     18  C   UNL     1       0.323  10.150  18.937  0.00  0.00    +0.000 C 
BRANCH  18  19
ATOM     19  O   UNL     1       0.876  10.340  20.222  0.00  0.00    +0.000 OA
BRANCH  19  27
ATOM     20  C   UNL     1       0.898  13.536  20.161  0.00  0.00    +0.000 C 
ATOM     21  C   UNL     1       0.188  12.601  21.106  0.00  0.00    +0.000 A 
ATOM     22  C   UNL     1      -0.587  13.244  22.096  0.00  0.00    +0.000 A 
ATOM     23  C   UNL     1      -1.293  12.527  23.054  0.00  0.00    +0.000 A 
ATOM     24  C   UNL     1      -1.235  11.142  23.057  0.00  0.00    +0.000 A 
ATOM     25  C   UNL     1      -0.479  10.464  22.091  0.00  0.00    +0.000 A 
ATOM     26  C   UNL     1      -0.417   8.957  22.144  0.00  0.00    +0.000 C 
ATOM     27  C   UNL     1       0.230  11.184  21.098  0.00  0.00    +0.000 A 
ENDBRANCH  19  27
ENDBRANCH  18  19
ENDBRANCH  15  18
ENDBRANCH   1  15
TORSDOF 9
ENDMDL
MODEL 5
REMARK VINA RESULT:      -6.6      1.091      2.102
REMARK  Name = 
REMARK  15 active torsions:
REMARK  status: ('A' for Active; 'I' for Inactive)
REMARK    1  A    between atoms: C_1  and  C_2
REMARK    2  A    between atoms: C_6  and  C_7
REMARK    3  A    between atoms: C_8  and  O_9
REMARK    4  A    between atoms: O_9  and  C_10
REMARK    5  A    between atoms: C_10  and  C_11
REMARK    6  A    between atoms: C_11  and  O_12
REMARK    7  A    between atoms: C_11  and  C_13
REMARK    8  A    between atoms: C_13  and  N_14
REMARK    9  A    between atoms: N_14  and  C_15
REMARK   10  A    between atoms: C_15  and  C_16
REMARK   11  A    between atoms: C_17  and  C_18
REMARK   12  A    between atoms: N_20  and  C_21
REMARK   13  A    between atoms: C_22  and  N_23
REMARK   14  A    between atoms: N_23  and  C_24
REMARK   15  A    between atoms: N_23  and  C_25
REMARK                            x       y       z     vdW  Elec       q    Type
REMARK                         _______ _______ _______ _____ _____    ______ ____
ROOT
ATOM      1  C   UNL     1       1.967   8.593  18.879  0.00  0.00    +0.000 C 
ENDROOT
BRANCH   1   2
ATOM      2  N   UNL     1       2.500   7.384  18.238  0.00  0.00    +0.000 NA
ATOM      3  H   UNL     1       3.275   7.627  17.632  0.00  0.00    +0.000 HD
BRANCH   2   4
ATOM      4  C   UNL     1       2.954   6.399  19.219  0.00  0.00    +0.000 C 
BRANCH   4   5
ATOM      5  C   UNL     1       3.377   5.090  18.613  0.00  0.00    +0.000 A 
ATOM      6  C   UNL     1       4.267   4.835  17.520  0.00  0.00    +0.000 A 
ATOM      7  C   UNL     1       5.002   5.729  16.581  0.00  0.00    +0.000 C 
ATOM      8  N   UNL     1       4.475   3.529  17.353  0.00  0.00    +0.000 NA
ATOM      9  N   UNL     1       3.679   2.937  18.255  0.00  0.00    +0.000 N 
ATOM     10  C   UNL     1       3.595   1.498  18.169  0.00  0.00    +0.000 C 
ATOM     11  C   UNL     1       2.986   3.824  19.069  0.00  0.00    +0.000 A 
BRANCH  11  12
ATOM     12  N   UNL     1       2.100   3.422  20.051  0.00  0.00    +0.000 N 
ATOM     13  C   UNL     1       2.413   3.393  21.476  0.00  0.00    +0.000 C 
ATOM     14  C   UNL     1       0.681   3.211  19.783  0.00  0.00    +0.000 C 
ENDBRANCH  11  12
ENDBRANCH   4   5
ENDBRANCH   2   4
ENDBRANCH   1   2
BRANCH   1  15
ATOM     15  C   UNL     1       1.134   9.538  17.973  0.00  0.00    +0.000 C 
BRANCH  15  16
ATOM     16  O   UNL     1       2.016  10.483  17.363  0.00  0.00    +0.000 OA
ATOM     17  H   UNL     1       1.590  11.357  17.376  0.00  0.00    +0.000 HD
ENDBRANCH  15  16
BRANCH  15  18
ATOM     18  C   UNL     1       0.052  10.226  18.819  0.00  0.00    +0.000 C 
BRANCH  18  19
ATOM     19  O   UNL     1       0.556  10.742  20.033  0.00  0.00    +0.000 OA
BRANCH  19  27
ATOM     20  C   UNL     1      -1.406  13.257  19.825  0.00  0.00    +0.000 C 
ATOM     21  C   UNL     1      -1.245  12.259  20.942  0.00  0.00    +0.000 A 
ATOM     22  C   UNL     1      -2.100  12.469  22.046  0.00  0.00    +0.000 A 
ATOM     23  C   UNL     1      -2.068  11.646  23.165  0.00  0.00    +0.000 A 
ATOM     24  C   UNL     1      -1.169  10.593  23.218  0.00  0.00    +0.000 A 
ATOM     25  C   UNL     1      -0.303  10.347  22.144  0.00  0.00    +0.000 A 
ATOM     26  C   UNL     1       0.681   9.209  22.250  0.00  0.00    +0.000 C 
ATOM     27  C   UNL     1      -0.340  11.168  20.989  0.00  0.00    +0.000 A 
ENDBRANCH  19  27
ENDBRANCH  18  19
ENDBRANCH  15  18
ENDBRANCH   1  15
TORSDOF 9
ENDMDL
MODEL 6
REMARK VINA RESULT:      -6.4      4.042      8.603
REMARK  Name = 
REMARK  15 active torsions:
REMARK  status: ('A' for Active; 'I' for Inactive)
REMARK    1  A    between atoms: C_1  and  C_2
REMARK    2  A    between atoms: C_6  and  C_7
REMARK    3  A    between atoms: C_8  and  O_9
REMARK    4  A    between atoms: O_9  and  C_10
REMARK    5  A    between atoms: C_10  and  C_11
REMARK    6  A    between atoms: C_11  and  O_12
REMARK    7  A    between atoms: C_11  and  C_13
REMARK    8  A    between atoms: C_13  and  N_14
REMARK    9  A    between atoms: N_14  and  C_15
REMARK   10  A    between atoms: C_15  and  C_16
REMARK   11  A    between atoms: C_17  and  C_18
REMARK   12  A    between atoms: N_20  and  C_21
REMARK   13  A    between atoms: C_22  and  N_23
REMARK   14  A    between atoms: N_23  and  C_24
REMARK   15  A    between atoms: N_23  and  C_25
REMARK                            x       y       z     vdW  Elec       q    Type
REMARK                         _______ _______ _______ _____ _____    ______ ____
ROOT
ATOM      1  C   UNL     1       6.372   5.903  18.669  0.00  0.00    +0.000 C 
ENDROOT
BRANCH   1   2
ATOM      2  N   UNL     1       5.013   6.386  18.398  0.00  0.00    +0.000 NA
ATOM      3  H   UNL     1       5.025   7.036  17.620  0.00  0.00    +0.000 HD
BRANCH   2   4
ATOM      4  C   UNL     1       4.094   5.291  18.088  0.00  0.00    +0.000 C 
BRANCH   4   5
ATOM      5  C   UNL     1       3.163   4.943  19.215  0.00  0.00    +0.000 A 
ATOM      6  C   UNL     1       2.281   5.787  19.964  0.00  0.00    +0.000 A 
ATOM      7  C   UNL     1       2.033   7.257  19.955  0.00  0.00    +0.000 C 
ATOM      8  N   UNL     1       1.532   5.082  20.812  0.00  0.00    +0.000 NA
ATOM      9  N   UNL     1       1.967   3.821  20.686  0.00  0.00    +0.000 N 
ATOM     10  C   UNL     1       1.422   2.872  21.628  0.00  0.00    +0.000 C 
ATOM     11  C   UNL     1       2.953   3.654  19.722  0.00  0.00    +0.000 A 
BRANCH  11  12
ATOM     12  N   UNL     1       3.549   2.438  19.446  0.00  0.00    +0.000 N 
ATOM     13  C   UNL     1       3.304   1.660  18.235  0.00  0.00    +0.000 C 
ATOM     14  C   UNL     1       4.668   1.921  20.228  0.00  0.00    +0.000 C 
ENDBRANCH  11  12
ENDBRANCH   4   5
ENDBRANCH   2   4
ENDBRANCH   1   2
BRANCH   1  15
ATOM     15  C   UNL     1       7.434   6.198  17.576  0.00  0.00    +0.000 C 
BRANCH  15  16
ATOM     16  O   UNL     1       7.164   7.481  17.008  0.00  0.00    +0.000 OA
ATOM     17  H   UNL     1       6.941   7.364  16.069  0.00  0.00    +0.000 HD
ENDBRANCH  15  16
BRANCH  15  18
ATOM     18  C   UNL     1       7.394   5.083  16.519  0.00  0.00    +0.000 C 
BRANCH  18  19
ATOM     19  O   UNL     1       7.518   5.577  15.202  0.00  0.00    +0.000 OA
BRANCH  19  27
ATOM     20  C   UNL     1       5.049   3.554  15.366  0.00  0.00    +0.000 C 
ATOM     21  C   UNL     1       5.892   3.941  14.178  0.00  0.00    +0.000 A 
ATOM     22  C   UNL     1       5.518   3.323  12.966  0.00  0.00    +0.000 A 
ATOM     23  C   UNL     1       6.202   3.560  11.780  0.00  0.00    +0.000 A 
ATOM     24  C   UNL     1       7.292   4.417  11.775  0.00  0.00    +0.000 A 
ATOM     25  C   UNL     1       7.696   5.054  12.956  0.00  0.00    +0.000 A 
ATOM     26  C   UNL     1       8.903   5.957  12.918  0.00  0.00    +0.000 C 
ATOM     27  C   UNL     1       6.994   4.833  14.168  0.00  0.00    +0.000 A 
ENDBRANCH  19  27
ENDBRANCH  18  19
ENDBRANCH  15  18
ENDBRANCH   1  15
TORSDOF 9
ENDMDL
MODEL 7
REMARK VINA RESULT:      -6.4      1.179      2.431
REMARK  Name = 
REMARK  15 active torsions:
REMARK  status: ('A' for Active; 'I' for Inactive)
REMARK    1  A    between atoms: C_1  and  C_2
REMARK    2  A    between atoms: C_6  and  C_7
REMARK    3  A    between atoms: C_8  and  O_9
REMARK    4  A    between atoms: O_9  and  C_10
REMARK    5  A    between atoms: C_10  and  C_11
REMARK    6  A    between atoms: C_11  and  O_12
REMARK    7  A    between atoms: C_11  and  C_13
REMARK    8  A    between atoms: C_13  and  N_14
REMARK    9  A    between atoms: N_14  and  C_15
REMARK   10  A    between atoms: C_15  and  C_16
REMARK   11  A    between atoms: C_17  and  C_18
REMARK   12  A    between atoms: N_20  and  C_21
REMARK   13  A    between atoms: C_22  and  N_23
REMARK   14  A    between atoms: N_23  and  C_24
REMARK   15  A    between atoms: N_23  and  C_25
REMARK                            x       y       z     vdW  Elec       q    Type
REMARK                         _______ _______ _______ _____ _____    ______ ____
ROOT
ATOM      1  C   UNL     1       2.514   8.561  17.964  0.00  0.00    +0.000 C 
ENDROOT
BRANCH   1   2
ATOM      2  N   UNL     1       2.193   7.207  18.432  0.00  0.00    +0.000 NA
ATOM      3  H   UNL     1       1.744   6.682  17.691  0.00  0.00    +0.000 HD
BRANCH   2   4
ATOM      4  C   UNL     1       3.385   6.483  18.874  0.00  0.00    +0.000 C 
BRANCH   4   5
ATOM      5  C   UNL     1       3.200   4.992  18.937  0.00  0.00    +0.000 A 
ATOM      6  C   UNL     1       2.229   4.223  19.656  0.00  0.00    +0.000 A 
ATOM      7  C   UNL     1       1.153   4.592  20.618  0.00  0.00    +0.000 C 
ATOM      8  N   UNL     1       2.322   2.926  19.367  0.00  0.00    +0.000 NA
ATOM      9  N   UNL     1       3.378   2.832  18.545  0.00  0.00    +0.000 N 
ATOM     10  C   UNL     1       3.796   1.491  18.210  0.00  0.00    +0.000 C 
ATOM     11  C   UNL     1       3.959   4.053  18.227  0.00  0.00    +0.000 A 
BRANCH  11  12
ATOM     12  N   UNL     1       5.067   4.179  17.411  0.00  0.00    +0.000 N 
ATOM     13  C   UNL     1       5.010   4.245  15.954  0.00  0.00    +0.000 C 
ATOM     14  C   UNL     1       6.392   4.497  17.935  0.00  0.00    +0.000 C 
ENDBRANCH  11  12
ENDBRANCH   4   5
ENDBRANCH   2   4
ENDBRANCH   1   2
BRANCH   1  15
ATOM     15  C   UNL     1       1.423   9.641  18.192  0.00  0.00    +0.000 C 
BRANCH  15  16
ATOM     16  O   UNL     1       1.942  10.910  17.788  0.00  0.00    +0.000 OA
ATOM     17  H   UNL     1       1.607  11.590  18.397  0.00  0.00    +0.000 HD
ENDBRANCH  15  16
BRANCH  15  18
ATOM     18  C   UNL     1       1.008   9.636  19.671  0.00  0.00    +0.000 C 
BRANCH  18  19
ATOM     19  O   UNL     1      -0.375   9.857  19.850  0.00  0.00    +0.000 OA
BRANCH  19  27
ATOM     20  C   UNL     1      -0.232   9.475  23.020  0.00  0.00    +0.000 C 
ATOM     21  C   UNL     1      -0.720  10.655  22.219  0.00  0.00    +0.000 A 
ATOM     22  C   UNL     1      -1.163  11.748  22.995  0.00  0.00    +0.000 A 
ATOM     23  C   UNL     1      -1.656  12.908  22.411  0.00  0.00    +0.000 A 
ATOM     24  C   UNL     1      -1.733  13.004  21.030  0.00  0.00    +0.000 A 
ATOM     25  C   UNL     1      -1.302  11.942  20.222  0.00  0.00    +0.000 A 
ATOM     26  C   UNL     1      -1.427  12.072  18.725  0.00  0.00    +0.000 C 
ATOM     27  C   UNL     1      -0.779  10.762  20.807  0.00  0.00    +0.000 A 
ENDBRANCH  19  27
ENDBRANCH  18  19
ENDBRANCH  15  18
ENDBRANCH   1  15
TORSDOF 9
ENDMDL
MODEL 8
REMARK VINA RESULT:      -6.4      2.886      8.605
REMARK  Name = 
REMARK  15 active torsions:
REMARK  status: ('A' for Active; 'I' for Inactive)
REMARK    1  A    between atoms: C_1  and  C_2
REMARK    2  A    between atoms: C_6  and  C_7
REMARK    3  A    between atoms: C_8  and  O_9
REMARK    4  A    between atoms: O_9  and  C_10
REMARK    5  A    between atoms: C_10  and  C_11
REMARK    6  A    between atoms: C_11  and  O_12
REMARK    7  A    between atoms: C_11  and  C_13
REMARK    8  A    between atoms: C_13  and  N_14
REMARK    9  A    between atoms: N_14  and  C_15
REMARK   10  A    between atoms: C_15  and  C_16
REMARK   11  A    between atoms: C_17  and  C_18
REMARK   12  A    between atoms: N_20  and  C_21
REMARK   13  A    between atoms: C_22  and  N_23
REMARK   14  A    between atoms: N_23  and  C_24
REMARK   15  A    between atoms: N_23  and  C_25
REMARK                            x       y       z     vdW  Elec       q    Type
REMARK                         _______ _______ _______ _____ _____    ______ ____
ROOT
ATOM      1  C   UNL     1       2.360   6.540  19.474  0.00  0.00    +0.000 C 
ENDROOT
BRANCH   1   2
ATOM      2  N   UNL     1       2.214   7.505  20.571  0.00  0.00    +0.000 NA
ATOM      3  H   UNL     1       2.642   8.387  20.316  0.00  0.00    +0.000 HD
BRANCH   2   4
ATOM      4  C   UNL     1       0.810   7.739  20.911  0.00  0.00    +0.000 C 
BRANCH   4   5
ATOM      5  C   UNL     1       0.460   9.192  21.074  0.00  0.00    +0.000 A 
ATOM      6  C   UNL     1       0.164   9.931  22.264  0.00  0.00    +0.000 A 
ATOM      7  C   UNL     1       0.024   9.537  23.694  0.00  0.00    +0.000 C 
ATOM      8  N   UNL     1       0.012  11.230  22.008  0.00  0.00    +0.000 NA
ATOM      9  N   UNL     1       0.121  11.332  20.675  0.00  0.00    +0.000 N 
ATOM     10  C   UNL     1      -0.171  12.632  20.119  0.00  0.00    +0.000 C 
ATOM     11  C   UNL     1       0.407  10.131  20.036  0.00  0.00    +0.000 A 
BRANCH  11  12
ATOM     12  N   UNL     1       0.543  10.013  18.666  0.00  0.00    +0.000 N 
ATOM     13  C   UNL     1      -0.578   9.977  17.731  0.00  0.00    +0.000 C 
ATOM     14  C   UNL     1       1.831  10.151  17.994  0.00  0.00    +0.000 C 
ENDBRANCH  11  12
ENDBRANCH   4   5
ENDBRANCH   2   4
ENDBRANCH   1   2
BRANCH   1  15
ATOM     15  C   UNL     1       3.025   5.186  19.838  0.00  0.00    +0.000 C 
BRANCH  15  16
ATOM     16  O   UNL     1       2.773   4.906  21.216  0.00  0.00    +0.000 OA
ATOM     17  H   UNL     1       2.031   5.459  21.514  0.00  0.00    +0.000 HD
ENDBRANCH  15  16
BRANCH  15  18
ATOM     18  C   UNL     1       4.530   5.265  19.535  0.00  0.00    +0.000 C 
BRANCH  18  19
ATOM     19  O   UNL     1       4.812   5.997  18.361  0.00  0.00    +0.000 OA
BRANCH  19  27
ATOM     20  C   UNL     1       3.434   3.525  16.875  0.00  0.00    +0.000 C 
ATOM     21  C   UNL     1       4.724   4.237  16.555  0.00  0.00    +0.000 A 
ATOM     22  C   UNL     1       5.406   3.737  15.424  0.00  0.00    +0.000 A 
ATOM     23  C   UNL     1       6.616   4.273  15.002  0.00  0.00    +0.000 A 
ATOM     24  C   UNL     1       7.189   5.319  15.709  0.00  0.00    +0.000 A 
ATOM     25  C   UNL     1       6.544   5.847  16.837  0.00  0.00    +0.000 A 
ATOM     26  C   UNL     1       7.211   6.967  17.596  0.00  0.00    +0.000 C 
ATOM     27  C   UNL     1       5.300   5.321  17.265  0.00  0.00    +0.000 A 
ENDBRANCH  19  27
ENDBRANCH  18  19
ENDBRANCH  15  18
ENDBRANCH   1  15
TORSDOF 9
ENDMDL
MODEL 9
REMARK VINA RESULT:      -6.4      1.678      2.944
REMARK  Name = 
REMARK  15 active torsions:
REMARK  status: ('A' for Active; 'I' for Inactive)
REMARK    1  A    between atoms: C_1  and  C_2
REMARK    2  A    between atoms: C_6  and  C_7
REMARK    3  A    between atoms: C_8  and  O_9
REMARK    4  A    between atoms: O_9  and  C_10
REMARK    5  A    between atoms: C_10  and  C_11
REMARK    6  A    between atoms: C_11  and  O_12
REMARK    7  A    between atoms: C_11  and  C_13
REMARK    8  A    between atoms: C_13  and  N_14
REMARK    9  A    between atoms: N_14  and  C_15
REMARK   10  A    between atoms: C_15  and  C_16
REMARK   11  A    between atoms: C_17  and  C_18
REMARK   12  A    between atoms: N_20  and  C_21
REMARK   13  A    between atoms: C_22  and  N_23
REMARK   14  A    between atoms: N_23  and  C_24
REMARK   15  A    between atoms: N_23  and  C_25
REMARK                            x       y       z     vdW  Elec       q    Type
REMARK                         _______ _______ _______ _____ _____    ______ ____
ROOT
ATOM      1  C   UNL     1       2.380   8.188  18.046  0.00  0.00    +0.000 C 
ENDROOT
BRANCH   1   2
ATOM      2  N   UNL     1       2.218   7.153  19.074  0.00  0.00    +0.000 NA
ATOM      3  H   UNL     1       1.521   6.479  18.780  0.00  0.00    +0.000 HD
BRANCH   2   4
ATOM      4  C   UNL     1       3.472   6.452  19.349  0.00  0.00    +0.000 C 
BRANCH   4   5
ATOM      5  C   UNL     1       3.873   5.483  18.272  0.00  0.00    +0.000 A 
ATOM      6  C   UNL     1       3.087   4.499  17.590  0.00  0.00    +0.000 A 
ATOM      7  C   UNL     1       1.676   4.044  17.743  0.00  0.00    +0.000 C 
ATOM      8  N   UNL     1       3.779   3.909  16.616  0.00  0.00    +0.000 NA
ATOM      9  N   UNL     1       5.012   4.429  16.708  0.00  0.00    +0.000 N 
ATOM     10  C   UNL     1       6.012   3.828  15.857  0.00  0.00    +0.000 C 
ATOM     11  C   UNL     1       5.144   5.405  17.688  0.00  0.00    +0.000 A 
BRANCH  11  12
ATOM     12  N   UNL     1       6.334   6.053  17.960  0.00  0.00    +0.000 N 
ATOM     13  C   UNL     1       6.745   7.309  17.338  0.00  0.00    +0.000 C 
ATOM     14  C   UNL     1       7.195   5.671  19.074  0.00  0.00    +0.000 C 
ENDBRANCH  11  12
ENDBRANCH   4   5
ENDBRANCH   2   4
ENDBRANCH   1   2
BRANCH   1  15
ATOM     15  C   UNL     1       1.420   9.403  18.141  0.00  0.00    +0.000 C 
BRANCH  15  16
ATOM     16  O   UNL     1       2.155  10.593  17.843  0.00  0.00    +0.000 OA
ATOM     17  H   UNL     1       2.271  11.099  18.665  0.00  0.00    +0.000 HD
ENDBRANCH  15  16
BRANCH  15  18
ATOM     18  C   UNL     1       0.800   9.450  19.546  0.00  0.00    +0.000 C 
BRANCH  18  19
ATOM     19  O   UNL     1       0.888  10.728  20.139  0.00  0.00    +0.000 OA
BRANCH  19  27
ATOM     20  C   UNL     1       0.284   9.475  23.017  0.00  0.00    +0.000 C 
ATOM     21  C   UNL     1      -0.401  10.614  22.305  0.00  0.00    +0.000 A 
ATOM     22  C   UNL     1      -1.451  11.214  23.033  0.00  0.00    +0.000 A 
ATOM     23  C   UNL     1      -2.193  12.268  22.514  0.00  0.00    +0.000 A 
ATOM     24  C   UNL     1      -1.914  12.746  21.243  0.00  0.00    +0.000 A 
ATOM     25  C   UNL     1      -0.878  12.180  20.487  0.00  0.00    +0.000 A 
ATOM     26  C   UNL     1      -0.621  12.708  19.098  0.00  0.00    +0.000 C 
ATOM     27  C   UNL     1      -0.102  11.117  21.014  0.00  0.00    +0.000 A 
ENDBRANCH  19  27
ENDBRANCH  18  19
ENDBRANCH  15  18
ENDBRANCH   1  15
TORSDOF 9
ENDMDL
