MODEL 1
REMARK VINA RESULT:      -5.6      0.000      0.000
REMARK  Name = 
REMARK  5 active torsions:
REMARK  status: ('A' for Active; 'I' for Inactive)
REMARK    1  A    between atoms: N_1  and  C_2
REMARK    2  A    between atoms: C_2  and  C_3
REMARK    3  A    between atoms: C_2  and  C_7
REMARK    4  A    between atoms: C_3  and  C_4
REMARK    5  A    between atoms: C_4  and  O_6
REMARK                            x       y       z     vdW  Elec       q    Type
REMARK                         _______ _______ _______ _____ _____    ______ ____
ROOT
ATOM      1  C   UNL     1       4.687   4.951  16.837  0.00  0.00    +0.000 C 
ENDROOT
BRANCH   1   2
ATOM      2  C   UNL     1       3.605   4.083  17.467  0.00  0.00    +0.000 A 
ATOM      3  C   UNL     1       2.309   4.546  17.743  0.00  0.00    +0.000 A 
ATOM      4  C   UNL     1       1.352   3.692  18.284  0.00  0.00    +0.000 A 
ATOM      5  C   UNL     1       1.712   2.382  18.540  0.00  0.00    +0.000 A 
ATOM      6  N   UNL     1       2.939   1.885  18.289  0.00  0.00    +0.000 NA
ATOM      7  C   UNL     1       3.844   2.737  17.748  0.00  0.00    +0.000 A 
ENDBRANCH   1   2
BRANCH   1   8
ATOM      8  N   UNL     1       5.328   5.828  17.832  0.00  0.00    +0.000 NA
ATOM      9  H   UNL     1       5.163   6.801  17.554  0.00  0.00    +0.000 HD
ATOM     10  H   UNL     1       6.337   5.699  17.817  0.00  0.00    +0.000 HD
ENDBRANCH   1   8
BRANCH   1  11
ATOM     11  C   UNL     1       5.739   4.103  16.090  0.00  0.00    +0.000 C 
BRANCH  11  12
ATOM     12  C   UNL     1       7.122   4.715  16.130  0.00  0.00    +0.000 C 
ATOM     13  O   UNL     1       7.508   5.636  15.429  0.00  0.00    +0.000 OA
BRANCH  12  14
ATOM     14  O   UNL     1       7.916   4.138  17.061  0.00  0.00    +0.000 OA
ATOM     15  H   UNL     1       8.039   4.665  17.873  0.00  0.00    +0.000 HD
ENDBRANCH  12  14
ENDBRANCH  11  12
ENDBRANCH   1  11
TORSDOF 5
ENDMDL
MODEL 2
REMARK VINA RESULT:      -5.4      1.107      1.243
REMARK  Name = 
REMARK  5 active torsions:
REMARK  status: ('A' for Active; 'I' for Inactive)
REMARK    1  A    between atoms: N_1  and  C_2
REMARK    2  A    between atoms: C_2  and  C_3
REMARK    3  A    between atoms: C_2  and  C_7
REMARK    4  A    between atoms: C_3  and  C_4
REMARK    5  A    between atoms: C_4  and  O_6
REMARK                            x       y       z     vdW  Elec       q    Type
REMARK                         _______ _______ _______ _____ _____    ______ ____
ROOT
ATOM      1  C   UNL     1       5.254   4.971  17.994  0.00  0.00    +0.000 C 
ENDROOT
BRANCH   1   2
ATOM      2  C   UNL     1       3.935   4.220  18.126  0.00  0.00    +0.000 A 
ATOM      3  C   UNL     1       2.695   4.772  17.770  0.00  0.00    +0.000 A 
ATOM      4  C   UNL     1       1.528   4.020  17.877  0.00  0.00    +0.000 A 
ATOM      5  C   UNL     1       1.625   2.721  18.340  0.00  0.00    +0.000 A 
ATOM      6  N   UNL     1       2.790   2.141  18.691  0.00  0.00    +0.000 NA
ATOM      7  C   UNL     1       3.910   2.894  18.560  0.00  0.00    +0.000 A 
ENDBRANCH   1   2
BRANCH   1   8
ATOM      8  N   UNL     1       6.398   4.133  18.391  0.00  0.00    +0.000 NA
ATOM      9  H   UNL     1       6.113   3.559  19.192  0.00  0.00    +0.000 HD
ATOM     10  H   UNL     1       7.164   4.715  18.723  0.00  0.00    +0.000 HD
ENDBRANCH   1   8
BRANCH   1  11
ATOM     11  C   UNL     1       5.452   5.536  16.571  0.00  0.00    +0.000 C 
BRANCH  11  12
ATOM     12  C   UNL     1       6.899   5.518  16.129  0.00  0.00    +0.000 C 
ATOM     13  O   UNL     1       7.416   4.659  15.434  0.00  0.00    +0.000 OA
BRANCH  12  14
ATOM     14  O   UNL     1       7.589   6.593  16.575  0.00  0.00    +0.000 OA
ATOM     15  H   UNL     1       7.925   7.181  15.873  0.00  0.00    +0.000 HD
ENDBRANCH  12  14
ENDBRANCH  11  12
ENDBRANCH   1  11
TORSDOF 5
ENDMDL
MODEL 3
REMARK VINA RESULT:      -5.3      0.788      1.229
REMARK  Name = 
REMARK  5 active torsions:
REMARK  status: ('A' for Active; 'I' for Inactive)
REMARK    1  A    between atoms: N_1  and  C_2
REMARK    2  A    between atoms: C_2  and  C_3
REMARK    3  A    between atoms: C_2  and  C_7
REMARK    4  A    between atoms: C_3  and  C_4
REMARK    5  A    between atoms: C_4  and  O_6
REMARK                            x       y       z     vdW  Elec       q    Type
REMARK                         _______ _______ _______ _____ _____    ______ ____
ROOT
ATOM      1  C   UNL     1       4.682   4.833  16.743  0.00  0.00    +0.000 C 
ENDROOT
BRANCH   1   2
ATOM      2  C   UNL     1       3.831   3.957  17.654  0.00  0.00    +0.000 A 
ATOM      3  C   UNL     1       2.488   3.647  17.390  0.00  0.00    +0.000 A 
ATOM      4  C   UNL     1       1.774   2.807  18.242  0.00  0.00    +0.000 A 
ATOM      5  C   UNL     1       2.423   2.291  19.348  0.00  0.00    +0.000 A 
ATOM      6  N   UNL     1       3.711   2.552  19.645  0.00  0.00    +0.000 NA
ATOM      7  C   UNL     1       4.383   3.359  18.788  0.00  0.00    +0.000 A 
ENDBRANCH   1   2
BRANCH   1   8
ATOM      8  N   UNL     1       5.252   5.979  17.470  0.00  0.00    +0.000 NA
ATOM      9  H   UNL     1       6.005   6.378  16.899  0.00  0.00    +0.000 HD
ATOM     10  H   UNL     1       5.690   5.667  18.334  0.00  0.00    +0.000 HD
ENDBRANCH   1   8
BRANCH   1  11
ATOM     11  C   UNL     1       5.790   4.020  16.038  0.00  0.00    +0.000 C 
BRANCH  11  12
ATOM     12  C   UNL     1       7.163   4.633  16.205  0.00  0.00    +0.000 C 
ATOM     13  O   UNL     1       7.963   4.349  17.081  0.00  0.00    +0.000 OA
BRANCH  12  14
ATOM     14  O   UNL     1       7.441   5.545  15.245  0.00  0.00    +0.000 OA
ATOM     15  H   UNL     1       8.188   6.138  15.451  0.00  0.00    +0.000 HD
ENDBRANCH  12  14
ENDBRANCH  11  12
ENDBRANCH   1  11
TORSDOF 5
ENDMDL
MODEL 4
REMARK VINA RESULT:      -5.3      0.905      1.298
REMARK  Name = 
REMARK  5 active torsions:
REMARK  status: ('A' for Active; 'I' for Inactive)
REMARK    1  A    between atoms: N_1  and  C_2
REMARK    2  A    between atoms: C_2  and  C_3
REMARK    3  A    between atoms: C_2  and  C_7
REMARK    4  A    between atoms: C_3  and  C_4
REMARK    5  A    between atoms: C_4  and  O_6
REMARK                            x       y       z     vdW  Elec       q    Type
REMARK                         _______ _______ _______ _____ _____    ______ ____
ROOT
ATOM      1  C   UNL     1       4.699   4.733  16.767  0.00  0.00    +0.000 C 
ENDROOT
BRANCH   1   2
ATOM      2  C   UNL     1       3.856   3.790  17.616  0.00  0.00    +0.000 A 
ATOM      3  C   UNL     1       4.299   3.242  18.829  0.00  0.00    +0.000 A 
ATOM      4  C   UNL     1       3.466   2.416  19.580  0.00  0.00    +0.000 A 
ATOM      5  C   UNL     1       2.197   2.153  19.098  0.00  0.00    +0.000 A 
ATOM      6  N   UNL     1       1.720   2.657  17.943  0.00  0.00    +0.000 NA
ATOM      7  C   UNL     1       2.550   3.469  17.244  0.00  0.00    +0.000 A 
ENDBRANCH   1   2
BRANCH   1   8
ATOM      8  N   UNL     1       5.258   5.834  17.570  0.00  0.00    +0.000 NA
ATOM      9  H   UNL     1       6.272   5.698  17.637  0.00  0.00    +0.000 HD
ATOM     10  H   UNL     1       4.906   5.790  18.524  0.00  0.00    +0.000 HD
ENDBRANCH   1   8
BRANCH   1  11
ATOM     11  C   UNL     1       5.815   3.981  16.010  0.00  0.00    +0.000 C 
BRANCH  11  12
ATOM     12  C   UNL     1       7.159   4.668  16.111  0.00  0.00    +0.000 C 
ATOM     13  O   UNL     1       7.530   5.602  15.419  0.00  0.00    +0.000 OA
BRANCH  12  14
ATOM     14  O   UNL     1       7.934   4.144  17.088  0.00  0.00    +0.000 OA
ATOM     15  H   UNL     1       7.978   3.170  17.095  0.00  0.00    +0.000 HD
ENDBRANCH  12  14
ENDBRANCH  11  12
ENDBRANCH   1  11
TORSDOF 5
ENDMDL
MODEL 5
REMARK VINA RESULT:      -5.2      1.077      1.112
REMARK  Name = 
REMARK  5 active torsions:
REMARK  status: ('A' for Active; 'I' for Inactive)
REMARK    1  A    between atoms: N_1  and  C_2
REMARK    2  A    between atoms: C_2  and  C_3
REMARK    3  A    between atoms: C_2  and  C_7
REMARK    4  A    between atoms: C_3  and  C_4
REMARK    5  A    between atoms: C_4  and  O_6
REMARK                            x       y       z     vdW  Elec       q    Type
REMARK                         _______ _______ _______ _____ _____    ______ ____
ROOT
ATOM      1  C   UNL     1       5.098   5.190  18.219  0.00  0.00    +0.000 C 
ENDROOT
BRANCH   1   2
ATOM      2  C   UNL     1       3.859   4.311  18.330  0.00  0.00    +0.000 A 
ATOM      3  C   UNL     1       2.599   4.691  17.844  0.00  0.00    +0.000 A 
ATOM      4  C   UNL     1       1.512   3.825  17.939  0.00  0.00    +0.000 A 
ATOM      5  C   UNL     1       1.710   2.588  18.523  0.00  0.00    +0.000 A 
ATOM      6  N   UNL     1       2.899   2.171  19.001  0.00  0.00    +0.000 NA
ATOM      7  C   UNL     1       3.940   3.030  18.879  0.00  0.00    +0.000 A 
ENDBRANCH   1   2
BRANCH   1   8
ATOM      8  N   UNL     1       6.169   4.735  19.122  0.00  0.00    +0.000 NA
ATOM      9  H   UNL     1       5.870   3.857  19.558  0.00  0.00    +0.000 HD
ATOM     10  H   UNL     1       6.294   5.398  19.884  0.00  0.00    +0.000 HD
ENDBRANCH   1   8
BRANCH   1  11
ATOM     11  C   UNL     1       5.607   5.284  16.764  0.00  0.00    +0.000 C 
BRANCH  11  12
ATOM     12  C   UNL     1       7.088   5.577  16.678  0.00  0.00    +0.000 C 
ATOM     13  O   UNL     1       7.593   6.688  16.702  0.00  0.00    +0.000 OA
BRANCH  12  14
ATOM     14  O   UNL     1       7.833   4.451  16.586  0.00  0.00    +0.000 OA
ATOM     15  H   UNL     1       7.333   3.622  16.708  0.00  0.00    +0.000 HD
ENDBRANCH  12  14
ENDBRANCH  11  12
ENDBRANCH   1  11
TORSDOF 5
ENDMDL
MODEL 6
REMARK VINA RESULT:      -5.2      3.341      5.136
REMARK  Name = 
REMARK  5 active torsions:
REMARK  status: ('A' for Active; 'I' for Inactive)
REMARK    1  A    between atoms: N_1  and  C_2
REMARK    2  A    between atoms: C_2  and  C_3
REMARK    3  A    between atoms: C_2  and  C_7
REMARK    4  A    between atoms: C_3  and  C_4
REMARK    5  A    between atoms: C_4  and  O_6
REMARK                            x       y       z     vdW  Elec       q    Type
REMARK                         _______ _______ _______ _____ _____    ______ ____
ROOT
ATOM      1  C   UNL     1       1.341   3.094  18.849  0.00  0.00    +0.000 C 
ENDROOT
BRANCH   1   2
ATOM      2  C   UNL     1       2.470   3.896  18.215  0.00  0.00    +0.000 A 
ATOM      3  C   UNL     1       2.453   5.294  18.103  0.00  0.00    +0.000 A 
ATOM      4  C   UNL     1       3.535   5.974  17.548  0.00  0.00    +0.000 A 
ATOM      5  C   UNL     1       4.619   5.235  17.112  0.00  0.00    +0.000 A 
ATOM      6  N   UNL     1       4.689   3.892  17.200  0.00  0.00    +0.000 NA
ATOM      7  C   UNL     1       3.627   3.262  17.759  0.00  0.00    +0.000 A 
ENDBRANCH   1   2
BRANCH   1   8
ATOM      8  N   UNL     1       1.723   1.686  19.054  0.00  0.00    +0.000 NA
ATOM      9  H   UNL     1       2.735   1.604  18.908  0.00  0.00    +0.000 HD
ATOM     10  H   UNL     1       1.289   1.096  18.348  0.00  0.00    +0.000 HD
ENDBRANCH   1   8
BRANCH   1  11
ATOM     11  C   UNL     1       0.857   3.731  20.170  0.00  0.00    +0.000 C 
BRANCH  11  12
ATOM     12  C   UNL     1       1.871   3.611  21.286  0.00  0.00    +0.000 C 
ATOM     13  O   UNL     1       2.118   2.592  21.911  0.00  0.00    +0.000 OA
BRANCH  12  14
ATOM     14  O   UNL     1       2.516   4.775  21.526  0.00  0.00    +0.000 OA
ATOM     15  H   UNL     1       2.116   5.557  21.100  0.00  0.00    +0.000 HD
ENDBRANCH  12  14
ENDBRANCH  11  12
ENDBRANCH   1  11
TORSDOF 5
ENDMDL
MODEL 7
REMARK VINA RESULT:      -5.2      1.357      1.799
REMARK  Name = 
REMARK  5 active torsions:
REMARK  status: ('A' for Active; 'I' for Inactive)
REMARK    1  A    between atoms: N_1  and  C_2
REMARK    2  A    between atoms: C_2  and  C_3
REMARK    3  A    between atoms: C_2  and  C_7
REMARK    4  A    between atoms: C_3  and  C_4
REMARK    5  A    between atoms: C_4  and  O_6
REMARK                            x       y       z     vdW  Elec       q    Type
REMARK                         _______ _______ _______ _____ _____    ______ ____
ROOT
ATOM      1  C   UNL     1       5.200   4.959  17.927  0.00  0.00    +0.000 C 
ENDROOT
BRANCH   1   2
ATOM      2  C   UNL     1       3.882   4.204  18.044  0.00  0.00    +0.000 A 
ATOM      3  C   UNL     1       3.719   2.870  17.639  0.00  0.00    +0.000 A 
ATOM      4  C   UNL     1       2.497   2.222  17.809  0.00  0.00    +0.000 A 
ATOM      5  C   UNL     1       1.457   2.927  18.384  0.00  0.00    +0.000 A 
ATOM      6  N   UNL     1       1.560   4.206  18.795  0.00  0.00    +0.000 NA
ATOM      7  C   UNL     1       2.766   4.803  18.631  0.00  0.00    +0.000 A 
ENDBRANCH   1   2
BRANCH   1   8
ATOM      8  N   UNL     1       6.336   4.141  18.383  0.00  0.00    +0.000 NA
ATOM      9  H   UNL     1       6.173   3.882  19.362  0.00  0.00    +0.000 HD
ATOM     10  H   UNL     1       7.192   4.692  18.378  0.00  0.00    +0.000 HD
ENDBRANCH   1   8
BRANCH   1  11
ATOM     11  C   UNL     1       5.436   5.480  16.493  0.00  0.00    +0.000 C 
BRANCH  11  12
ATOM     12  C   UNL     1       6.900   5.504  16.111  0.00  0.00    +0.000 C 
ATOM     13  O   UNL     1       7.467   4.663  15.431  0.00  0.00    +0.000 OA
BRANCH  12  14
ATOM     14  O   UNL     1       7.543   6.592  16.593  0.00  0.00    +0.000 OA
ATOM     15  H   UNL     1       7.153   7.446  16.327  0.00  0.00    +0.000 HD
ENDBRANCH  12  14
ENDBRANCH  11  12
ENDBRANCH   1  11
TORSDOF 5
ENDMDL
MODEL 8
REMARK VINA RESULT:      -5.2      1.746      1.970
REMARK  Name = 
REMARK  5 active torsions:
REMARK  status: ('A' for Active; 'I' for Inactive)
REMARK    1  A    between atoms: N_1  and  C_2
REMARK    2  A    between atoms: C_2  and  C_3
REMARK    3  A    between atoms: C_2  and  C_7
REMARK    4  A    between atoms: C_3  and  C_4
REMARK    5  A    between atoms: C_4  and  O_6
REMARK                            x       y       z     vdW  Elec       q    Type
REMARK                         _______ _______ _______ _____ _____    ______ ____
ROOT
ATOM      1  C   UNL     1       5.769   5.158  17.046  0.00  0.00    +0.000 C 
ENDROOT
BRANCH   1   2
ATOM      2  C   UNL     1       4.486   4.667  17.705  0.00  0.00    +0.000 A 
ATOM      3  C   UNL     1       3.570   3.815  17.070  0.00  0.00    +0.000 A 
ATOM      4  C   UNL     1       2.433   3.370  17.741  0.00  0.00    +0.000 A 
ATOM      5  C   UNL     1       2.235   3.789  19.043  0.00  0.00    +0.000 A 
ATOM      6  N   UNL     1       3.084   4.602  19.701  0.00  0.00    +0.000 NA
ATOM      7  C   UNL     1       4.188   5.005  19.026  0.00  0.00    +0.000 A 
ENDBRANCH   1   2
BRANCH   1   8
ATOM      8  N   UNL     1       6.889   4.231  17.282  0.00  0.00    +0.000 NA
ATOM      9  H   UNL     1       6.600   3.295  16.979  0.00  0.00    +0.000 HD
ATOM     10  H   UNL     1       7.081   4.157  18.279  0.00  0.00    +0.000 HD
ENDBRANCH   1   8
BRANCH   1  11
ATOM     11  C   UNL     1       5.575   5.415  15.536  0.00  0.00    +0.000 C 
BRANCH  11  12
ATOM     12  C   UNL     1       6.666   4.796  14.690  0.00  0.00    +0.000 C 
ATOM     13  O   UNL     1       7.716   5.336  14.383  0.00  0.00    +0.000 OA
BRANCH  12  14
ATOM     14  O   UNL     1       6.368   3.533  14.306  0.00  0.00    +0.000 OA
ATOM     15  H   UNL     1       7.142   2.979  14.093  0.00  0.00    +0.000 HD
ENDBRANCH  12  14
ENDBRANCH  11  12
ENDBRANCH   1  11
TORSDOF 5
ENDMDL
MODEL 9
REMARK VINA RESULT:      -5.2      1.450      1.632
REMARK  Name = 
REMARK  5 active torsions:
REMARK  status: ('A' for Active; 'I' for Inactive)
REMARK    1  A    between atoms: N_1  and  C_2
REMARK    2  A    between atoms: C_2  and  C_3
REMARK    3  A    between atoms: C_2  and  C_7
REMARK    4  A    between atoms: C_3  and  C_4
REMARK    5  A    between atoms: C_4  and  O_6
REMARK                            x       y       z     vdW  Elec       q    Type
REMARK                         _______ _______ _______ _____ _____    ______ ____
ROOT
ATOM      1  C   UNL     1       5.399   4.258  17.785  0.00  0.00    +0.000 C 
ENDROOT
BRANCH   1   2
ATOM      2  C   UNL     1       3.959   3.816  18.008  0.00  0.00    +0.000 A 
ATOM      3  C   UNL     1       2.851   4.632  17.733  0.00  0.00    +0.000 A 
ATOM      4  C   UNL     1       1.556   4.156  17.921  0.00  0.00    +0.000 A 
ATOM      5  C   UNL     1       1.394   2.864  18.385  0.00  0.00    +0.000 A 
ATOM      6  N   UNL     1       2.422   2.037  18.661  0.00  0.00    +0.000 NA
ATOM      7  C   UNL     1       3.669   2.525  18.452  0.00  0.00    +0.000 A 
ENDBRANCH   1   2
BRANCH   1   8
ATOM      8  N   UNL     1       5.966   3.666  16.561  0.00  0.00    +0.000 NA
ATOM      9  H   UNL     1       5.961   2.646  16.667  0.00  0.00    +0.000 HD
ATOM     10  H   UNL     1       6.942   3.933  16.459  0.00  0.00    +0.000 HD
ENDBRANCH   1   8
BRANCH   1  11
ATOM     11  C   UNL     1       5.531   5.796  17.765  0.00  0.00    +0.000 C 
BRANCH  11  12
ATOM     12  C   UNL     1       6.062   6.323  16.450  0.00  0.00    +0.000 C 
ATOM     13  O   UNL     1       5.380   6.677  15.502  0.00  0.00    +0.000 OA
BRANCH  12  14
ATOM     14  O   UNL     1       7.413   6.386  16.427  0.00  0.00    +0.000 OA
ATOM     15  H   UNL     1       7.820   6.098  15.588  0.00  0.00    +0.000 HD
ENDBRANCH  12  14
ENDBRANCH  11  12
ENDBRANCH   1  11
TORSDOF 5
ENDMDL
