MODEL 1
REMARK VINA RESULT:      -5.9      0.000      0.000
REMARK  Name = 
REMARK  11 active torsions:
REMARK  status: ('A' for Active; 'I' for Inactive)
REMARK    1  A    between atoms: C_1  and  O_2
REMARK    2  A    between atoms: O_2  and  C_3
REMARK    3  A    between atoms: C_7  and  C_8
REMARK    4  A    between atoms: C_8  and  C_9
REMARK    5  A    between atoms: C_8  and  N_27
REMARK    6  A    between atoms: C_11  and  O_12
REMARK    7  A    between atoms: C_15  and  O_16
REMARK    8  A    between atoms: N_27  and  C_28
REMARK    9  A    between atoms: N_27  and  C_31
REMARK   10  A    between atoms: C_28  and  C_29
REMARK   11  A    between atoms: C_31  and  C_32
REMARK                            x       y       z     vdW  Elec       q    Type
REMARK                         _______ _______ _______ _____ _____    ______ ____
ROOT
ATOM      1  C   UNL     1      -1.574  12.218  19.522  0.00  0.00    +0.000 A 
ATOM      2  C   UNL     1      -1.311  11.480  20.691  0.00  0.00    +0.000 A 
ATOM      3  C   UNL     1      -0.045  11.558  21.264  0.00  0.00    +0.000 A 
ATOM      4  C   UNL     1       0.945  12.300  20.633  0.00  0.00    +0.000 A 
ATOM      5  C   UNL     1       0.822  12.392  19.263  0.00  0.00    +0.000 A 
ATOM      6  C   UNL     1      -0.463  12.665  18.789  0.00  0.00    +0.000 A 
ATOM      7  C   UNL     1       2.042  12.894  18.635  0.00  0.00    +0.000 C 
ATOM      8  O   UNL     1       2.713  12.238  17.862  0.00  0.00    +0.000 OA
ATOM      9  C   UNL     1       2.281  14.299  18.963  0.00  0.00    +0.000 A 
ATOM     10  C   UNL     1       2.647  15.143  17.917  0.00  0.00    +0.000 A 
ATOM     11  C   UNL     1       2.249  16.469  17.993  0.00  0.00    +0.000 A 
ATOM     12  C   UNL     1       1.529  16.917  19.113  0.00  0.00    +0.000 A 
ATOM     13  C   UNL     1       1.275  16.069  20.211  0.00  0.00    +0.000 A 
ATOM     14  C   UNL     1       1.683  14.739  20.143  0.00  0.00    +0.000 A 
ATOM     15  C   UNL     1       1.264  13.692  21.171  0.00  0.00    +0.000 C 
ATOM     16  O   UNL     1       1.097  14.015  22.334  0.00  0.00    +0.000 OA
ENDROOT
BRANCH   3  17
ATOM     17  O   UNL     1       0.270  10.820  22.367  0.00  0.00    +0.000 OA
ATOM     18  H   UNL     1       0.000  11.306  23.166  0.00  0.00    +0.000 HD
ENDBRANCH   3  17
BRANCH   6  19
ATOM     19  O   UNL     1      -0.692  13.408  17.664  0.00  0.00    +0.000 OA
ATOM     20  H   UNL     1       0.095  13.429  17.088  0.00  0.00    +0.000 HD
ENDBRANCH   6  19
BRANCH   1  21
ATOM     21  C   UNL     1      -3.011  12.563  19.104  0.00  0.00    +0.000 C 
BRANCH  21  26
ATOM     22  C   UNL     1      -3.732  14.936  22.062  0.00  0.00    +0.000 A 
ATOM     23  C   UNL     1      -4.711  14.232  22.753  0.00  0.00    +0.000 A 
ATOM     24  C   UNL     1      -5.207  13.023  22.258  0.00  0.00    +0.000 A 
ATOM     25  C   UNL     1      -4.706  12.510  21.063  0.00  0.00    +0.000 A 
ATOM     26  C   UNL     1      -3.707  13.198  20.347  0.00  0.00    +0.000 A 
ATOM     27  C   UNL     1      -3.243  14.428  20.850  0.00  0.00    +0.000 A 
BRANCH  22  29
ATOM     28  C   UNL     1      -2.353  16.895  22.042  0.00  0.00    +0.000 C 
ATOM     29  O   UNL     1      -3.317  16.081  22.692  0.00  0.00    +0.000 OA
ENDBRANCH  22  29
ENDBRANCH  21  26
BRANCH  21  30
ATOM     30  N   UNL     1      -3.772  11.422  18.480  0.00  0.00    +0.000 NA
BRANCH  30  31
ATOM     31  C   UNL     1      -4.839  12.020  17.596  0.00  0.00    +0.000 C 
BRANCH  31  32
ATOM     32  C   UNL     1      -6.268  11.487  17.788  0.00  0.00    +0.000 C 
ATOM     33 CL   UNL     1      -6.269  10.123  18.943  0.00  0.00    +0.000 Cl
ENDBRANCH  31  32
ENDBRANCH  30  31
BRANCH  30  34
ATOM     34  C   UNL     1      -2.897  10.560  17.622  0.00  0.00    +0.000 C 
BRANCH  34  35
ATOM     35  C   UNL     1      -2.645  10.974  16.162  0.00  0.00    +0.000 C 
ATOM     36 CL   UNL     1      -3.356   9.772  15.045  0.00  0.00    +0.000 Cl
ENDBRANCH  34  35
ENDBRANCH  30  34
ENDBRANCH  21  30
ENDBRANCH   1  21
TORSDOF 10
ENDMDL
MODEL 2
REMARK VINA RESULT:      -5.9      2.992      6.006
REMARK  Name = 
REMARK  11 active torsions:
REMARK  status: ('A' for Active; 'I' for Inactive)
REMARK    1  A    between atoms: C_1  and  O_2
REMARK    2  A    between atoms: O_2  and  C_3
REMARK    3  A    between atoms: C_7  and  C_8
REMARK    4  A    between atoms: C_8  and  C_9
REMARK    5  A    between atoms: C_8  and  N_27
REMARK    6  A    between atoms: C_11  and  O_12
REMARK    7  A    between atoms: C_15  and  O_16
REMARK    8  A    between atoms: N_27  and  C_28
REMARK    9  A    between atoms: N_27  and  C_31
REMARK   10  A    between atoms: C_28  and  C_29
REMARK   11  A    between atoms: C_31  and  C_32
REMARK                            x       y       z     vdW  Elec       q    Type
REMARK                         _______ _______ _______ _____ _____    ______ ____
ROOT
ATOM      1  C   UNL     1      -1.266  12.972  21.099  0.00  0.00    +0.000 A 
ATOM      2  C   UNL     1      -1.105  11.674  21.620  0.00  0.00    +0.000 A 
ATOM      3  C   UNL     1      -1.433  11.440  22.952  0.00  0.00    +0.000 A 
ATOM      4  C   UNL     1      -1.840  12.500  23.751  0.00  0.00    +0.000 A 
ATOM      5  C   UNL     1      -1.333  13.730  23.392  0.00  0.00    +0.000 A 
ATOM      6  C   UNL     1      -1.364  14.022  22.026  0.00  0.00    +0.000 A 
ATOM      7  C   UNL     1      -1.526  14.731  24.438  0.00  0.00    +0.000 C 
ATOM      8  O   UNL     1      -0.608  15.269  25.026  0.00  0.00    +0.000 OA
ATOM      9  C   UNL     1      -2.938  15.076  24.603  0.00  0.00    +0.000 A 
ATOM     10  C   UNL     1      -3.253  16.429  24.710  0.00  0.00    +0.000 A 
ATOM     11  C   UNL     1      -4.480  16.843  24.213  0.00  0.00    +0.000 A 
ATOM     12  C   UNL     1      -5.360  15.901  23.655  0.00  0.00    +0.000 A 
ATOM     13  C   UNL     1      -5.063  14.522  23.667  0.00  0.00    +0.000 A 
ATOM     14  C   UNL     1      -3.837  14.101  24.174  0.00  0.00    +0.000 A 
ATOM     15  C   UNL     1      -3.330  12.668  24.030  0.00  0.00    +0.000 C 
ATOM     16  O   UNL     1      -4.120  11.741  24.032  0.00  0.00    +0.000 OA
ENDROOT
BRANCH   3  17
ATOM     17  O   UNL     1      -1.243  10.211  23.512  0.00  0.00    +0.000 OA
ATOM     18  H   UNL     1      -0.950   9.587  22.825  0.00  0.00    +0.000 HD
ENDBRANCH   3  17
BRANCH   6  19
ATOM     19  O   UNL     1      -1.549  15.288  21.546  0.00  0.00    +0.000 OA
ATOM     20  H   UNL     1      -0.784  15.581  21.016  0.00  0.00    +0.000 HD
ENDBRANCH   6  19
BRANCH   1  21
ATOM     21  C   UNL     1      -1.385  13.214  19.587  0.00  0.00    +0.000 C 
BRANCH  21  26
ATOM     22  C   UNL     1      -3.500  10.856  17.381  0.00  0.00    +0.000 A 
ATOM     23  C   UNL     1      -4.765  11.015  17.934  0.00  0.00    +0.000 A 
ATOM     24  C   UNL     1      -4.958  11.822  19.058  0.00  0.00    +0.000 A 
ATOM     25  C   UNL     1      -3.872  12.486  19.626  0.00  0.00    +0.000 A 
ATOM     26  C   UNL     1      -2.580  12.350  19.080  0.00  0.00    +0.000 A 
ATOM     27  C   UNL     1      -2.405  11.508  17.965  0.00  0.00    +0.000 A 
BRANCH  22  29
ATOM     28  C   UNL     1      -2.811  10.560  15.106  0.00  0.00    +0.000 C 
ATOM     29  O   UNL     1      -3.475  10.068  16.259  0.00  0.00    +0.000 OA
ENDBRANCH  22  29
ENDBRANCH  21  26
BRANCH  21  30
ATOM     30  N   UNL     1      -0.104  13.015  18.819  0.00  0.00    +0.000 NA
BRANCH  30  31
ATOM     31  C   UNL     1       0.611  14.344  18.781  0.00  0.00    +0.000 C 
BRANCH  31  32
ATOM     32  C   UNL     1      -0.263  15.587  18.549  0.00  0.00    +0.000 C 
ATOM     33 CL   UNL     1       0.489  17.021  19.306  0.00  0.00    +0.000 Cl
ENDBRANCH  31  32
ENDBRANCH  30  31
BRANCH  30  34
ATOM     34  C   UNL     1       0.805  12.025  19.480  0.00  0.00    +0.000 C 
BRANCH  34  35
ATOM     35  C   UNL     1       1.229  10.767  18.702  0.00  0.00    +0.000 C 
ATOM     36 CL   UNL     1       0.830   9.296  19.637  0.00  0.00    +0.000 Cl
ENDBRANCH  34  35
ENDBRANCH  30  34
ENDBRANCH  21  30
ENDBRANCH   1  21
TORSDOF 10
ENDMDL
MODEL 3
REMARK VINA RESULT:      -5.8      3.576      7.669
REMARK  Name = 
REMARK  11 active torsions:
REMARK  status: ('A' for Active; 'I' for Inactive)
REMARK    1  A    between atoms: C_1  and  O_2
REMARK    2  A    between atoms: O_2  and  C_3
REMARK    3  A    between atoms: C_7  and  C_8
REMARK    4  A    between atoms: C_8  and  C_9
REMARK    5  A    between atoms: C_8  and  N_27
REMARK    6  A    between atoms: C_11  and  O_12
REMARK    7  A    between atoms: C_15  and  O_16
REMARK    8  A    between atoms: N_27  and  C_28
REMARK    9  A    between atoms: N_27  and  C_31
REMARK   10  A    between atoms: C_28  and  C_29
REMARK   11  A    between atoms: C_31  and  C_32
REMARK                            x       y       z     vdW  Elec       q    Type
REMARK                         _______ _______ _______ _____ _____    ______ ____
ROOT
ATOM      1  C   UNL     1      -3.946  14.105  22.146  0.00  0.00    +0.000 A 
ATOM      2  C   UNL     1      -4.478  13.341  23.201  0.00  0.00    +0.000 A 
ATOM      3  C   UNL     1      -5.777  12.855  23.090  0.00  0.00    +0.000 A 
ATOM      4  C   UNL     1      -6.539  13.192  21.979  0.00  0.00    +0.000 A 
ATOM      5  C   UNL     1      -6.225  14.403  21.402  0.00  0.00    +0.000 A 
ATOM      6  C   UNL     1      -4.862  14.659  21.237  0.00  0.00    +0.000 A 
ATOM      7  C   UNL     1      -7.251  14.846  20.461  0.00  0.00    +0.000 C 
ATOM      8  O   UNL     1      -7.916  15.851  20.623  0.00  0.00    +0.000 OA
ATOM      9  C   UNL     1      -7.295  14.000  19.269  0.00  0.00    +0.000 A 
ATOM     10  C   UNL     1      -7.376  14.643  18.036  0.00  0.00    +0.000 A 
ATOM     11  C   UNL     1      -6.776  14.024  16.949  0.00  0.00    +0.000 A 
ATOM     12  C   UNL     1      -6.144  12.781  17.117  0.00  0.00    +0.000 A 
ATOM     13  C   UNL     1      -6.180  12.099  18.350  0.00  0.00    +0.000 A 
ATOM     14  C   UNL     1      -6.790  12.712  19.441  0.00  0.00    +0.000 A 
ATOM     15  C   UNL     1      -6.689  12.163  20.862  0.00  0.00    +0.000 C 
ATOM     16  O   UNL     1      -6.623  10.960  21.046  0.00  0.00    +0.000 OA
ENDROOT
BRANCH   3  17
ATOM     17  O   UNL     1      -6.351  12.155  24.110  0.00  0.00    +0.000 OA
ATOM     18  H   UNL     1      -5.652  11.757  24.659  0.00  0.00    +0.000 HD
ENDBRANCH   3  17
BRANCH   6  19
ATOM     19  O   UNL     1      -4.368  15.382  20.187  0.00  0.00    +0.000 OA
ATOM     20  H   UNL     1      -4.699  15.041  19.336  0.00  0.00    +0.000 HD
ENDBRANCH   6  19
BRANCH   1  21
ATOM     21  C   UNL     1      -2.429  14.272  21.969  0.00  0.00    +0.000 C 
BRANCH  21  26
ATOM     22  C   UNL     1      -0.532  10.925  22.272  0.00  0.00    +0.000 A 
ATOM     23  C   UNL     1      -0.532  10.483  20.954  0.00  0.00    +0.000 A 
ATOM     24  C   UNL     1      -1.191  11.207  19.958  0.00  0.00    +0.000 A 
ATOM     25  C   UNL     1      -1.847  12.392  20.284  0.00  0.00    +0.000 A 
ATOM     26  C   UNL     1      -1.854  12.868  21.610  0.00  0.00    +0.000 A 
ATOM     27  C   UNL     1      -1.209  12.107  22.603  0.00  0.00    +0.000 A 
BRANCH  22  29
ATOM     28  C   UNL     1       1.151   9.247  22.576  0.00  0.00    +0.000 C 
ATOM     29  O   UNL     1       0.190  10.132  23.128  0.00  0.00    +0.000 OA
ENDBRANCH  22  29
ENDBRANCH  21  26
BRANCH  21  30
ATOM     30  N   UNL     1      -1.737  14.951  23.123  0.00  0.00    +0.000 NA
BRANCH  30  31
ATOM     31  C   UNL     1      -0.403  15.447  22.620  0.00  0.00    +0.000 C 
BRANCH  31  32
ATOM     32  C   UNL     1      -0.416  16.234  21.300  0.00  0.00    +0.000 C 
ATOM     33 CL   UNL     1       0.410  15.303  20.017  0.00  0.00    +0.000 Cl
ENDBRANCH  31  32
ENDBRANCH  30  31
BRANCH  30  34
ATOM     34  C   UNL     1      -2.504  16.135  23.627  0.00  0.00    +0.000 C 
BRANCH  34  35
ATOM     35  C   UNL     1      -2.891  16.194  25.114  0.00  0.00    +0.000 C 
ATOM     36 CL   UNL     1      -1.666  17.114  26.038  0.00  0.00    +0.000 Cl
ENDBRANCH  34  35
ENDBRANCH  30  34
ENDBRANCH  21  30
ENDBRANCH   1  21
TORSDOF 10
ENDMDL
MODEL 4
REMARK VINA RESULT:      -5.8      1.001      1.677
REMARK  Name = 
REMARK  11 active torsions:
REMARK  status: ('A' for Active; 'I' for Inactive)
REMARK    1  A    between atoms: C_1  and  O_2
REMARK    2  A    between atoms: O_2  and  C_3
REMARK    3  A    between atoms: C_7  and  C_8
REMARK    4  A    between atoms: C_8  and  C_9
REMARK    5  A    between atoms: C_8  and  N_27
REMARK    6  A    between atoms: C_11  and  O_12
REMARK    7  A    between atoms: C_15  and  O_16
REMARK    8  A    between atoms: N_27  and  C_28
REMARK    9  A    between atoms: N_27  and  C_31
REMARK   10  A    between atoms: C_28  and  C_29
REMARK   11  A    between atoms: C_31  and  C_32
REMARK                            x       y       z     vdW  Elec       q    Type
REMARK                         _______ _______ _______ _____ _____    ______ ____
ROOT
ATOM      1  C   UNL     1      -1.628  12.301  19.798  0.00  0.00    +0.000 A 
ATOM      2  C   UNL     1      -1.333  11.601  20.982  0.00  0.00    +0.000 A 
ATOM      3  C   UNL     1      -0.029  11.621  21.467  0.00  0.00    +0.000 A 
ATOM      4  C   UNL     1       0.960  12.267  20.738  0.00  0.00    +0.000 A 
ATOM      5  C   UNL     1       0.751  12.305  19.376  0.00  0.00    +0.000 A 
ATOM      6  C   UNL     1      -0.544  12.640  18.973  0.00  0.00    +0.000 A 
ATOM      7  C   UNL     1       1.954  12.697  18.646  0.00  0.00    +0.000 C 
ATOM      8  O   UNL     1       2.529  11.963  17.865  0.00  0.00    +0.000 OA
ATOM      9  C   UNL     1       2.303  14.096  18.888  0.00  0.00    +0.000 A 
ATOM     10  C   UNL     1       2.650  14.865  17.780  0.00  0.00    +0.000 A 
ATOM     11  C   UNL     1       2.341  16.218  17.817  0.00  0.00    +0.000 A 
ATOM     12  C   UNL     1       1.729  16.762  18.957  0.00  0.00    +0.000 A 
ATOM     13  C   UNL     1       1.498  15.983  20.110  0.00  0.00    +0.000 A 
ATOM     14  C   UNL     1       1.815  14.627  20.081  0.00  0.00    +0.000 A 
ATOM     15  C   UNL     1       1.401  13.657  21.185  0.00  0.00    +0.000 C 
ATOM     16  O   UNL     1       1.334  14.043  22.339  0.00  0.00    +0.000 OA
ENDROOT
BRANCH   3  17
ATOM     17  O   UNL     1       0.312  10.915  22.583  0.00  0.00    +0.000 OA
ATOM     18  H   UNL     1      -0.461  10.848  23.170  0.00  0.00    +0.000 HD
ENDBRANCH   3  17
BRANCH   6  19
ATOM     19  O   UNL     1      -0.801  13.345  17.830  0.00  0.00    +0.000 OA
ATOM     20  H   UNL     1      -1.736  13.259  17.565  0.00  0.00    +0.000 HD
ENDBRANCH   6  19
BRANCH   1  21
ATOM     21  C   UNL     1      -3.066  12.721  19.457  0.00  0.00    +0.000 C 
BRANCH  21  26
ATOM     22  C   UNL     1      -5.078  13.238  22.710  0.00  0.00    +0.000 A 
ATOM     23  C   UNL     1      -5.002  14.617  22.870  0.00  0.00    +0.000 A 
ATOM     24  C   UNL     1      -4.255  15.399  21.985  0.00  0.00    +0.000 A 
ATOM     25  C   UNL     1      -3.588  14.794  20.922  0.00  0.00    +0.000 A 
ATOM     26  C   UNL     1      -3.657  13.400  20.731  0.00  0.00    +0.000 A 
ATOM     27  C   UNL     1      -4.391  12.628  21.652  0.00  0.00    +0.000 A 
BRANCH  22  29
ATOM     28  C   UNL     1      -7.256  12.453  23.326  0.00  0.00    +0.000 C 
ATOM     29  O   UNL     1      -5.879  12.612  23.630  0.00  0.00    +0.000 OA
ENDBRANCH  22  29
ENDBRANCH  21  26
BRANCH  21  30
ATOM     30  N   UNL     1      -3.921  11.619  18.886  0.00  0.00    +0.000 NA
BRANCH  30  31
ATOM     31  C   UNL     1      -5.179  12.256  18.349  0.00  0.00    +0.000 C 
BRANCH  31  32
ATOM     32  C   UNL     1      -6.500  11.827  19.008  0.00  0.00    +0.000 C 
ATOM     33 CL   UNL     1      -6.731  10.064  18.839  0.00  0.00    +0.000 Cl
ENDBRANCH  31  32
ENDBRANCH  30  31
BRANCH  30  34
ATOM     34  C   UNL     1      -3.247  10.910  17.751  0.00  0.00    +0.000 C 
BRANCH  34  35
ATOM     35  C   UNL     1      -3.891  10.957  16.355  0.00  0.00    +0.000 C 
ATOM     36 CL   UNL     1      -2.707  10.463  15.109  0.00  0.00    +0.000 Cl
ENDBRANCH  34  35
ENDBRANCH  30  34
ENDBRANCH  21  30
ENDBRANCH   1  21
TORSDOF 10
ENDMDL
MODEL 5
REMARK VINA RESULT:      -5.8      3.391      7.194
REMARK  Name = 
REMARK  11 active torsions:
REMARK  status: ('A' for Active; 'I' for Inactive)
REMARK    1  A    between atoms: C_1  and  O_2
REMARK    2  A    between atoms: O_2  and  C_3
REMARK    3  A    between atoms: C_7  and  C_8
REMARK    4  A    between atoms: C_8  and  C_9
REMARK    5  A    between atoms: C_8  and  N_27
REMARK    6  A    between atoms: C_11  and  O_12
REMARK    7  A    between atoms: C_15  and  O_16
REMARK    8  A    between atoms: N_27  and  C_28
REMARK    9  A    between atoms: N_27  and  C_31
REMARK   10  A    between atoms: C_28  and  C_29
REMARK   11  A    between atoms: C_31  and  C_32
REMARK                            x       y       z     vdW  Elec       q    Type
REMARK                         _______ _______ _______ _____ _____    ______ ____
ROOT
ATOM      1  C   UNL     1      -1.255  12.377  20.750  0.00  0.00    +0.000 A 
ATOM      2  C   UNL     1      -2.227  12.254  19.739  0.00  0.00    +0.000 A 
ATOM      3  C   UNL     1      -3.534  12.648  20.012  0.00  0.00    +0.000 A 
ATOM      4  C   UNL     1      -3.863  13.083  21.288  0.00  0.00    +0.000 A 
ATOM      5  C   UNL     1      -3.098  12.549  22.303  0.00  0.00    +0.000 A 
ATOM      6  C   UNL     1      -1.722  12.511  22.068  0.00  0.00    +0.000 A 
ATOM      7  C   UNL     1      -3.689  12.784  23.618  0.00  0.00    +0.000 C 
ATOM      8  O   UNL     1      -4.080  11.890  24.344  0.00  0.00    +0.000 OA
ATOM      9  C   UNL     1      -3.645  14.199  23.986  0.00  0.00    +0.000 A 
ATOM     10  C   UNL     1      -3.229  14.507  25.280  0.00  0.00    +0.000 A 
ATOM     11  C   UNL     1      -2.555  15.704  25.468  0.00  0.00    +0.000 A 
ATOM     12  C   UNL     1      -2.344  16.564  24.378  0.00  0.00    +0.000 A 
ATOM     13  C   UNL     1      -2.880  16.281  23.104  0.00  0.00    +0.000 A 
ATOM     14  C   UNL     1      -3.566  15.085  22.913  0.00  0.00    +0.000 A 
ATOM     15  C   UNL     1      -3.987  14.584  21.534  0.00  0.00    +0.000 C 
ATOM     16  O   UNL     1      -4.294  15.382  20.666  0.00  0.00    +0.000 OA
ENDROOT
BRANCH   3  17
ATOM     17  O   UNL     1      -4.517  12.497  19.080  0.00  0.00    +0.000 OA
ATOM     18  H   UNL     1      -4.589  13.312  18.553  0.00  0.00    +0.000 HD
ENDBRANCH   3  17
BRANCH   6  19
ATOM     19  O   UNL     1      -0.798  12.661  23.064  0.00  0.00    +0.000 OA
ATOM     20  H   UNL     1      -0.853  13.548  23.467  0.00  0.00    +0.000 HD
ENDBRANCH   6  19
BRANCH   1  21
ATOM     21  C   UNL     1       0.242  12.422  20.414  0.00  0.00    +0.000 C 
BRANCH  21  26
ATOM     22  C   UNL     1       1.411   8.941  19.224  0.00  0.00    +0.000 A 
ATOM     23  C   UNL     1       1.402   8.221  20.413  0.00  0.00    +0.000 A 
ATOM     24  C   UNL     1       1.089   8.844  21.624  0.00  0.00    +0.000 A 
ATOM     25  C   UNL     1       0.769  10.201  21.640  0.00  0.00    +0.000 A 
ATOM     26  C   UNL     1       0.762  10.952  20.448  0.00  0.00    +0.000 A 
ATOM     27  C   UNL     1       1.109  10.310  19.244  0.00  0.00    +0.000 A 
BRANCH  22  29
ATOM     28  C   UNL     1       3.058   7.972  17.779  0.00  0.00    +0.000 C 
ATOM     29  O   UNL     1       1.697   8.186  18.115  0.00  0.00    +0.000 OA
ENDBRANCH  22  29
ENDBRANCH  21  26
BRANCH  21  30
ATOM     30  N   UNL     1       1.043  13.384  21.253  0.00  0.00    +0.000 NA
BRANCH  30  31
ATOM     31  C   UNL     1       2.492  13.228  20.860  0.00  0.00    +0.000 C 
BRANCH  31  32
ATOM     32  C   UNL     1       3.017  14.185  19.778  0.00  0.00    +0.000 C 
ATOM     33 CL   UNL     1       2.729  13.498  18.153  0.00  0.00    +0.000 Cl
ENDBRANCH  31  32
ENDBRANCH  30  31
BRANCH  30  34
ATOM     34  C   UNL     1       0.654  14.810  21.007  0.00  0.00    +0.000 C 
BRANCH  34  35
ATOM     35  C   UNL     1       0.637  15.792  22.190  0.00  0.00    +0.000 C 
ATOM     36 CL   UNL     1       0.225  17.438  21.624  0.00  0.00    +0.000 Cl
ENDBRANCH  34  35
ENDBRANCH  30  34
ENDBRANCH  21  30
ENDBRANCH   1  21
TORSDOF 10
ENDMDL
MODEL 6
REMARK VINA RESULT:      -5.8      2.868      5.577
REMARK  Name = 
REMARK  11 active torsions:
REMARK  status: ('A' for Active; 'I' for Inactive)
REMARK    1  A    between atoms: C_1  and  O_2
REMARK    2  A    between atoms: O_2  and  C_3
REMARK    3  A    between atoms: C_7  and  C_8
REMARK    4  A    between atoms: C_8  and  C_9
REMARK    5  A    between atoms: C_8  and  N_27
REMARK    6  A    between atoms: C_11  and  O_12
REMARK    7  A    between atoms: C_15  and  O_16
REMARK    8  A    between atoms: N_27  and  C_28
REMARK    9  A    between atoms: N_27  and  C_31
REMARK   10  A    between atoms: C_28  and  C_29
REMARK   11  A    between atoms: C_31  and  C_32
REMARK                            x       y       z     vdW  Elec       q    Type
REMARK                         _______ _______ _______ _____ _____    ______ ____
ROOT
ATOM      1  C   UNL     1      -0.767  12.474  20.679  0.00  0.00    +0.000 A 
ATOM      2  C   UNL     1      -0.810  11.264  21.397  0.00  0.00    +0.000 A 
ATOM      3  C   UNL     1      -1.300  11.274  22.699  0.00  0.00    +0.000 A 
ATOM      4  C   UNL     1      -1.663  12.480  23.283  0.00  0.00    +0.000 A 
ATOM      5  C   UNL     1      -0.984  13.584  22.815  0.00  0.00    +0.000 A 
ATOM      6  C   UNL     1      -0.840  13.660  21.427  0.00  0.00    +0.000 A 
ATOM      7  C   UNL     1      -1.170  14.749  23.675  0.00  0.00    +0.000 C 
ATOM      8  O   UNL     1      -0.262  15.279  24.286  0.00  0.00    +0.000 OA
ATOM      9  C   UNL     1      -2.542  15.252  23.617  0.00  0.00    +0.000 A 
ATOM     10  C   UNL     1      -2.710  16.629  23.491  0.00  0.00    +0.000 A 
ATOM     11  C   UNL     1      -3.823  17.078  22.796  0.00  0.00    +0.000 A 
ATOM     12  C   UNL     1      -4.741  16.152  22.278  0.00  0.00    +0.000 A 
ATOM     13  C   UNL     1      -4.608  14.769  22.523  0.00  0.00    +0.000 A 
ATOM     14  C   UNL     1      -3.498  14.314  23.229  0.00  0.00    +0.000 A 
ATOM     15  C   UNL     1      -3.146  12.834  23.354  0.00  0.00    +0.000 C 
ATOM     16  O   UNL     1      -4.033  12.000  23.394  0.00  0.00    +0.000 OA
ENDROOT
BRANCH   3  17
ATOM     17  O   UNL     1      -1.312  10.134  23.449  0.00  0.00    +0.000 OA
ATOM     18  H   UNL     1      -0.934  10.322  24.326  0.00  0.00    +0.000 HD
ENDBRANCH   3  17
BRANCH   6  19
ATOM     19  O   UNL     1      -0.827  14.848  20.751  0.00  0.00    +0.000 OA
ATOM     20  H   UNL     1      -0.080  15.407  21.032  0.00  0.00    +0.000 HD
ENDBRANCH   6  19
BRANCH   1  21
ATOM     21  C   UNL     1      -0.700  12.488  19.145  0.00  0.00    +0.000 C 
BRANCH  21  26
ATOM     22  C   UNL     1      -4.432  11.616  18.693  0.00  0.00    +0.000 A 
ATOM     23  C   UNL     1      -4.358  10.425  17.981  0.00  0.00    +0.000 A 
ATOM     24  C   UNL     1      -3.123   9.912  17.574  0.00  0.00    +0.000 A 
ATOM     25  C   UNL     1      -1.951  10.595  17.895  0.00  0.00    +0.000 A 
ATOM     26  C   UNL     1      -1.998  11.799  18.625  0.00  0.00    +0.000 A 
ATOM     27  C   UNL     1      -3.255  12.312  19.000  0.00  0.00    +0.000 A 
BRANCH  22  29
ATOM     28  C   UNL     1      -6.041  11.954  20.436  0.00  0.00    +0.000 C 
ATOM     29  O   UNL     1      -5.706  11.971  19.058  0.00  0.00    +0.000 OA
ENDBRANCH  22  29
ENDBRANCH  21  26
BRANCH  21  30
ATOM     30  N   UNL     1       0.575  11.928  18.569  0.00  0.00    +0.000 NA
BRANCH  30  31
ATOM     31  C   UNL     1       1.508  13.088  18.323  0.00  0.00    +0.000 C 
BRANCH  31  32
ATOM     32  C   UNL     1       2.554  13.372  19.413  0.00  0.00    +0.000 C 
ATOM     33 CL   UNL     1       2.430  15.068  19.962  0.00  0.00    +0.000 Cl
ENDBRANCH  31  32
ENDBRANCH  30  31
BRANCH  30  34
ATOM     34  C   UNL     1       1.257  10.985  19.514  0.00  0.00    +0.000 C 
BRANCH  34  35
ATOM     35  C   UNL     1       1.227   9.477  19.213  0.00  0.00    +0.000 C 
ATOM     36 CL   UNL     1       2.013   9.142  17.642  0.00  0.00    +0.000 Cl
ENDBRANCH  34  35
ENDBRANCH  30  34
ENDBRANCH  21  30
ENDBRANCH   1  21
TORSDOF 10
ENDMDL
MODEL 7
REMARK VINA RESULT:      -5.7      3.469      7.205
REMARK  Name = 
REMARK  11 active torsions:
REMARK  status: ('A' for Active; 'I' for Inactive)
REMARK    1  A    between atoms: C_1  and  O_2
REMARK    2  A    between atoms: O_2  and  C_3
REMARK    3  A    between atoms: C_7  and  C_8
REMARK    4  A    between atoms: C_8  and  C_9
REMARK    5  A    between atoms: C_8  and  N_27
REMARK    6  A    between atoms: C_11  and  O_12
REMARK    7  A    between atoms: C_15  and  O_16
REMARK    8  A    between atoms: N_27  and  C_28
REMARK    9  A    between atoms: N_27  and  C_31
REMARK   10  A    between atoms: C_28  and  C_29
REMARK   11  A    between atoms: C_31  and  C_32
REMARK                            x       y       z     vdW  Elec       q    Type
REMARK                         _______ _______ _______ _____ _____    ______ ____
ROOT
ATOM      1  C   UNL     1       2.246  13.011  19.089  0.00  0.00    +0.000 A 
ATOM      2  C   UNL     1       2.414  12.018  18.107  0.00  0.00    +0.000 A 
ATOM      3  C   UNL     1       1.661  10.851  18.194  0.00  0.00    +0.000 A 
ATOM      4  C   UNL     1       0.819  10.663  19.282  0.00  0.00    +0.000 A 
ATOM      5  C   UNL     1       1.212  11.296  20.442  0.00  0.00    +0.000 A 
ATOM      6  C   UNL     1       1.640  12.617  20.294  0.00  0.00    +0.000 A 
ATOM      7  C   UNL     1       0.483  10.806  21.609  0.00  0.00    +0.000 C 
ATOM      8  O   UNL     1       1.018  10.226  22.534  0.00  0.00    +0.000 OA
ATOM      9  C   UNL     1      -0.926  11.198  21.572  0.00  0.00    +0.000 A 
ATOM     10  C   UNL     1      -1.476  11.702  22.748  0.00  0.00    +0.000 A 
ATOM     11  C   UNL     1      -2.483  12.649  22.629  0.00  0.00    +0.000 A 
ATOM     12  C   UNL     1      -2.926  13.040  21.355  0.00  0.00    +0.000 A 
ATOM     13  C   UNL     1      -2.432  12.426  20.185  0.00  0.00    +0.000 A 
ATOM     14  C   UNL     1      -1.429  11.468  20.300  0.00  0.00    +0.000 A 
ATOM     15  C   UNL     1      -0.675  10.911  19.095  0.00  0.00    +0.000 C 
ATOM     16  O   UNL     1      -1.246  10.787  18.025  0.00  0.00    +0.000 OA
ENDROOT
BRANCH   3  17
ATOM     17  O   UNL     1       1.830   9.841  17.293  0.00  0.00    +0.000 OA
ATOM     18  H   UNL     1       1.458  10.111  16.435  0.00  0.00    +0.000 HD
ENDBRANCH   3  17
BRANCH   6  19
ATOM     19  O   UNL     1       1.440  13.570  21.254  0.00  0.00    +0.000 OA
ATOM     20  H   UNL     1       1.693  13.241  22.136  0.00  0.00    +0.000 HD
ENDBRANCH   6  19
BRANCH   1  21
ATOM     21  C   UNL     1       2.655  14.468  18.828  0.00  0.00    +0.000 C 
BRANCH  21  26
ATOM     22  C   UNL     1       5.689  15.093  21.130  0.00  0.00    +0.000 A 
ATOM     23  C   UNL     1       6.721  15.212  20.207  0.00  0.00    +0.000 A 
ATOM     24  C   UNL     1       6.484  15.031  18.842  0.00  0.00    +0.000 A 
ATOM     25  C   UNL     1       5.195  14.739  18.398  0.00  0.00    +0.000 A 
ATOM     26  C   UNL     1       4.129  14.622  19.311  0.00  0.00    +0.000 A 
ATOM     27  C   UNL     1       4.397  14.779  20.685  0.00  0.00    +0.000 A 
BRANCH  22  29
ATOM     28  C   UNL     1       6.898  14.389  23.075  0.00  0.00    +0.000 C 
ATOM     29  O   UNL     1       6.066  15.338  22.426  0.00  0.00    +0.000 OA
ENDBRANCH  22  29
ENDBRANCH  21  26
BRANCH  21  30
ATOM     30  N   UNL     1       1.706  15.494  19.391  0.00  0.00    +0.000 NA
BRANCH  30  31
ATOM     31  C   UNL     1       2.214  16.854  18.979  0.00  0.00    +0.000 C 
BRANCH  31  32
ATOM     32  C   UNL     1       2.370  17.100  17.470  0.00  0.00    +0.000 C 
ATOM     33 CL   UNL     1       1.195  18.327  16.918  0.00  0.00    +0.000 Cl
ENDBRANCH  31  32
ENDBRANCH  30  31
BRANCH  30  34
ATOM     34  C   UNL     1       0.318  15.341  18.848  0.00  0.00    +0.000 C 
BRANCH  34  35
ATOM     35  C   UNL     1      -0.869  15.860  19.678  0.00  0.00    +0.000 C 
ATOM     36 CL   UNL     1      -1.543  17.341  18.937  0.00  0.00    +0.000 Cl
ENDBRANCH  34  35
ENDBRANCH  30  34
ENDBRANCH  21  30
ENDBRANCH   1  21
TORSDOF 10
ENDMDL
MODEL 8
REMARK VINA RESULT:      -5.7      2.528      6.027
REMARK  Name = 
REMARK  11 active torsions:
REMARK  status: ('A' for Active; 'I' for Inactive)
REMARK    1  A    between atoms: C_1  and  O_2
REMARK    2  A    between atoms: O_2  and  C_3
REMARK    3  A    between atoms: C_7  and  C_8
REMARK    4  A    between atoms: C_8  and  C_9
REMARK    5  A    between atoms: C_8  and  N_27
REMARK    6  A    between atoms: C_11  and  O_12
REMARK    7  A    between atoms: C_15  and  O_16
REMARK    8  A    between atoms: N_27  and  C_28
REMARK    9  A    between atoms: N_27  and  C_31
REMARK   10  A    between atoms: C_28  and  C_29
REMARK   11  A    between atoms: C_31  and  C_32
REMARK                            x       y       z     vdW  Elec       q    Type
REMARK                         _______ _______ _______ _____ _____    ______ ____
ROOT
ATOM      1  C   UNL     1      -1.676  12.394  20.846  0.00  0.00    +0.000 A 
ATOM      2  C   UNL     1      -2.729  12.470  19.916  0.00  0.00    +0.000 A 
ATOM      3  C   UNL     1      -3.938  13.035  20.314  0.00  0.00    +0.000 A 
ATOM      4  C   UNL     1      -4.099  13.442  21.632  0.00  0.00    +0.000 A 
ATOM      5  C   UNL     1      -3.348  12.745  22.554  0.00  0.00    +0.000 A 
ATOM      6  C   UNL     1      -2.015  12.520  22.203  0.00  0.00    +0.000 A 
ATOM      7  C   UNL     1      -3.795  12.990  23.924  0.00  0.00    +0.000 C 
ATOM      8  O   UNL     1      -4.259  12.123  24.639  0.00  0.00    +0.000 OA
ATOM      9  C   UNL     1      -3.511  14.360  24.349  0.00  0.00    +0.000 A 
ATOM     10  C   UNL     1      -2.956  14.531  25.615  0.00  0.00    +0.000 A 
ATOM     11  C   UNL     1      -2.098  15.605  25.799  0.00  0.00    +0.000 A 
ATOM     12  C   UNL     1      -1.843  16.484  24.735  0.00  0.00    +0.000 A 
ATOM     13  C   UNL     1      -2.511  16.354  23.499  0.00  0.00    +0.000 A 
ATOM     14  C   UNL     1      -3.382  15.284  23.313  0.00  0.00    +0.000 A 
ATOM     15  C   UNL     1      -3.977  14.929  21.953  0.00  0.00    +0.000 C 
ATOM     16  O   UNL     1      -4.227  15.810  21.150  0.00  0.00    +0.000 OA
ENDROOT
BRANCH   3  17
ATOM     17  O   UNL     1      -5.001  13.082  19.462  0.00  0.00    +0.000 OA
ATOM     18  H   UNL     1      -5.572  13.833  19.701  0.00  0.00    +0.000 HD
ENDBRANCH   3  17
BRANCH   6  19
ATOM     19  O   UNL     1      -1.006  12.477  23.124  0.00  0.00    +0.000 OA
ATOM     20  H   UNL     1      -0.506  13.314  23.140  0.00  0.00    +0.000 HD
ENDBRANCH   6  19
BRANCH   1  21
ATOM     21  C   UNL     1      -0.219  12.237  20.388  0.00  0.00    +0.000 C 
BRANCH  21  26
ATOM     22  C   UNL     1       1.922  14.955  18.677  0.00  0.00    +0.000 A 
ATOM     23  C   UNL     1       1.296  16.118  19.109  0.00  0.00    +0.000 A 
ATOM     24  C   UNL     1       0.144  16.059  19.897  0.00  0.00    +0.000 A 
ATOM     25  C   UNL     1      -0.379  14.821  20.266  0.00  0.00    +0.000 A 
ATOM     26  C   UNL     1       0.242  13.626  19.849  0.00  0.00    +0.000 A 
ATOM     27  C   UNL     1       1.385  13.710  19.031  0.00  0.00    +0.000 A 
BRANCH  22  29
ATOM     28  C   UNL     1       3.279  16.465  17.405  0.00  0.00    +0.000 C 
ATOM     29  O   UNL     1       3.063  15.172  17.947  0.00  0.00    +0.000 OA
ENDBRANCH  22  29
ENDBRANCH  21  26
BRANCH  21  30
ATOM     30  N   UNL     1       0.018  11.092  19.437  0.00  0.00    +0.000 NA
BRANCH  30  31
ATOM     31  C   UNL     1      -0.287   9.816  20.183  0.00  0.00    +0.000 C 
BRANCH  31  32
ATOM     32  C   UNL     1       0.604   9.498  21.394  0.00  0.00    +0.000 C 
ATOM     33 CL   UNL     1      -0.402   9.201  22.841  0.00  0.00    +0.000 Cl
ENDBRANCH  31  32
ENDBRANCH  30  31
BRANCH  30  34
ATOM     34  C   UNL     1      -0.884  11.151  18.242  0.00  0.00    +0.000 C 
BRANCH  34  35
ATOM     35  C   UNL     1      -1.298   9.839  17.556  0.00  0.00    +0.000 C 
ATOM     36 CL   UNL     1      -3.074   9.639  17.620  0.00  0.00    +0.000 Cl
ENDBRANCH  34  35
ENDBRANCH  30  34
ENDBRANCH  21  30
ENDBRANCH   1  21
TORSDOF 10
ENDMDL
MODEL 9
REMARK VINA RESULT:      -5.7      3.608      7.362
REMARK  Name = 
REMARK  11 active torsions:
REMARK  status: ('A' for Active; 'I' for Inactive)
REMARK    1  A    between atoms: C_1  and  O_2
REMARK    2  A    between atoms: O_2  and  C_3
REMARK    3  A    between atoms: C_7  and  C_8
REMARK    4  A    between atoms: C_8  and  C_9
REMARK    5  A    between atoms: C_8  and  N_27
REMARK    6  A    between atoms: C_11  and  O_12
REMARK    7  A    between atoms: C_15  and  O_16
REMARK    8  A    between atoms: N_27  and  C_28
REMARK    9  A    between atoms: N_27  and  C_31
REMARK   10  A    between atoms: C_28  and  C_29
REMARK   11  A    between atoms: C_31  and  C_32
REMARK                            x       y       z     vdW  Elec       q    Type
REMARK                         _______ _______ _______ _____ _____    ______ ____
ROOT
ATOM      1  C   UNL     1       2.147  13.241  19.449  0.00  0.00    +0.000 A 
ATOM      2  C   UNL     1       2.358  12.304  18.421  0.00  0.00    +0.000 A 
ATOM      3  C   UNL     1       1.609  11.130  18.418  0.00  0.00    +0.000 A 
ATOM      4  C   UNL     1       0.729  10.879  19.462  0.00  0.00    +0.000 A 
ATOM      5  C   UNL     1       1.077  11.450  20.668  0.00  0.00    +0.000 A 
ATOM      6  C   UNL     1       1.501  12.779  20.607  0.00  0.00    +0.000 A 
ATOM      7  C   UNL     1       0.309  10.895  21.780  0.00  0.00    +0.000 C 
ATOM      8  O   UNL     1       0.814  10.267  22.691  0.00  0.00    +0.000 OA
ATOM      9  C   UNL     1      -1.100  11.281  21.712  0.00  0.00    +0.000 A 
ATOM     10  C   UNL     1      -1.696  11.718  22.893  0.00  0.00    +0.000 A 
ATOM     11  C   UNL     1      -2.704  12.666  22.789  0.00  0.00    +0.000 A 
ATOM     12  C   UNL     1      -3.103  13.124  21.523  0.00  0.00    +0.000 A 
ATOM     13  C   UNL     1      -2.563  12.576  20.341  0.00  0.00    +0.000 A 
ATOM     14  C   UNL     1      -1.558  11.618  20.440  0.00  0.00    +0.000 A 
ATOM     15  C   UNL     1      -0.758  11.130  19.234  0.00  0.00    +0.000 C 
ATOM     16  O   UNL     1      -1.289  11.063  18.140  0.00  0.00    +0.000 OA
ENDROOT
BRANCH   3  17
ATOM     17  O   UNL     1       1.817  10.172  17.470  0.00  0.00    +0.000 OA
ATOM     18  H   UNL     1       1.552   9.305  17.826  0.00  0.00    +0.000 HD
ENDBRANCH   3  17
BRANCH   6  19
ATOM     19  O   UNL     1       1.260  13.678  21.609  0.00  0.00    +0.000 OA
ATOM     20  H   UNL     1       1.437  14.591  21.316  0.00  0.00    +0.000 HD
ENDBRANCH   6  19
BRANCH   1  21
ATOM     21  C   UNL     1       2.556  14.711  19.282  0.00  0.00    +0.000 C 
BRANCH  21  26
ATOM     22  C   UNL     1       6.391  15.046  19.566  0.00  0.00    +0.000 A 
ATOM     23  C   UNL     1       6.590  14.833  20.925  0.00  0.00    +0.000 A 
ATOM     24  C   UNL     1       5.506  14.645  21.786  0.00  0.00    +0.000 A 
ATOM     25  C   UNL     1       4.209  14.658  21.277  0.00  0.00    +0.000 A 
ATOM     26  C   UNL     1       3.979  14.863  19.902  0.00  0.00    +0.000 A 
ATOM     27  C   UNL     1       5.085  15.080  19.058  0.00  0.00    +0.000 A 
BRANCH  22  29
ATOM     28  C   UNL     1       7.975  14.073  18.056  0.00  0.00    +0.000 C 
ATOM     29  O   UNL     1       7.549  15.173  18.844  0.00  0.00    +0.000 OA
ENDBRANCH  22  29
ENDBRANCH  21  26
BRANCH  21  30
ATOM     30  N   UNL     1       1.545  15.704  19.796  0.00  0.00    +0.000 NA
BRANCH  30  31
ATOM     31  C   UNL     1       2.125  17.083  19.600  0.00  0.00    +0.000 C 
BRANCH  31  32
ATOM     32  C   UNL     1       2.057  18.034  20.806  0.00  0.00    +0.000 C 
ATOM     33 CL   UNL     1       1.721  17.114  22.301  0.00  0.00    +0.000 Cl
ENDBRANCH  31  32
ENDBRANCH  30  31
BRANCH  30  34
ATOM     34  C   UNL     1       0.253  15.639  19.040  0.00  0.00    +0.000 C 
BRANCH  34  35
ATOM     35  C   UNL     1      -1.035  16.132  19.721  0.00  0.00    +0.000 C 
ATOM     36 CL   UNL     1      -1.579  17.667  18.981  0.00  0.00    +0.000 Cl
ENDBRANCH  34  35
ENDBRANCH  30  34
ENDBRANCH  21  30
ENDBRANCH   1  21
TORSDOF 10
ENDMDL
