MODEL 1
REMARK VINA RESULT:      -7.7      0.000      0.000
REMARK  Name = 
REMARK  11 active torsions:
REMARK  status: ('A' for Active; 'I' for Inactive)
REMARK    1  A    between atoms: C_1  and  C_2
REMARK    2  A    between atoms: C_2  and  C_3
REMARK    3  A    between atoms: C_3  and  C_4
REMARK    4  A    between atoms: C_4  and  N_5
REMARK    5  A    between atoms: N_5  and  C_19
REMARK    6  A    between atoms: C_6  and  C_8
REMARK    7  A    between atoms: C_8  and  S_9
REMARK    8  A    between atoms: S_9  and  C_10
REMARK    9  A    between atoms: C_20  and  N_21
REMARK   10  A    between atoms: N_22  and  C_23
REMARK   11  A    between atoms: C_23  and  C_24
REMARK                            x       y       z     vdW  Elec       q    Type
REMARK                         _______ _______ _______ _____ _____    ______ ____
ROOT
ATOM      1  C   UNL     1       5.177   6.232  17.847  0.00  0.00    +0.000 A 
ATOM      2  C   UNL     1       4.104   6.932  17.394  0.00  0.00    +0.000 A 
ATOM      3  N   UNL     1       3.011   7.134  18.238  0.00  0.00    +0.000 N 
ATOM      4  C   UNL     1       2.903   6.530  19.485  0.00  0.00    +0.000 A 
ATOM      5  O   UNL     1       1.937   6.656  20.236  0.00  0.00    +0.000 OA
ATOM      6  N   UNL     1       3.966   5.788  19.892  0.00  0.00    +0.000 N 
ATOM      7  C   UNL     1       5.169   5.760  19.266  0.00  0.00    +0.000 A 
ATOM      8  O   UNL     1       6.190   5.368  19.832  0.00  0.00    +0.000 OA
ATOM      9  H   UNL     1       3.929   5.448  20.841  0.00  0.00    +0.000 HD
ENDROOT
BRANCH   1  10
ATOM     10  N   UNL     1       6.342   6.023  17.100  0.00  0.00    +0.000 N 
ATOM     11  C   UNL     1       6.421   5.019  16.104  0.00  0.00    +0.000 C 
ATOM     12  O   UNL     1       7.440   4.882  15.422  0.00  0.00    +0.000 OA
BRANCH  10  13
ATOM     13  C   UNL     1       7.550   6.838  17.397  0.00  0.00    +0.000 C 
BRANCH  13  14
ATOM     14  C   UNL     1       7.239   8.287  17.813  0.00  0.00    +0.000 C 
BRANCH  14  16
ATOM     15  C   UNL     1       8.890   9.786  18.935  0.00  0.00    +0.000 C 
ATOM     16  C   UNL     1       8.383   9.275  17.589  0.00  0.00    +0.000 C 
ENDBRANCH  14  16
ENDBRANCH  13  14
ENDBRANCH  10  13
BRANCH  11  17
ATOM     17  C   UNL     1       5.158   4.166  15.887  0.00  0.00    +0.000 C 
BRANCH  17  18
ATOM     18  S   UNL     1       4.942   2.815  17.088  0.00  0.00    +0.000 S 
BRANCH  18  19
ATOM     19  C   UNL     1       3.319   3.151  17.617  0.00  0.00    +0.000 A 
ATOM     20  N   UNL     1       2.329   3.565  16.854  0.00  0.00    +0.000 NA
ATOM     21  N   UNL     1       1.194   3.641  17.630  0.00  0.00    +0.000 NA
ATOM     22  C   UNL     1       1.519   3.275  18.856  0.00  0.00    +0.000 A 
ATOM     23  C   UNL     1       0.758   3.139  20.050  0.00  0.00    +0.000 A 
ATOM     24  C   UNL     1       1.374   2.750  21.185  0.00  0.00    +0.000 A 
ATOM     25  C   UNL     1       2.801   2.476  21.220  0.00  0.00    +0.000 A 
ATOM     26  C   UNL     1       3.519   2.591  20.089  0.00  0.00    +0.000 A 
ATOM     27  N   UNL     1       2.877   2.977  18.910  0.00  0.00    +0.000 N 
ENDBRANCH  18  19
ENDBRANCH  17  18
ENDBRANCH  11  17
ENDBRANCH   1  10
BRANCH   2  28
ATOM     28  N   UNL     1       4.054   7.411  16.089  0.00  0.00    +0.000 N 
ATOM     29  H   UNL     1       3.129   7.701  15.793  0.00  0.00    +0.000 HD
ATOM     30  H   UNL     1       4.472   6.764  15.424  0.00  0.00    +0.000 HD
ENDBRANCH   2  28
BRANCH   3  31
ATOM     31  C   UNL     1       1.870   7.949  17.803  0.00  0.00    +0.000 C 
BRANCH  31  32
ATOM     32  C   UNL     1       1.805   9.337  18.422  0.00  0.00    +0.000 A 
ATOM     33  C   UNL     1       2.468  10.403  17.793  0.00  0.00    +0.000 A 
ATOM     34  C   UNL     1       2.299  11.717  18.238  0.00  0.00    +0.000 A 
ATOM     35  C   UNL     1       1.465  11.987  19.320  0.00  0.00    +0.000 A 
ATOM     36  C   UNL     1       0.817  10.940  19.971  0.00  0.00    +0.000 A 
ATOM     37  C   UNL     1       0.984   9.626  19.524  0.00  0.00    +0.000 A 
ENDBRANCH  31  32
ENDBRANCH   3  31
TORSDOF 10
ENDMDL
MODEL 2
REMARK VINA RESULT:      -7.0      5.180     10.066
REMARK  Name = 
REMARK  11 active torsions:
REMARK  status: ('A' for Active; 'I' for Inactive)
REMARK    1  A    between atoms: C_1  and  C_2
REMARK    2  A    between atoms: C_2  and  C_3
REMARK    3  A    between atoms: C_3  and  C_4
REMARK    4  A    between atoms: C_4  and  N_5
REMARK    5  A    between atoms: N_5  and  C_19
REMARK    6  A    between atoms: C_6  and  C_8
REMARK    7  A    between atoms: C_8  and  S_9
REMARK    8  A    between atoms: S_9  and  C_10
REMARK    9  A    between atoms: C_20  and  N_21
REMARK   10  A    between atoms: N_22  and  C_23
REMARK   11  A    between atoms: C_23  and  C_24
REMARK                            x       y       z     vdW  Elec       q    Type
REMARK                         _______ _______ _______ _____ _____    ______ ____
ROOT
ATOM      1  C   UNL     1       0.069  10.371  19.574  0.00  0.00    +0.000 A 
ATOM      2  C   UNL     1       0.982   9.483  19.100  0.00  0.00    +0.000 A 
ATOM      3  N   UNL     1       1.614   8.610  19.986  0.00  0.00    +0.000 N 
ATOM      4  C   UNL     1       1.460   8.697  21.365  0.00  0.00    +0.000 A 
ATOM      5  O   UNL     1       2.032   7.970  22.175  0.00  0.00    +0.000 OA
ATOM      6  N   UNL     1       0.585   9.632  21.818  0.00  0.00    +0.000 N 
ATOM      7  C   UNL     1      -0.270  10.331  21.031  0.00  0.00    +0.000 A 
ATOM      8  O   UNL     1      -1.263  10.898  21.488  0.00  0.00    +0.000 OA
ATOM      9  H   UNL     1       0.394   9.614  22.808  0.00  0.00    +0.000 HD
ENDROOT
BRANCH   1  10
ATOM     10  N   UNL     1      -0.658  11.249  18.762  0.00  0.00    +0.000 N 
ATOM     11  C   UNL     1      -0.175  12.539  18.437  0.00  0.00    +0.000 C 
ATOM     12  O   UNL     1      -0.808  13.280  17.679  0.00  0.00    +0.000 OA
BRANCH  10  13
ATOM     13  C   UNL     1      -2.001  10.839  18.273  0.00  0.00    +0.000 C 
BRANCH  13  14
ATOM     14  C   UNL     1      -1.986  10.180  16.882  0.00  0.00    +0.000 C 
BRANCH  14  16
ATOM     15  C   UNL     1      -3.074  10.005  14.642  0.00  0.00    +0.000 C 
ATOM     16  C   UNL     1      -2.762  10.940  15.808  0.00  0.00    +0.000 C 
ENDBRANCH  14  16
ENDBRANCH  13  14
ENDBRANCH  10  13
BRANCH  11  17
ATOM     17  C   UNL     1       1.193  12.930  19.025  0.00  0.00    +0.000 C 
BRANCH  17  18
ATOM     18  S   UNL     1       1.143  14.325  20.194  0.00  0.00    +0.000 S 
BRANCH  18  19
ATOM     19  C   UNL     1       1.729  15.594  19.160  0.00  0.00    +0.000 A 
ATOM     20  N   UNL     1       2.985  15.795  18.821  0.00  0.00    +0.000 NA
ATOM     21  N   UNL     1       3.025  16.849  17.935  0.00  0.00    +0.000 NA
ATOM     22  C   UNL     1       1.789  17.273  17.756  0.00  0.00    +0.000 A 
ATOM     23  C   UNL     1       1.235  18.300  16.943  0.00  0.00    +0.000 A 
ATOM     24  C   UNL     1      -0.095  18.522  16.974  0.00  0.00    +0.000 A 
ATOM     25  C   UNL     1      -0.977  17.742  17.828  0.00  0.00    +0.000 A 
ATOM     26  C   UNL     1      -0.456  16.762  18.586  0.00  0.00    +0.000 A 
ATOM     27  N   UNL     1       0.920  16.521  18.540  0.00  0.00    +0.000 N 
ENDBRANCH  18  19
ENDBRANCH  17  18
ENDBRANCH  11  17
ENDBRANCH   1  10
BRANCH   2  28
ATOM     28  N   UNL     1       1.332   9.458  17.754  0.00  0.00    +0.000 N 
ATOM     29  H   UNL     1       1.832  10.284  17.445  0.00  0.00    +0.000 HD
ATOM     30  H   UNL     1       0.537   9.257  17.152  0.00  0.00    +0.000 HD
ENDBRANCH   2  28
BRANCH   3  31
ATOM     31  C   UNL     1       2.547   7.589  19.494  0.00  0.00    +0.000 C 
BRANCH  31  32
ATOM     32  C   UNL     1       1.947   6.201  19.333  0.00  0.00    +0.000 A 
ATOM     33  C   UNL     1       1.958   5.588  18.069  0.00  0.00    +0.000 A 
ATOM     34  C   UNL     1       1.567   4.256  17.913  0.00  0.00    +0.000 A 
ATOM     35  C   UNL     1       1.156   3.514  19.017  0.00  0.00    +0.000 A 
ATOM     36  C   UNL     1       1.116   4.111  20.275  0.00  0.00    +0.000 A 
ATOM     37  C   UNL     1       1.510   5.444  20.431  0.00  0.00    +0.000 A 
ENDBRANCH  31  32
ENDBRANCH   3  31
TORSDOF 10
ENDMDL
MODEL 3
REMARK VINA RESULT:      -6.8      1.212      1.828
REMARK  Name = 
REMARK  11 active torsions:
REMARK  status: ('A' for Active; 'I' for Inactive)
REMARK    1  A    between atoms: C_1  and  C_2
REMARK    2  A    between atoms: C_2  and  C_3
REMARK    3  A    between atoms: C_3  and  C_4
REMARK    4  A    between atoms: C_4  and  N_5
REMARK    5  A    between atoms: N_5  and  C_19
REMARK    6  A    between atoms: C_6  and  C_8
REMARK    7  A    between atoms: C_8  and  S_9
REMARK    8  A    between atoms: S_9  and  C_10
REMARK    9  A    between atoms: C_20  and  N_21
REMARK   10  A    between atoms: N_22  and  C_23
REMARK   11  A    between atoms: C_23  and  C_24
REMARK                            x       y       z     vdW  Elec       q    Type
REMARK                         _______ _______ _______ _____ _____    ______ ____
ROOT
ATOM      1  C   UNL     1       4.021   6.436  18.135  0.00  0.00    +0.000 A 
ATOM      2  C   UNL     1       3.030   7.325  17.862  0.00  0.00    +0.000 A 
ATOM      3  N   UNL     1       2.109   7.653  18.857  0.00  0.00    +0.000 N 
ATOM      4  C   UNL     1       2.069   7.006  20.087  0.00  0.00    +0.000 A 
ATOM      5  O   UNL     1       1.247   7.244  20.970  0.00  0.00    +0.000 OA
ATOM      6  N   UNL     1       3.036   6.080  20.315  0.00  0.00    +0.000 N 
ATOM      7  C   UNL     1       4.123   5.892  19.525  0.00  0.00    +0.000 A 
ATOM      8  O   UNL     1       5.129   5.310  19.928  0.00  0.00    +0.000 OA
ATOM      9  H   UNL     1       3.070   5.697  21.248  0.00  0.00    +0.000 HD
ENDROOT
BRANCH   1  10
ATOM     10  N   UNL     1       5.023   6.083  17.225  0.00  0.00    +0.000 N 
ATOM     11  C   UNL     1       4.981   4.868  16.501  0.00  0.00    +0.000 C 
ATOM     12  O   UNL     1       5.848   4.596  15.666  0.00  0.00    +0.000 OA
BRANCH  10  13
ATOM     13  C   UNL     1       6.196   6.983  17.054  0.00  0.00    +0.000 C 
BRANCH  13  14
ATOM     14  C   UNL     1       7.484   6.462  17.715  0.00  0.00    +0.000 C 
BRANCH  14  16
ATOM     15  C   UNL     1       8.125   8.868  17.890  0.00  0.00    +0.000 C 
ATOM     16  C   UNL     1       8.234   7.497  18.552  0.00  0.00    +0.000 C 
ENDBRANCH  14  16
ENDBRANCH  13  14
ENDBRANCH  10  13
BRANCH  11  17
ATOM     17  C   UNL     1       3.774   3.950  16.768  0.00  0.00    +0.000 C 
BRANCH  17  18
ATOM     18  S   UNL     1       4.203   2.212  17.098  0.00  0.00    +0.000 S 
BRANCH  18  19
ATOM     19  C   UNL     1       4.073   2.203  18.833  0.00  0.00    +0.000 A 
ATOM     20  N   UNL     1       5.048   1.939  19.677  0.00  0.00    +0.000 NA
ATOM     21  N   UNL     1       4.562   2.107  20.955  0.00  0.00    +0.000 NA
ATOM     22  C   UNL     1       3.296   2.465  20.862  0.00  0.00    +0.000 A 
ATOM     23  C   UNL     1       2.317   2.793  21.840  0.00  0.00    +0.000 A 
ATOM     24  C   UNL     1       1.069   3.118  21.442  0.00  0.00    +0.000 A 
ATOM     25  C   UNL     1       0.697   3.130  20.037  0.00  0.00    +0.000 A 
ATOM     26  C   UNL     1       1.626   2.833  19.111  0.00  0.00    +0.000 A 
ATOM     27  N   UNL     1       2.922   2.515  19.522  0.00  0.00    +0.000 N 
ENDBRANCH  18  19
ENDBRANCH  17  18
ENDBRANCH  11  17
ENDBRANCH   1  10
BRANCH   2  28
ATOM     28  N   UNL     1       2.887   7.878  16.594  0.00  0.00    +0.000 N 
ATOM     29  H   UNL     1       2.358   7.300  15.951  0.00  0.00    +0.000 HD
ATOM     30  H   UNL     1       3.779   8.161  16.193  0.00  0.00    +0.000 HD
ENDBRANCH   2  28
BRANCH   3  31
ATOM     31  C   UNL     1       1.074   8.666  18.616  0.00  0.00    +0.000 C 
BRANCH  31  32
ATOM     32  C   UNL     1       1.452  10.078  19.035  0.00  0.00    +0.000 A 
ATOM     33  C   UNL     1       2.098  10.920  18.116  0.00  0.00    +0.000 A 
ATOM     34  C   UNL     1       2.315  12.270  18.406  0.00  0.00    +0.000 A 
ATOM     35  C   UNL     1       1.890  12.800  19.622  0.00  0.00    +0.000 A 
ATOM     36  C   UNL     1       1.268  11.975  20.556  0.00  0.00    +0.000 A 
ATOM     37  C   UNL     1       1.049  10.625  20.264  0.00  0.00    +0.000 A 
ENDBRANCH  31  32
ENDBRANCH   3  31
TORSDOF 10
ENDMDL
MODEL 4
REMARK VINA RESULT:      -6.8      6.207      9.383
REMARK  Name = 
REMARK  11 active torsions:
REMARK  status: ('A' for Active; 'I' for Inactive)
REMARK    1  A    between atoms: C_1  and  C_2
REMARK    2  A    between atoms: C_2  and  C_3
REMARK    3  A    between atoms: C_3  and  C_4
REMARK    4  A    between atoms: C_4  and  N_5
REMARK    5  A    between atoms: N_5  and  C_19
REMARK    6  A    between atoms: C_6  and  C_8
REMARK    7  A    between atoms: C_8  and  S_9
REMARK    8  A    between atoms: S_9  and  C_10
REMARK    9  A    between atoms: C_20  and  N_21
REMARK   10  A    between atoms: N_22  and  C_23
REMARK   11  A    between atoms: C_23  and  C_24
REMARK                            x       y       z     vdW  Elec       q    Type
REMARK                         _______ _______ _______ _____ _____    ______ ____
ROOT
ATOM      1  C   UNL     1       0.170  11.954  19.677  0.00  0.00    +0.000 A 
ATOM      2  C   UNL     1       0.939  12.971  19.206  0.00  0.00    +0.000 A 
ATOM      3  N   UNL     1       1.150  14.096  20.003  0.00  0.00    +0.000 N 
ATOM      4  C   UNL     1       0.494  14.296  21.212  0.00  0.00    +0.000 A 
ATOM      5  O   UNL     1       0.628  15.293  21.920  0.00  0.00    +0.000 OA
ATOM      6  N   UNL     1      -0.314  13.289  21.634  0.00  0.00    +0.000 N 
ATOM      7  C   UNL     1      -0.369  12.057  21.069  0.00  0.00    +0.000 A 
ATOM      8  O   UNL     1      -0.833  11.085  21.665  0.00  0.00    +0.000 OA
ATOM      9  H   UNL     1      -0.698  13.390  22.562  0.00  0.00    +0.000 HD
ENDROOT
BRANCH   1  10
ATOM     10  N   UNL     1      -0.057  10.763  18.979  0.00  0.00    +0.000 N 
ATOM     11  C   UNL     1      -1.129  10.624  18.065  0.00  0.00    +0.000 C 
ATOM     12  O   UNL     1      -1.284   9.582  17.423  0.00  0.00    +0.000 OA
BRANCH  10  13
ATOM     13  C   UNL     1       0.817   9.589  19.247  0.00  0.00    +0.000 C 
BRANCH  13  14
ATOM     14  C   UNL     1       1.828   9.294  18.125  0.00  0.00    +0.000 C 
BRANCH  14  16
ATOM     15  C   UNL     1       3.602   7.635  17.548  0.00  0.00    +0.000 C 
ATOM     16  C   UNL     1       2.129   7.811  17.911  0.00  0.00    +0.000 C 
ENDBRANCH  14  16
ENDBRANCH  13  14
ENDBRANCH  10  13
BRANCH  11  17
ATOM     17  C   UNL     1      -2.036  11.854  17.879  0.00  0.00    +0.000 C 
BRANCH  17  18
ATOM     18  S   UNL     1      -3.819  11.492  17.920  0.00  0.00    +0.000 S 
BRANCH  18  19
ATOM     19  C   UNL     1      -4.215  12.151  19.481  0.00  0.00    +0.000 A 
ATOM     20  N   UNL     1      -3.440  12.926  20.210  0.00  0.00    +0.000 NA
ATOM     21  N   UNL     1      -4.141  13.293  21.337  0.00  0.00    +0.000 NA
ATOM     22  C   UNL     1      -5.332  12.729  21.272  0.00  0.00    +0.000 A 
ATOM     23  C   UNL     1      -6.464  12.777  22.131  0.00  0.00    +0.000 A 
ATOM     24  C   UNL     1      -7.568  12.070  21.810  0.00  0.00    +0.000 A 
ATOM     25  C   UNL     1      -7.624  11.251  20.611  0.00  0.00    +0.000 A 
ATOM     26  C   UNL     1      -6.559  11.215  19.791  0.00  0.00    +0.000 A 
ATOM     27  N   UNL     1      -5.423  11.961  20.115  0.00  0.00    +0.000 N 
ENDBRANCH  18  19
ENDBRANCH  17  18
ENDBRANCH  11  17
ENDBRANCH   1  10
BRANCH   2  28
ATOM     28  N   UNL     1       1.481  12.932  17.926  0.00  0.00    +0.000 N 
ATOM     29  H   UNL     1       1.778  12.008  17.635  0.00  0.00    +0.000 HD
ATOM     30  H   UNL     1       2.220  13.619  17.798  0.00  0.00    +0.000 HD
ENDBRANCH   2  28
BRANCH   3  31
ATOM     31  C   UNL     1       2.037  15.177  19.554  0.00  0.00    +0.000 C 
BRANCH  31  32
ATOM     32  C   UNL     1       1.352  16.274  18.755  0.00  0.00    +0.000 A 
ATOM     33  C   UNL     1       2.118  17.089  17.905  0.00  0.00    +0.000 A 
ATOM     34  C   UNL     1       1.507  17.997  17.036  0.00  0.00    +0.000 A 
ATOM     35  C   UNL     1       0.119  18.105  17.001  0.00  0.00    +0.000 A 
ATOM     36  C   UNL     1      -0.657  17.321  17.853  0.00  0.00    +0.000 A 
ATOM     37  C   UNL     1      -0.045  16.412  18.721  0.00  0.00    +0.000 A 
ENDBRANCH  31  32
ENDBRANCH   3  31
TORSDOF 10
ENDMDL
MODEL 5
REMARK VINA RESULT:      -6.7      4.533      9.586
REMARK  Name = 
REMARK  11 active torsions:
REMARK  status: ('A' for Active; 'I' for Inactive)
REMARK    1  A    between atoms: C_1  and  C_2
REMARK    2  A    between atoms: C_2  and  C_3
REMARK    3  A    between atoms: C_3  and  C_4
REMARK    4  A    between atoms: C_4  and  N_5
REMARK    5  A    between atoms: N_5  and  C_19
REMARK    6  A    between atoms: C_6  and  C_8
REMARK    7  A    between atoms: C_8  and  S_9
REMARK    8  A    between atoms: S_9  and  C_10
REMARK    9  A    between atoms: C_20  and  N_21
REMARK   10  A    between atoms: N_22  and  C_23
REMARK   11  A    between atoms: C_23  and  C_24
REMARK                            x       y       z     vdW  Elec       q    Type
REMARK                         _______ _______ _______ _____ _____    ______ ____
ROOT
ATOM      1  C   UNL     1       0.624   9.710  19.626  0.00  0.00    +0.000 A 
ATOM      2  C   UNL     1       1.447   9.182  18.683  0.00  0.00    +0.000 A 
ATOM      3  N   UNL     1       2.166   8.022  18.972  0.00  0.00    +0.000 N 
ATOM      4  C   UNL     1       2.192   7.449  20.238  0.00  0.00    +0.000 A 
ATOM      5  O   UNL     1       2.845   6.451  20.536  0.00  0.00    +0.000 OA
ATOM      6  N   UNL     1       1.404   8.030  21.180  0.00  0.00    +0.000 N 
ATOM      7  C   UNL     1       0.472   8.981  20.924  0.00  0.00    +0.000 A 
ATOM      8  O   UNL     1      -0.441   9.230  21.711  0.00  0.00    +0.000 OA
ATOM      9  H   UNL     1       1.339   7.544  22.062  0.00  0.00    +0.000 HD
ENDROOT
BRANCH   1  10
ATOM     10  N   UNL     1      -0.180  10.836  19.416  0.00  0.00    +0.000 N 
ATOM     11  C   UNL     1       0.305  12.150  19.623  0.00  0.00    +0.000 C 
ATOM     12  O   UNL     1      -0.403  13.132  19.385  0.00  0.00    +0.000 OA
BRANCH  10  13
ATOM     13  C   UNL     1      -1.601  10.648  19.019  0.00  0.00    +0.000 C 
BRANCH  13  14
ATOM     14  C   UNL     1      -1.868  10.880  17.521  0.00  0.00    +0.000 C 
BRANCH  14  16
ATOM     15  C   UNL     1      -2.874   9.855  15.480  0.00  0.00    +0.000 C 
ATOM     16  C   UNL     1      -3.081  10.135  16.966  0.00  0.00    +0.000 C 
ENDBRANCH  14  16
ENDBRANCH  13  14
ENDBRANCH  10  13
BRANCH  11  17
ATOM     17  C   UNL     1       1.765  12.276  20.094  0.00  0.00    +0.000 C 
BRANCH  17  18
ATOM     18  S   UNL     1       2.175  13.874  20.863  0.00  0.00    +0.000 S 
BRANCH  18  19
ATOM     19  C   UNL     1       2.840  14.701  19.484  0.00  0.00    +0.000 A 
ATOM     20  N   UNL     1       3.947  14.375  18.850  0.00  0.00    +0.000 NA
ATOM     21  N   UNL     1       4.088  15.225  17.775  0.00  0.00    +0.000 NA
ATOM     22  C   UNL     1       3.064  16.056  17.780  0.00  0.00    +0.000 A 
ATOM     23  C   UNL     1       2.681  17.112  16.908  0.00  0.00    +0.000 A 
ATOM     24  C   UNL     1       1.563  17.818  17.176  0.00  0.00    +0.000 A 
ATOM     25  C   UNL     1       0.744  17.531  18.343  0.00  0.00    +0.000 A 
ATOM     26  C   UNL     1       1.098  16.525  19.161  0.00  0.00    +0.000 A 
ATOM     27  N   UNL     1       2.247  15.783  18.873  0.00  0.00    +0.000 N 
ENDBRANCH  18  19
ENDBRANCH  17  18
ENDBRANCH  11  17
ENDBRANCH   1  10
BRANCH   2  28
ATOM     28  N   UNL     1       1.622   9.802  17.450  0.00  0.00    +0.000 N 
ATOM     29  H   UNL     1       1.152  10.696  17.370  0.00  0.00    +0.000 HD
ATOM     30  H   UNL     1       1.392   9.189  16.672  0.00  0.00    +0.000 HD
ENDBRANCH   2  28
BRANCH   3  31
ATOM     31  C   UNL     1       3.005   7.386  17.948  0.00  0.00    +0.000 C 
BRANCH  31  32
ATOM     32  C   UNL     1       2.884   5.872  17.875  0.00  0.00    +0.000 A 
ATOM     33  C   UNL     1       1.609   5.284  17.824  0.00  0.00    +0.000 A 
ATOM     34  C   UNL     1       1.457   3.914  17.592  0.00  0.00    +0.000 A 
ATOM     35  C   UNL     1       2.578   3.108  17.409  0.00  0.00    +0.000 A 
ATOM     36  C   UNL     1       3.851   3.669  17.479  0.00  0.00    +0.000 A 
ATOM     37  C   UNL     1       4.003   5.040  17.708  0.00  0.00    +0.000 A 
ENDBRANCH  31  32
ENDBRANCH   3  31
TORSDOF 10
ENDMDL
MODEL 6
REMARK VINA RESULT:      -6.6      2.466      7.269
REMARK  Name = 
REMARK  11 active torsions:
REMARK  status: ('A' for Active; 'I' for Inactive)
REMARK    1  A    between atoms: C_1  and  C_2
REMARK    2  A    between atoms: C_2  and  C_3
REMARK    3  A    between atoms: C_3  and  C_4
REMARK    4  A    between atoms: C_4  and  N_5
REMARK    5  A    between atoms: N_5  and  C_19
REMARK    6  A    between atoms: C_6  and  C_8
REMARK    7  A    between atoms: C_8  and  S_9
REMARK    8  A    between atoms: S_9  and  C_10
REMARK    9  A    between atoms: C_20  and  N_21
REMARK   10  A    between atoms: N_22  and  C_23
REMARK   11  A    between atoms: C_23  and  C_24
REMARK                            x       y       z     vdW  Elec       q    Type
REMARK                         _______ _______ _______ _____ _____    ______ ____
ROOT
ATOM      1  C   UNL     1       4.984   5.049  18.708  0.00  0.00    +0.000 A 
ATOM      2  C   UNL     1       4.705   5.360  17.415  0.00  0.00    +0.000 A 
ATOM      3  N   UNL     1       5.680   5.977  16.633  0.00  0.00    +0.000 N 
ATOM      4  C   UNL     1       6.891   6.422  17.152  0.00  0.00    +0.000 A 
ATOM      5  O   UNL     1       7.755   7.004  16.499  0.00  0.00    +0.000 OA
ATOM      6  N   UNL     1       7.123   6.149  18.462  0.00  0.00    +0.000 N 
ATOM      7  C   UNL     1       6.361   5.324  19.223  0.00  0.00    +0.000 A 
ATOM      8  O   UNL     1       6.779   4.834  20.272  0.00  0.00    +0.000 OA
ATOM      9  H   UNL     1       8.046   6.373  18.803  0.00  0.00    +0.000 HD
ENDROOT
BRANCH   1  10
ATOM     10  N   UNL     1       4.095   4.382  19.558  0.00  0.00    +0.000 N 
ATOM     11  C   UNL     1       3.152   5.080  20.351  0.00  0.00    +0.000 C 
ATOM     12  O   UNL     1       2.343   4.471  21.057  0.00  0.00    +0.000 OA
BRANCH  10  13
ATOM     13  C   UNL     1       4.179   2.901  19.676  0.00  0.00    +0.000 C 
BRANCH  13  14
ATOM     14  C   UNL     1       3.361   2.142  18.616  0.00  0.00    +0.000 C 
BRANCH  14  16
ATOM     15  C   UNL     1       0.928   2.692  18.536  0.00  0.00    +0.000 C 
ATOM     16  C   UNL     1       1.968   1.712  19.073  0.00  0.00    +0.000 C 
ENDBRANCH  14  16
ENDBRANCH  13  14
ENDBRANCH  10  13
BRANCH  11  17
ATOM     17  C   UNL     1       3.156   6.614  20.232  0.00  0.00    +0.000 C 
BRANCH  17  18
ATOM     18  S   UNL     1       1.708   7.311  19.376  0.00  0.00    +0.000 S 
BRANCH  18  19
ATOM     19  C   UNL     1       1.247   8.530  20.528  0.00  0.00    +0.000 A 
ATOM     20  N   UNL     1       1.566   8.545  21.805  0.00  0.00    +0.000 NA
ATOM     21  N   UNL     1       1.075   9.709  22.355  0.00  0.00    +0.000 NA
ATOM     22  C   UNL     1       0.461  10.378  21.398  0.00  0.00    +0.000 A 
ATOM     23  C   UNL     1      -0.200  11.637  21.381  0.00  0.00    +0.000 A 
ATOM     24  C   UNL     1      -0.762  12.073  20.235  0.00  0.00    +0.000 A 
ATOM     25  C   UNL     1      -0.717  11.281  19.017  0.00  0.00    +0.000 A 
ATOM     26  C   UNL     1      -0.081  10.096  19.028  0.00  0.00    +0.000 A 
ATOM     27  N   UNL     1       0.516   9.654  20.212  0.00  0.00    +0.000 N 
ENDBRANCH  18  19
ENDBRANCH  17  18
ENDBRANCH  11  17
ENDBRANCH   1  10
BRANCH   2  28
ATOM     28  N   UNL     1       3.448   5.118  16.871  0.00  0.00    +0.000 N 
ATOM     29  H   UNL     1       2.846   5.933  16.849  0.00  0.00    +0.000 HD
ATOM     30  H   UNL     1       2.985   4.324  17.307  0.00  0.00    +0.000 HD
ENDBRANCH   2  28
BRANCH   3  31
ATOM     31  C   UNL     1       5.435   6.257  15.212  0.00  0.00    +0.000 C 
BRANCH  31  32
ATOM     32  C   UNL     1       5.942   5.190  14.255  0.00  0.00    +0.000 A 
ATOM     33  C   UNL     1       5.078   4.157  13.854  0.00  0.00    +0.000 A 
ATOM     34  C   UNL     1       5.451   3.255  12.855  0.00  0.00    +0.000 A 
ATOM     35  C   UNL     1       6.696   3.369  12.240  0.00  0.00    +0.000 A 
ATOM     36  C   UNL     1       7.575   4.372  12.640  0.00  0.00    +0.000 A 
ATOM     37  C   UNL     1       7.200   5.276  13.638  0.00  0.00    +0.000 A 
ENDBRANCH  31  32
ENDBRANCH   3  31
TORSDOF 10
ENDMDL
MODEL 7
REMARK VINA RESULT:      -6.6      5.472     10.076
REMARK  Name = 
REMARK  11 active torsions:
REMARK  status: ('A' for Active; 'I' for Inactive)
REMARK    1  A    between atoms: C_1  and  C_2
REMARK    2  A    between atoms: C_2  and  C_3
REMARK    3  A    between atoms: C_3  and  C_4
REMARK    4  A    between atoms: C_4  and  N_5
REMARK    5  A    between atoms: N_5  and  C_19
REMARK    6  A    between atoms: C_6  and  C_8
REMARK    7  A    between atoms: C_8  and  S_9
REMARK    8  A    between atoms: S_9  and  C_10
REMARK    9  A    between atoms: C_20  and  N_21
REMARK   10  A    between atoms: N_22  and  C_23
REMARK   11  A    between atoms: C_23  and  C_24
REMARK                            x       y       z     vdW  Elec       q    Type
REMARK                         _______ _______ _______ _____ _____    ______ ____
ROOT
ATOM      1  C   UNL     1      -0.807  12.273  20.336  0.00  0.00    +0.000 A 
ATOM      2  C   UNL     1       0.350  11.769  19.832  0.00  0.00    +0.000 A 
ATOM      3  N   UNL     1       0.301  10.899  18.743  0.00  0.00    +0.000 N 
ATOM      4  C   UNL     1      -0.892  10.405  18.227  0.00  0.00    +0.000 A 
ATOM      5  O   UNL     1      -0.968   9.608  17.294  0.00  0.00    +0.000 OA
ATOM      6  N   UNL     1      -2.035  10.881  18.786  0.00  0.00    +0.000 N 
ATOM      7  C   UNL     1      -2.091  11.922  19.654  0.00  0.00    +0.000 A 
ATOM      8  O   UNL     1      -3.135  12.539  19.866  0.00  0.00    +0.000 OA
ATOM      9  H   UNL     1      -2.894  10.607  18.334  0.00  0.00    +0.000 HD
ENDROOT
BRANCH   1  10
ATOM     10  N   UNL     1      -0.862  13.193  21.389  0.00  0.00    +0.000 N 
ATOM     11  C   UNL     1      -0.770  14.588  21.168  0.00  0.00    +0.000 C 
ATOM     12  O   UNL     1      -0.869  15.387  22.103  0.00  0.00    +0.000 OA
BRANCH  10  13
ATOM     13  C   UNL     1      -0.962  12.691  22.786  0.00  0.00    +0.000 C 
BRANCH  13  14
ATOM     14  C   UNL     1      -1.504  11.255  22.896  0.00  0.00    +0.000 C 
BRANCH  14  16
ATOM     15  C   UNL     1      -0.632   8.968  22.404  0.00  0.00    +0.000 C 
ATOM     16  C   UNL     1      -0.460  10.207  23.280  0.00  0.00    +0.000 C 
ENDBRANCH  14  16
ENDBRANCH  13  14
ENDBRANCH  10  13
BRANCH  11  17
ATOM     17  C   UNL     1      -0.604  15.042  19.706  0.00  0.00    +0.000 C 
BRANCH  17  18
ATOM     18  S   UNL     1       0.656  16.332  19.453  0.00  0.00    +0.000 S 
BRANCH  18  19
ATOM     19  C   UNL     1       1.979  15.346  18.905  0.00  0.00    +0.000 A 
ATOM     20  N   UNL     1       1.876  14.156  18.352  0.00  0.00    +0.000 NA
ATOM     21  N   UNL     1       3.139  13.741  17.993  0.00  0.00    +0.000 NA
ATOM     22  C   UNL     1       3.989  14.689  18.340  0.00  0.00    +0.000 A 
ATOM     23  C   UNL     1       5.398  14.816  18.192  0.00  0.00    +0.000 A 
ATOM     24  C   UNL     1       6.015  15.917  18.666  0.00  0.00    +0.000 A 
ATOM     25  C   UNL     1       5.276  16.976  19.334  0.00  0.00    +0.000 A 
ATOM     26  C   UNL     1       3.942  16.863  19.462  0.00  0.00    +0.000 A 
ATOM     27  N   UNL     1       3.301  15.730  18.955  0.00  0.00    +0.000 N 
ENDBRANCH  18  19
ENDBRANCH  17  18
ENDBRANCH  11  17
ENDBRANCH   1  10
BRANCH   2  28
ATOM     28  N   UNL     1       1.579  12.067  20.412  0.00  0.00    +0.000 N 
ATOM     29  H   UNL     1       2.127  12.740  19.889  0.00  0.00    +0.000 HD
ATOM     30  H   UNL     1       2.118  11.231  20.624  0.00  0.00    +0.000 HD
ENDBRANCH   2  28
BRANCH   3  31
ATOM     31  C   UNL     1       1.537  10.398  18.129  0.00  0.00    +0.000 C 
BRANCH  31  32
ATOM     32  C   UNL     1       1.965   9.014  18.593  0.00  0.00    +0.000 A 
ATOM     33  C   UNL     1       1.603   8.576  19.878  0.00  0.00    +0.000 A 
ATOM     34  C   UNL     1       1.834   7.258  20.280  0.00  0.00    +0.000 A 
ATOM     35  C   UNL     1       2.433   6.355  19.404  0.00  0.00    +0.000 A 
ATOM     36  C   UNL     1       2.820   6.777  18.135  0.00  0.00    +0.000 A 
ATOM     37  C   UNL     1       2.586   8.096  17.732  0.00  0.00    +0.000 A 
ENDBRANCH  31  32
ENDBRANCH   3  31
TORSDOF 10
ENDMDL
MODEL 8
REMARK VINA RESULT:      -6.6      6.760     10.247
REMARK  Name = 
REMARK  11 active torsions:
REMARK  status: ('A' for Active; 'I' for Inactive)
REMARK    1  A    between atoms: C_1  and  C_2
REMARK    2  A    between atoms: C_2  and  C_3
REMARK    3  A    between atoms: C_3  and  C_4
REMARK    4  A    between atoms: C_4  and  N_5
REMARK    5  A    between atoms: N_5  and  C_19
REMARK    6  A    between atoms: C_6  and  C_8
REMARK    7  A    between atoms: C_8  and  S_9
REMARK    8  A    between atoms: S_9  and  C_10
REMARK    9  A    between atoms: C_20  and  N_21
REMARK   10  A    between atoms: N_22  and  C_23
REMARK   11  A    between atoms: C_23  and  C_24
REMARK                            x       y       z     vdW  Elec       q    Type
REMARK                         _______ _______ _______ _____ _____    ______ ____
ROOT
ATOM      1  C   UNL     1      -0.244  12.334  20.905  0.00  0.00    +0.000 A 
ATOM      2  C   UNL     1       0.467  13.493  20.939  0.00  0.00    +0.000 A 
ATOM      3  N   UNL     1       1.194  13.883  19.814  0.00  0.00    +0.000 N 
ATOM      4  C   UNL     1       1.345  13.071  18.696  0.00  0.00    +0.000 A 
ATOM      5  O   UNL     1       2.010  13.368  17.706  0.00  0.00    +0.000 OA
ATOM      6  N   UNL     1       0.670  11.892  18.711  0.00  0.00    +0.000 N 
ATOM      7  C   UNL     1      -0.269  11.553  19.630  0.00  0.00    +0.000 A 
ATOM      8  O   UNL     1      -1.089  10.659  19.425  0.00  0.00    +0.000 OA
ATOM      9  H   UNL     1       0.692  11.360  17.854  0.00  0.00    +0.000 HD
ENDROOT
BRANCH   1  10
ATOM     10  N   UNL     1      -1.047  11.884  21.958  0.00  0.00    +0.000 N 
ATOM     11  C   UNL     1      -2.370  12.353  22.143  0.00  0.00    +0.000 C 
ATOM     12  O   UNL     1      -3.080  11.907  23.048  0.00  0.00    +0.000 OA
BRANCH  10  13
ATOM     13  C   UNL     1      -0.479  10.928  22.946  0.00  0.00    +0.000 C 
BRANCH  13  14
ATOM     14  C   UNL     1      -0.335   9.490  22.414  0.00  0.00    +0.000 C 
BRANCH  14  16
ATOM     15  C   UNL     1       1.227   8.230  20.930  0.00  0.00    +0.000 C 
ATOM     16  C   UNL     1       1.107   9.020  22.231  0.00  0.00    +0.000 C 
ENDBRANCH  14  16
ENDBRANCH  13  14
ENDBRANCH  10  13
BRANCH  11  17
ATOM     17  C   UNL     1      -2.880  13.389  21.124  0.00  0.00    +0.000 C 
BRANCH  17  18
ATOM     18  S   UNL     1      -4.413  14.239  21.614  0.00  0.00    +0.000 S 
BRANCH  18  19
ATOM     19  C   UNL     1      -5.537  12.919  21.476  0.00  0.00    +0.000 A 
ATOM     20  N   UNL     1      -6.302  12.454  22.441  0.00  0.00    +0.000 NA
ATOM     21  N   UNL     1      -7.098  11.461  21.914  0.00  0.00    +0.000 NA
ATOM     22  C   UNL     1      -6.797  11.339  20.635  0.00  0.00    +0.000 A 
ATOM     23  C   UNL     1      -7.310  10.504  19.604  0.00  0.00    +0.000 A 
ATOM     24  C   UNL     1      -6.787  10.590  18.364  0.00  0.00    +0.000 A 
ATOM     25  C   UNL     1      -5.703  11.509  18.057  0.00  0.00    +0.000 A 
ATOM     26  C   UNL     1      -5.227  12.308  19.027  0.00  0.00    +0.000 A 
ATOM     27  N   UNL     1      -5.781  12.231  20.308  0.00  0.00    +0.000 N 
ENDBRANCH  18  19
ENDBRANCH  17  18
ENDBRANCH  11  17
ENDBRANCH   1  10
BRANCH   2  28
ATOM     28  N   UNL     1       0.520  14.272  22.089  0.00  0.00    +0.000 N 
ATOM     29  H   UNL     1       1.196  13.951  22.772  0.00  0.00    +0.000 HD
ATOM     30  H   UNL     1      -0.397  14.406  22.508  0.00  0.00    +0.000 HD
ENDBRANCH   2  28
BRANCH   3  31
ATOM     31  C   UNL     1       1.909  15.165  19.793  0.00  0.00    +0.000 C 
BRANCH  31  32
ATOM     32  C   UNL     1       1.232  16.261  18.984  0.00  0.00    +0.000 A 
ATOM     33  C   UNL     1       2.005  17.061  18.127  0.00  0.00    +0.000 A 
ATOM     34  C   UNL     1       1.401  17.965  17.249  0.00  0.00    +0.000 A 
ATOM     35  C   UNL     1       0.014  18.085  17.214  0.00  0.00    +0.000 A 
ATOM     36  C   UNL     1      -0.768  17.316  18.073  0.00  0.00    +0.000 A 
ATOM     37  C   UNL     1      -0.163  16.410  18.950  0.00  0.00    +0.000 A 
ENDBRANCH  31  32
ENDBRANCH   3  31
TORSDOF 10
ENDMDL
MODEL 9
REMARK VINA RESULT:      -6.6      6.952      9.902
REMARK  Name = 
REMARK  11 active torsions:
REMARK  status: ('A' for Active; 'I' for Inactive)
REMARK    1  A    between atoms: C_1  and  C_2
REMARK    2  A    between atoms: C_2  and  C_3
REMARK    3  A    between atoms: C_3  and  C_4
REMARK    4  A    between atoms: C_4  and  N_5
REMARK    5  A    between atoms: N_5  and  C_19
REMARK    6  A    between atoms: C_6  and  C_8
REMARK    7  A    between atoms: C_8  and  S_9
REMARK    8  A    between atoms: S_9  and  C_10
REMARK    9  A    between atoms: C_20  and  N_21
REMARK   10  A    between atoms: N_22  and  C_23
REMARK   11  A    between atoms: C_23  and  C_24
REMARK                            x       y       z     vdW  Elec       q    Type
REMARK                         _______ _______ _______ _____ _____    ______ ____
ROOT
ATOM      1  C   UNL     1      -0.696  11.435  18.610  0.00  0.00    +0.000 A 
ATOM      2  C   UNL     1      -1.905  12.054  18.566  0.00  0.00    +0.000 A 
ATOM      3  N   UNL     1      -2.914  11.530  17.758  0.00  0.00    +0.000 N 
ATOM      4  C   UNL     1      -2.702  10.475  16.879  0.00  0.00    +0.000 A 
ATOM      5  O   UNL     1      -3.559  10.015  16.126  0.00  0.00    +0.000 OA
ATOM      6  N   UNL     1      -1.468   9.908  16.901  0.00  0.00    +0.000 N 
ATOM      7  C   UNL     1      -0.519  10.168  17.835  0.00  0.00    +0.000 A 
ATOM      8  O   UNL     1       0.429   9.407  18.031  0.00  0.00    +0.000 OA
ATOM      9  H   UNL     1      -1.355   9.074  16.345  0.00  0.00    +0.000 HD
ENDROOT
BRANCH   1  10
ATOM     10  N   UNL     1       0.361  11.848  19.429  0.00  0.00    +0.000 N 
ATOM     11  C   UNL     1       0.439  11.478  20.793  0.00  0.00    +0.000 C 
ATOM     12  O   UNL     1       1.404  11.812  21.486  0.00  0.00    +0.000 OA
BRANCH  10  13
ATOM     13  C   UNL     1       1.403  12.749  18.866  0.00  0.00    +0.000 C 
BRANCH  13  14
ATOM     14  C   UNL     1       1.471  14.128  19.548  0.00  0.00    +0.000 C 
BRANCH  14  16
ATOM     15  C   UNL     1      -0.030  16.062  19.062  0.00  0.00    +0.000 C 
ATOM     16  C   UNL     1       1.223  15.313  18.615  0.00  0.00    +0.000 C 
ENDBRANCH  14  16
ENDBRANCH  13  14
ENDBRANCH  10  13
BRANCH  11  17
ATOM     17  C   UNL     1      -0.702  10.598  21.332  0.00  0.00    +0.000 C 
BRANCH  17  18
ATOM     18  S   UNL     1      -1.073  10.838  23.098  0.00  0.00    +0.000 S 
BRANCH  18  19
ATOM     19  C   UNL     1      -2.192  12.165  22.984  0.00  0.00    +0.000 A 
ATOM     20  N   UNL     1      -3.505  12.072  23.018  0.00  0.00    +0.000 NA
ATOM     21  N   UNL     1      -4.025  13.346  22.974  0.00  0.00    +0.000 NA
ATOM     22  C   UNL     1      -3.014  14.192  22.910  0.00  0.00    +0.000 A 
ATOM     23  C   UNL     1      -2.953  15.612  22.870  0.00  0.00    +0.000 A 
ATOM     24  C   UNL     1      -1.751  16.219  22.790  0.00  0.00    +0.000 A 
ATOM     25  C   UNL     1      -0.515  15.456  22.732  0.00  0.00    +0.000 A 
ATOM     26  C   UNL     1      -0.571  14.113  22.783  0.00  0.00    +0.000 A 
ATOM     27  N   UNL     1      -1.816  13.486  22.884  0.00  0.00    +0.000 N 
ENDBRANCH  18  19
ENDBRANCH  17  18
ENDBRANCH  11  17
ENDBRANCH   1  10
BRANCH   2  28
ATOM     28  N   UNL     1      -2.139  13.228  19.274  0.00  0.00    +0.000 N 
ATOM     29  H   UNL     1      -2.566  13.963  18.721  0.00  0.00    +0.000 HD
ATOM     30  H   UNL     1      -1.309  13.560  19.758  0.00  0.00    +0.000 HD
ENDBRANCH   2  28
BRANCH   3  31
ATOM     31  C   UNL     1      -4.253  12.133  17.747  0.00  0.00    +0.000 C 
BRANCH  31  32
ATOM     32  C   UNL     1      -5.229  11.539  18.750  0.00  0.00    +0.000 A 
ATOM     33  C   UNL     1      -5.492  12.227  19.946  0.00  0.00    +0.000 A 
ATOM     34  C   UNL     1      -6.500  11.799  20.815  0.00  0.00    +0.000 A 
ATOM     35  C   UNL     1      -7.259  10.674  20.504  0.00  0.00    +0.000 A 
ATOM     36  C   UNL     1      -6.997   9.965  19.334  0.00  0.00    +0.000 A 
ATOM     37  C   UNL     1      -5.992  10.395  18.464  0.00  0.00    +0.000 A 
ENDBRANCH  31  32
ENDBRANCH   3  31
TORSDOF 10
ENDMDL
