MODEL 1
REMARK VINA RESULT:      -6.9      0.000      0.000
REMARK  Name = 
REMARK  8 active torsions:
REMARK  status: ('A' for Active; 'I' for Inactive)
REMARK    1  A    between atoms: C_1  and  S_2
REMARK    2  A    between atoms: S_2  and  C_3
REMARK    3  A    between atoms: C_9  and  C_10
REMARK    4  A    between atoms: C_10  and  C_11
REMARK    5  A    between atoms: C_11  and  N_12
REMARK    6  A    between atoms: C_13  and  C_14
REMARK    7  A    between atoms: N_15  and  C_16
REMARK    8  A    between atoms: C_16  and  C_17
REMARK                            x       y       z     vdW  Elec       q    Type
REMARK                         _______ _______ _______ _____ _____    ______ ____
ROOT
ATOM      1  C   UNL     1       2.414   7.859  17.931  0.00  0.00    +0.000 A 
ATOM      2  C   UNL     1       3.723   7.906  17.455  0.00  0.00    +0.000 A 
ATOM      3  C   UNL     1       4.489   6.742  17.313  0.00  0.00    +0.000 A 
ATOM      4  C   UNL     1       3.899   5.514  17.658  0.00  0.00    +0.000 A 
ATOM      5  C   UNL     1       2.579   5.432  18.100  0.00  0.00    +0.000 A 
ATOM      6  C   UNL     1       1.831   6.622  18.233  0.00  0.00    +0.000 A 
ATOM      7  C   UNL     1       2.276   4.053  18.327  0.00  0.00    +0.000 A 
ATOM      8  C   UNL     1       3.420   3.323  18.030  0.00  0.00    +0.000 A 
ATOM      9  C   UNL     1       3.654   1.851  18.077  0.00  0.00    +0.000 C 
ATOM     10  N   UNL     1       4.404   4.223  17.658  0.00  0.00    +0.000 N 
ENDROOT
BRANCH   1  12
ATOM     11  C   UNL     1       1.064   9.277  19.866  0.00  0.00    +0.000 C 
ATOM     12  S   UNL     1       1.487   9.375  18.104  0.00  0.00    +0.000 S 
ENDBRANCH   1  12
BRANCH   7  13
ATOM     13  C   UNL     1       0.952   3.530  18.809  0.00  0.00    +0.000 C 
BRANCH  13  14
ATOM     14  C   UNL     1       0.722   3.799  20.301  0.00  0.00    +0.000 C 
BRANCH  14  15
ATOM     15  N   UNL     1       1.107   2.645  21.117  0.00  0.00    +0.000 NA
ATOM     16  H   UNL     1       0.657   1.805  20.755  0.00  0.00    +0.000 HD
ATOM     17  H   UNL     1       0.754   2.773  22.063  0.00  0.00    +0.000 HD
ENDBRANCH  14  15
ENDBRANCH  13  14
ENDBRANCH   7  13
BRANCH  10  18
ATOM     18  C   UNL     1       5.803   3.887  17.386  0.00  0.00    +0.000 C 
BRANCH  18  19
ATOM     19  C   UNL     1       6.281   4.190  15.981  0.00  0.00    +0.000 A 
ATOM     20  C   UNL     1       7.398   4.985  15.690  0.00  0.00    +0.000 A 
ATOM     21  C   UNL     1       7.753   5.265  14.366  0.00  0.00    +0.000 A 
ATOM     22  C   UNL     1       7.010   4.737  13.308  0.00  0.00    +0.000 A 
ATOM     23 CL   UNL     1       7.486   5.155  11.702  0.00  0.00    +0.000 Cl
ATOM     24  C   UNL     1       5.918   3.910  13.577  0.00  0.00    +0.000 A 
ATOM     25 CL   UNL     1       4.960   3.200  12.327  0.00  0.00    +0.000 Cl
ATOM     26  C   UNL     1       5.560   3.639  14.904  0.00  0.00    +0.000 A 
ENDBRANCH  18  19
ENDBRANCH  10  18
TORSDOF 6
ENDMDL
MODEL 2
REMARK VINA RESULT:      -6.9      4.106      6.626
REMARK  Name = 
REMARK  8 active torsions:
REMARK  status: ('A' for Active; 'I' for Inactive)
REMARK    1  A    between atoms: C_1  and  S_2
REMARK    2  A    between atoms: S_2  and  C_3
REMARK    3  A    between atoms: C_9  and  C_10
REMARK    4  A    between atoms: C_10  and  C_11
REMARK    5  A    between atoms: C_11  and  N_12
REMARK    6  A    between atoms: C_13  and  C_14
REMARK    7  A    between atoms: N_15  and  C_16
REMARK    8  A    between atoms: C_16  and  C_17
REMARK                            x       y       z     vdW  Elec       q    Type
REMARK                         _______ _______ _______ _____ _____    ______ ____
ROOT
ATOM      1  C   UNL     1       5.794   5.242  16.066  0.00  0.00    +0.000 A 
ATOM      2  C   UNL     1       5.971   6.388  16.839  0.00  0.00    +0.000 A 
ATOM      3  C   UNL     1       5.135   6.669  17.927  0.00  0.00    +0.000 A 
ATOM      4  C   UNL     1       4.110   5.758  18.229  0.00  0.00    +0.000 A 
ATOM      5  C   UNL     1       3.933   4.583  17.499  0.00  0.00    +0.000 A 
ATOM      6  C   UNL     1       4.791   4.325  16.407  0.00  0.00    +0.000 A 
ATOM      7  C   UNL     1       2.841   3.864  18.079  0.00  0.00    +0.000 A 
ATOM      8  C   UNL     1       2.368   4.620  19.144  0.00  0.00    +0.000 A 
ATOM      9  C   UNL     1       1.258   4.334  20.098  0.00  0.00    +0.000 C 
ATOM     10  N   UNL     1       3.124   5.777  19.202  0.00  0.00    +0.000 N 
ENDROOT
BRANCH   1  12
ATOM     11  C   UNL     1       5.852   3.782  13.733  0.00  0.00    +0.000 C 
ATOM     12  S   UNL     1       6.880   4.938  14.683  0.00  0.00    +0.000 S 
ENDBRANCH   1  12
BRANCH   7  13
ATOM     13  C   UNL     1       2.325   2.540  17.589  0.00  0.00    +0.000 C 
BRANCH  13  14
ATOM     14  C   UNL     1       2.674   1.387  18.537  0.00  0.00    +0.000 C 
BRANCH  14  15
ATOM     15  N   UNL     1       4.006   0.849  18.255  0.00  0.00    +0.000 NA
ATOM     16  H   UNL     1       4.709   1.568  18.426  0.00  0.00    +0.000 HD
ATOM     17  H   UNL     1       4.070   0.616  17.266  0.00  0.00    +0.000 HD
ENDBRANCH  14  15
ENDBRANCH  13  14
ENDBRANCH   7  13
BRANCH  10  18
ATOM     18  C   UNL     1       2.875   6.909  20.099  0.00  0.00    +0.000 C 
BRANCH  18  19
ATOM     19  C   UNL     1       1.960   7.983  19.548  0.00  0.00    +0.000 A 
ATOM     20  C   UNL     1       1.858   8.298  18.186  0.00  0.00    +0.000 A 
ATOM     21  C   UNL     1       1.027   9.337  17.752  0.00  0.00    +0.000 A 
ATOM     22  C   UNL     1       0.268  10.067  18.670  0.00  0.00    +0.000 A 
ATOM     23 CL   UNL     1      -0.705  11.358  18.065  0.00  0.00    +0.000 Cl
ATOM     24  C   UNL     1       0.327   9.741  20.026  0.00  0.00    +0.000 A 
ATOM     25 CL   UNL     1      -0.595  10.579  21.224  0.00  0.00    +0.000 Cl
ATOM     26  C   UNL     1       1.165   8.705  20.458  0.00  0.00    +0.000 A 
ENDBRANCH  18  19
ENDBRANCH  10  18
TORSDOF 6
ENDMDL
MODEL 3
REMARK VINA RESULT:      -6.7      1.234      1.843
REMARK  Name = 
REMARK  8 active torsions:
REMARK  status: ('A' for Active; 'I' for Inactive)
REMARK    1  A    between atoms: C_1  and  S_2
REMARK    2  A    between atoms: S_2  and  C_3
REMARK    3  A    between atoms: C_9  and  C_10
REMARK    4  A    between atoms: C_10  and  C_11
REMARK    5  A    between atoms: C_11  and  N_12
REMARK    6  A    between atoms: C_13  and  C_14
REMARK    7  A    between atoms: N_15  and  C_16
REMARK    8  A    between atoms: C_16  and  C_17
REMARK                            x       y       z     vdW  Elec       q    Type
REMARK                         _______ _______ _______ _____ _____    ______ ____
ROOT
ATOM      1  C   UNL     1       2.175   8.300  18.354  0.00  0.00    +0.000 A 
ATOM      2  C   UNL     1       3.256   8.337  17.475  0.00  0.00    +0.000 A 
ATOM      3  C   UNL     1       4.192   7.296  17.428  0.00  0.00    +0.000 A 
ATOM      4  C   UNL     1       4.011   6.201  18.290  0.00  0.00    +0.000 A 
ATOM      5  C   UNL     1       2.918   6.119  19.152  0.00  0.00    +0.000 A 
ATOM      6  C   UNL     1       1.989   7.183  19.177  0.00  0.00    +0.000 A 
ATOM      7  C   UNL     1       3.005   4.877  19.857  0.00  0.00    +0.000 A 
ATOM      8  C   UNL     1       4.155   4.233  19.419  0.00  0.00    +0.000 A 
ATOM      9  C   UNL     1       4.715   2.907  19.809  0.00  0.00    +0.000 C 
ATOM     10  N   UNL     1       4.770   5.060  18.495  0.00  0.00    +0.000 N 
ENDROOT
BRANCH   1  12
ATOM     11  C   UNL     1       0.584   9.659  20.142  0.00  0.00    +0.000 C 
ATOM     12  S   UNL     1       1.018   9.659  18.380  0.00  0.00    +0.000 S 
ENDBRANCH   1  12
BRANCH   7  13
ATOM     13  C   UNL     1       2.017   4.398  20.884  0.00  0.00    +0.000 C 
BRANCH  13  14
ATOM     14  C   UNL     1       1.059   3.338  20.327  0.00  0.00    +0.000 C 
BRANCH  14  15
ATOM     15  N   UNL     1       1.078   3.318  18.863  0.00  0.00    +0.000 NA
ATOM     16  H   UNL     1       1.310   2.381  18.537  0.00  0.00    +0.000 HD
ATOM     17  H   UNL     1       1.821   3.929  18.530  0.00  0.00    +0.000 HD
ENDBRANCH  14  15
ENDBRANCH  13  14
ENDBRANCH   7  13
BRANCH  10  18
ATOM     18  C   UNL     1       6.078   4.821  17.880  0.00  0.00    +0.000 C 
BRANCH  18  19
ATOM     19  C   UNL     1       6.049   4.503  16.400  0.00  0.00    +0.000 A 
ATOM     20  C   UNL     1       5.116   3.643  15.803  0.00  0.00    +0.000 A 
ATOM     21  C   UNL     1       5.179   3.356  14.436  0.00  0.00    +0.000 A 
ATOM     22  C   UNL     1       6.162   3.940  13.634  0.00  0.00    +0.000 A 
ATOM     23 CL   UNL     1       6.200   3.510  11.963  0.00  0.00    +0.000 Cl
ATOM     24  C   UNL     1       7.075   4.831  14.202  0.00  0.00    +0.000 A 
ATOM     25 CL   UNL     1       8.308   5.613  13.278  0.00  0.00    +0.000 Cl
ATOM     26  C   UNL     1       7.014   5.110  15.574  0.00  0.00    +0.000 A 
ENDBRANCH  18  19
ENDBRANCH  10  18
TORSDOF 6
ENDMDL
MODEL 4
REMARK VINA RESULT:      -6.5      1.194      1.770
REMARK  Name = 
REMARK  8 active torsions:
REMARK  status: ('A' for Active; 'I' for Inactive)
REMARK    1  A    between atoms: C_1  and  S_2
REMARK    2  A    between atoms: S_2  and  C_3
REMARK    3  A    between atoms: C_9  and  C_10
REMARK    4  A    between atoms: C_10  and  C_11
REMARK    5  A    between atoms: C_11  and  N_12
REMARK    6  A    between atoms: C_13  and  C_14
REMARK    7  A    between atoms: N_15  and  C_16
REMARK    8  A    between atoms: C_16  and  C_17
REMARK                            x       y       z     vdW  Elec       q    Type
REMARK                         _______ _______ _______ _____ _____    ______ ____
ROOT
ATOM      1  C   UNL     1       2.146   8.237  18.279  0.00  0.00    +0.000 A 
ATOM      2  C   UNL     1       3.303   8.379  17.516  0.00  0.00    +0.000 A 
ATOM      3  C   UNL     1       4.235   7.340  17.406  0.00  0.00    +0.000 A 
ATOM      4  C   UNL     1       3.971   6.137  18.083  0.00  0.00    +0.000 A 
ATOM      5  C   UNL     1       2.803   5.952  18.822  0.00  0.00    +0.000 A 
ATOM      6  C   UNL     1       1.881   7.018  18.915  0.00  0.00    +0.000 A 
ATOM      7  C   UNL     1       2.820   4.622  19.347  0.00  0.00    +0.000 A 
ATOM      8  C   UNL     1       4.003   4.027  18.927  0.00  0.00    +0.000 A 
ATOM      9  C   UNL     1       4.520   2.650  19.174  0.00  0.00    +0.000 C 
ATOM     10  N   UNL     1       4.704   4.966  18.191  0.00  0.00    +0.000 N 
ENDROOT
BRANCH   1  12
ATOM     11  C   UNL     1       2.125  10.981  18.067  0.00  0.00    +0.000 C 
ATOM     12  S   UNL     1       0.997   9.599  18.394  0.00  0.00    +0.000 S 
ENDBRANCH   1  12
BRANCH   7  13
ATOM     13  C   UNL     1       1.741   4.020  20.202  0.00  0.00    +0.000 C 
BRANCH  13  14
ATOM     14  C   UNL     1       2.222   3.710  21.624  0.00  0.00    +0.000 C 
BRANCH  14  15
ATOM     15  N   UNL     1       1.542   2.535  22.173  0.00  0.00    +0.000 NA
ATOM     16  H   UNL     1       2.205   1.764  22.256  0.00  0.00    +0.000 HD
ATOM     17  H   UNL     1       0.826   2.227  21.518  0.00  0.00    +0.000 HD
ENDBRANCH  14  15
ENDBRANCH  13  14
ENDBRANCH   7  13
BRANCH  10  18
ATOM     18  C   UNL     1       6.062   4.795  17.669  0.00  0.00    +0.000 C 
BRANCH  18  19
ATOM     19  C   UNL     1       6.156   4.546  16.178  0.00  0.00    +0.000 A 
ATOM     20  C   UNL     1       5.260   3.739  15.463  0.00  0.00    +0.000 A 
ATOM     21  C   UNL     1       5.436   3.513  14.093  0.00  0.00    +0.000 A 
ATOM     22  C   UNL     1       6.498   4.108  13.409  0.00  0.00    +0.000 A 
ATOM     23 CL   UNL     1       6.673   3.754  11.728  0.00  0.00    +0.000 Cl
ATOM     24  C   UNL     1       7.377   4.947  14.096  0.00  0.00    +0.000 A 
ATOM     25 CL   UNL     1       8.704   5.739  13.321  0.00  0.00    +0.000 Cl
ATOM     26  C   UNL     1       7.203   5.165  15.469  0.00  0.00    +0.000 A 
ENDBRANCH  18  19
ENDBRANCH  10  18
TORSDOF 6
ENDMDL
MODEL 5
REMARK VINA RESULT:      -6.4      3.140      3.564
REMARK  Name = 
REMARK  8 active torsions:
REMARK  status: ('A' for Active; 'I' for Inactive)
REMARK    1  A    between atoms: C_1  and  S_2
REMARK    2  A    between atoms: S_2  and  C_3
REMARK    3  A    between atoms: C_9  and  C_10
REMARK    4  A    between atoms: C_10  and  C_11
REMARK    5  A    between atoms: C_11  and  N_12
REMARK    6  A    between atoms: C_13  and  C_14
REMARK    7  A    between atoms: N_15  and  C_16
REMARK    8  A    between atoms: C_16  and  C_17
REMARK                            x       y       z     vdW  Elec       q    Type
REMARK                         _______ _______ _______ _____ _____    ______ ____
ROOT
ATOM      1  C   UNL     1       1.339   7.326  20.484  0.00  0.00    +0.000 A 
ATOM      2  C   UNL     1       2.174   7.836  19.491  0.00  0.00    +0.000 A 
ATOM      3  C   UNL     1       2.844   6.989  18.598  0.00  0.00    +0.000 A 
ATOM      4  C   UNL     1       2.648   5.604  18.723  0.00  0.00    +0.000 A 
ATOM      5  C   UNL     1       1.788   5.067  19.682  0.00  0.00    +0.000 A 
ATOM      6  C   UNL     1       1.125   5.945  20.568  0.00  0.00    +0.000 A 
ATOM      7  C   UNL     1       1.782   3.646  19.522  0.00  0.00    +0.000 A 
ATOM      8  C   UNL     1       2.646   3.344  18.477  0.00  0.00    +0.000 A 
ATOM      9  C   UNL     1       3.000   2.023  17.883  0.00  0.00    +0.000 C 
ATOM     10  N   UNL     1       3.187   4.535  18.026  0.00  0.00    +0.000 N 
ENDROOT
BRANCH   1  12
ATOM     11  C   UNL     1      -0.017   9.721  20.423  0.00  0.00    +0.000 C 
ATOM     12  S   UNL     1       0.518   8.450  21.602  0.00  0.00    +0.000 S 
ENDBRANCH   1  12
BRANCH   7  13
ATOM     13  C   UNL     1       0.980   2.689  20.359  0.00  0.00    +0.000 C 
BRANCH  13  14
ATOM     14  C   UNL     1       1.461   2.637  21.814  0.00  0.00    +0.000 C 
BRANCH  14  15
ATOM     15  N   UNL     1       2.905   2.410  21.891  0.00  0.00    +0.000 NA
ATOM     16  H   UNL     1       3.116   1.809  22.688  0.00  0.00    +0.000 HD
ATOM     17  H   UNL     1       3.374   3.296  22.070  0.00  0.00    +0.000 HD
ENDBRANCH  14  15
ENDBRANCH  13  14
ENDBRANCH   7  13
BRANCH  10  18
ATOM     18  C   UNL     1       4.243   4.659  17.017  0.00  0.00    +0.000 C 
BRANCH  18  19
ATOM     19  C   UNL     1       5.359   5.622  17.364  0.00  0.00    +0.000 A 
ATOM     20  C   UNL     1       5.571   6.842  16.706  0.00  0.00    +0.000 A 
ATOM     21  C   UNL     1       6.653   7.661  17.047  0.00  0.00    +0.000 A 
ATOM     22  C   UNL     1       7.531   7.286  18.065  0.00  0.00    +0.000 A 
ATOM     23 CL   UNL     1       8.864   8.328  18.405  0.00  0.00    +0.000 Cl
ATOM     24  C   UNL     1       7.313   6.094  18.759  0.00  0.00    +0.000 A 
ATOM     25 CL   UNL     1       8.339   5.567  20.046  0.00  0.00    +0.000 Cl
ATOM     26  C   UNL     1       6.233   5.272  18.411  0.00  0.00    +0.000 A 
ENDBRANCH  18  19
ENDBRANCH  10  18
TORSDOF 6
ENDMDL
MODEL 6
REMARK VINA RESULT:      -6.3      5.155      8.426
REMARK  Name = 
REMARK  8 active torsions:
REMARK  status: ('A' for Active; 'I' for Inactive)
REMARK    1  A    between atoms: C_1  and  S_2
REMARK    2  A    between atoms: S_2  and  C_3
REMARK    3  A    between atoms: C_9  and  C_10
REMARK    4  A    between atoms: C_10  and  C_11
REMARK    5  A    between atoms: C_11  and  N_12
REMARK    6  A    between atoms: C_13  and  C_14
REMARK    7  A    between atoms: N_15  and  C_16
REMARK    8  A    between atoms: C_16  and  C_17
REMARK                            x       y       z     vdW  Elec       q    Type
REMARK                         _______ _______ _______ _____ _____    ______ ____
ROOT
ATOM      1  C   UNL     1      -3.792  11.146  18.092  0.00  0.00    +0.000 A 
ATOM      2  C   UNL     1      -3.039  10.155  17.464  0.00  0.00    +0.000 A 
ATOM      3  C   UNL     1      -1.659  10.046  17.675  0.00  0.00    +0.000 A 
ATOM      4  C   UNL     1      -1.046  10.961  18.547  0.00  0.00    +0.000 A 
ATOM      5  C   UNL     1      -1.780  11.938  19.219  0.00  0.00    +0.000 A 
ATOM      6  C   UNL     1      -3.171  12.024  18.988  0.00  0.00    +0.000 A 
ATOM      7  C   UNL     1      -0.877  12.674  20.049  0.00  0.00    +0.000 A 
ATOM      8  C   UNL     1       0.391  12.138  19.857  0.00  0.00    +0.000 A 
ATOM      9  C   UNL     1       1.691  12.514  20.483  0.00  0.00    +0.000 C 
ATOM     10  N   UNL     1       0.278  11.125  18.921  0.00  0.00    +0.000 N 
ENDROOT
BRANCH   1  12
ATOM     11  C   UNL     1      -6.077  12.109  19.285  0.00  0.00    +0.000 C 
ATOM     12  S   UNL     1      -5.547  11.247  17.779  0.00  0.00    +0.000 S 
ENDBRANCH   1  12
BRANCH   7  13
ATOM     13  C   UNL     1      -1.266  13.818  20.943  0.00  0.00    +0.000 C 
BRANCH  13  14
ATOM     14  C   UNL     1      -1.697  13.352  22.339  0.00  0.00    +0.000 C 
BRANCH  14  15
ATOM     15  N   UNL     1      -0.565  13.328  23.267  0.00  0.00    +0.000 NA
ATOM     16  H   UNL     1      -0.524  14.208  23.780  0.00  0.00    +0.000 HD
ATOM     17  H   UNL     1       0.302  13.267  22.735  0.00  0.00    +0.000 HD
ENDBRANCH  14  15
ENDBRANCH  13  14
ENDBRANCH   7  13
BRANCH  10  18
ATOM     18  C   UNL     1       1.396  10.382  18.336  0.00  0.00    +0.000 C 
BRANCH  18  19
ATOM     19  C   UNL     1       1.643   9.010  18.928  0.00  0.00    +0.000 A 
ATOM     20  C   UNL     1       1.260   8.638  20.224  0.00  0.00    +0.000 A 
ATOM     21  C   UNL     1       1.564   7.368  20.725  0.00  0.00    +0.000 A 
ATOM     22  C   UNL     1       2.239   6.438  19.931  0.00  0.00    +0.000 A 
ATOM     23 CL   UNL     1       2.613   4.903  20.628  0.00  0.00    +0.000 Cl
ATOM     24  C   UNL     1       2.593   6.775  18.623  0.00  0.00    +0.000 A 
ATOM     25 CL   UNL     1       3.409   5.677  17.568  0.00  0.00    +0.000 Cl
ATOM     26  C   UNL     1       2.294   8.051  18.128  0.00  0.00    +0.000 A 
ENDBRANCH  18  19
ENDBRANCH  10  18
TORSDOF 6
ENDMDL
MODEL 7
REMARK VINA RESULT:      -6.2      4.284      6.942
REMARK  Name = 
REMARK  8 active torsions:
REMARK  status: ('A' for Active; 'I' for Inactive)
REMARK    1  A    between atoms: C_1  and  S_2
REMARK    2  A    between atoms: S_2  and  C_3
REMARK    3  A    between atoms: C_9  and  C_10
REMARK    4  A    between atoms: C_10  and  C_11
REMARK    5  A    between atoms: C_11  and  N_12
REMARK    6  A    between atoms: C_13  and  C_14
REMARK    7  A    between atoms: N_15  and  C_16
REMARK    8  A    between atoms: C_16  and  C_17
REMARK                            x       y       z     vdW  Elec       q    Type
REMARK                         _______ _______ _______ _____ _____    ______ ____
ROOT
ATOM      1  C   UNL     1      -0.943  10.762  22.411  0.00  0.00    +0.000 A 
ATOM      2  C   UNL     1      -0.056   9.925  23.084  0.00  0.00    +0.000 A 
ATOM      3  C   UNL     1       0.873   9.139  22.390  0.00  0.00    +0.000 A 
ATOM      4  C   UNL     1       0.895   9.221  20.988  0.00  0.00    +0.000 A 
ATOM      5  C   UNL     1       0.046  10.078  20.289  0.00  0.00    +0.000 A 
ATOM      6  C   UNL     1      -0.880  10.860  21.015  0.00  0.00    +0.000 A 
ATOM      7  C   UNL     1       0.343   9.953  18.895  0.00  0.00    +0.000 A 
ATOM      8  C   UNL     1       1.358   9.014  18.772  0.00  0.00    +0.000 A 
ATOM      9  C   UNL     1       2.056   8.516  17.551  0.00  0.00    +0.000 C 
ATOM     10  N   UNL     1       1.659   8.556  20.043  0.00  0.00    +0.000 N 
ENDROOT
BRANCH   1  12
ATOM     11  C   UNL     1      -1.329  13.365  23.219  0.00  0.00    +0.000 C 
ATOM     12  S   UNL     1      -2.114  11.734  23.344  0.00  0.00    +0.000 S 
ENDBRANCH   1  12
BRANCH   7  13
ATOM     13  C   UNL     1      -0.348  10.710  17.796  0.00  0.00    +0.000 C 
BRANCH  13  14
ATOM     14  C   UNL     1      -1.641  10.027  17.335  0.00  0.00    +0.000 C 
BRANCH  14  15
ATOM     15  N   UNL     1      -2.244  10.735  16.204  0.00  0.00    +0.000 NA
ATOM     16  H   UNL     1      -2.545  10.061  15.500  0.00  0.00    +0.000 HD
ATOM     17  H   UNL     1      -1.537  11.317  15.758  0.00  0.00    +0.000 HD
ENDBRANCH  14  15
ENDBRANCH  13  14
ENDBRANCH   7  13
BRANCH  10  18
ATOM     18  C   UNL     1       2.586   7.464  20.355  0.00  0.00    +0.000 C 
BRANCH  18  19
ATOM     19  C   UNL     1       2.109   6.080  19.967  0.00  0.00    +0.000 A 
ATOM     20  C   UNL     1       1.159   5.349  20.694  0.00  0.00    +0.000 A 
ATOM     21  C   UNL     1       0.801   4.054  20.305  0.00  0.00    +0.000 A 
ATOM     22  C   UNL     1       1.371   3.473  19.171  0.00  0.00    +0.000 A 
ATOM     23 CL   UNL     1       0.909   1.857  18.774  0.00  0.00    +0.000 Cl
ATOM     24  C   UNL     1       2.290   4.200  18.411  0.00  0.00    +0.000 A 
ATOM     25 CL   UNL     1       3.025   3.564  16.983  0.00  0.00    +0.000 Cl
ATOM     26  C   UNL     1       2.652   5.494  18.808  0.00  0.00    +0.000 A 
ENDBRANCH  18  19
ENDBRANCH  10  18
TORSDOF 6
ENDMDL
MODEL 8
REMARK VINA RESULT:      -6.2      4.627      7.568
REMARK  Name = 
REMARK  8 active torsions:
REMARK  status: ('A' for Active; 'I' for Inactive)
REMARK    1  A    between atoms: C_1  and  S_2
REMARK    2  A    between atoms: S_2  and  C_3
REMARK    3  A    between atoms: C_9  and  C_10
REMARK    4  A    between atoms: C_10  and  C_11
REMARK    5  A    between atoms: C_11  and  N_12
REMARK    6  A    between atoms: C_13  and  C_14
REMARK    7  A    between atoms: N_15  and  C_16
REMARK    8  A    between atoms: C_16  and  C_17
REMARK                            x       y       z     vdW  Elec       q    Type
REMARK                         _______ _______ _______ _____ _____    ______ ____
ROOT
ATOM      1  C   UNL     1       4.393   5.369  17.080  0.00  0.00    +0.000 A 
ATOM      2  C   UNL     1       4.477   6.669  16.585  0.00  0.00    +0.000 A 
ATOM      3  C   UNL     1       3.800   7.728  17.203  0.00  0.00    +0.000 A 
ATOM      4  C   UNL     1       3.033   7.449  18.346  0.00  0.00    +0.000 A 
ATOM      5  C   UNL     1       2.962   6.166  18.887  0.00  0.00    +0.000 A 
ATOM      6  C   UNL     1       3.656   5.117  18.244  0.00  0.00    +0.000 A 
ATOM      7  C   UNL     1       2.142   6.225  20.057  0.00  0.00    +0.000 A 
ATOM      8  C   UNL     1       1.720   7.541  20.199  0.00  0.00    +0.000 A 
ATOM      9  C   UNL     1       0.863   8.161  21.251  0.00  0.00    +0.000 C 
ATOM     10  N   UNL     1       2.240   8.263  19.139  0.00  0.00    +0.000 N 
ENDROOT
BRANCH   1  12
ATOM     11  C   UNL     1       6.977   4.584  16.549  0.00  0.00    +0.000 C 
ATOM     12  S   UNL     1       5.268   4.054  16.248  0.00  0.00    +0.000 S 
ENDBRANCH   1  12
BRANCH   7  13
ATOM     13  C   UNL     1       1.812   5.053  20.939  0.00  0.00    +0.000 C 
BRANCH  13  14
ATOM     14  C   UNL     1       0.888   4.042  20.250  0.00  0.00    +0.000 C 
BRANCH  14  15
ATOM     15  N   UNL     1       1.388   2.674  20.401  0.00  0.00    +0.000 NA
ATOM     16  H   UNL     1       1.275   2.169  19.523  0.00  0.00    +0.000 HD
ATOM     17  H   UNL     1       0.818   2.184  21.088  0.00  0.00    +0.000 HD
ENDBRANCH  14  15
ENDBRANCH  13  14
ENDBRANCH   7  13
BRANCH  10  18
ATOM     18  C   UNL     1       1.936   9.663  18.835  0.00  0.00    +0.000 C 
BRANCH  18  19
ATOM     19  C   UNL     1       0.477   9.964  18.564  0.00  0.00    +0.000 A 
ATOM     20  C   UNL     1      -0.258   9.389  17.518  0.00  0.00    +0.000 A 
ATOM     21  C   UNL     1      -1.591   9.750  17.296  0.00  0.00    +0.000 A 
ATOM     22  C   UNL     1      -2.220  10.680  18.127  0.00  0.00    +0.000 A 
ATOM     23 CL   UNL     1      -3.855  11.105  17.768  0.00  0.00    +0.000 Cl
ATOM     24  C   UNL     1      -1.517  11.234  19.198  0.00  0.00    +0.000 A 
ATOM     25 CL   UNL     1      -2.227  12.374  20.286  0.00  0.00    +0.000 Cl
ATOM     26  C   UNL     1      -0.180  10.875  19.413  0.00  0.00    +0.000 A 
ENDBRANCH  18  19
ENDBRANCH  10  18
TORSDOF 6
ENDMDL
MODEL 9
REMARK VINA RESULT:      -6.0      4.835      7.085
REMARK  Name = 
REMARK  8 active torsions:
REMARK  status: ('A' for Active; 'I' for Inactive)
REMARK    1  A    between atoms: C_1  and  S_2
REMARK    2  A    between atoms: S_2  and  C_3
REMARK    3  A    between atoms: C_9  and  C_10
REMARK    4  A    between atoms: C_10  and  C_11
REMARK    5  A    between atoms: C_11  and  N_12
REMARK    6  A    between atoms: C_13  and  C_14
REMARK    7  A    between atoms: N_15  and  C_16
REMARK    8  A    between atoms: C_16  and  C_17
REMARK                            x       y       z     vdW  Elec       q    Type
REMARK                         _______ _______ _______ _____ _____    ______ ____
ROOT
ATOM      1  C   UNL     1      -0.782  10.581  22.394  0.00  0.00    +0.000 A 
ATOM      2  C   UNL     1       0.129   9.727  23.013  0.00  0.00    +0.000 A 
ATOM      3  C   UNL     1       1.043   8.974  22.267  0.00  0.00    +0.000 A 
ATOM      4  C   UNL     1       1.026   9.105  20.868  0.00  0.00    +0.000 A 
ATOM      5  C   UNL     1       0.153   9.980  20.223  0.00  0.00    +0.000 A 
ATOM      6  C   UNL     1      -0.758  10.728  21.002  0.00  0.00    +0.000 A 
ATOM      7  C   UNL     1       0.413   9.907  18.819  0.00  0.00    +0.000 A 
ATOM      8  C   UNL     1       1.431   8.980  18.635  0.00  0.00    +0.000 A 
ATOM      9  C   UNL     1       2.098   8.531  17.379  0.00  0.00    +0.000 C 
ATOM     10  N   UNL     1       1.769   8.480  19.880  0.00  0.00    +0.000 N 
ENDROOT
BRANCH   1  12
ATOM     11  C   UNL     1      -1.511  13.194  22.863  0.00  0.00    +0.000 C 
ATOM     12  S   UNL     1      -1.934  11.510  23.393  0.00  0.00    +0.000 S 
ENDBRANCH   1  12
BRANCH   7  13
ATOM     13  C   UNL     1      -0.313  10.697  17.766  0.00  0.00    +0.000 C 
BRANCH  13  14
ATOM     14  C   UNL     1      -1.665  10.078  17.394  0.00  0.00    +0.000 C 
BRANCH  14  15
ATOM     15  N   UNL     1      -2.196  10.657  16.159  0.00  0.00    +0.000 NA
ATOM     16  H   UNL     1      -2.546   9.914  15.555  0.00  0.00    +0.000 HD
ATOM     17  H   UNL     1      -1.438  11.107  15.648  0.00  0.00    +0.000 HD
ENDBRANCH  14  15
ENDBRANCH  13  14
ENDBRANCH   7  13
BRANCH  10  18
ATOM     18  C   UNL     1       2.711   7.385  20.127  0.00  0.00    +0.000 C 
BRANCH  18  19
ATOM     19  C   UNL     1       2.223   6.008  19.727  0.00  0.00    +0.000 A 
ATOM     20  C   UNL     1       2.035   5.601  18.399  0.00  0.00    +0.000 A 
ATOM     21  C   UNL     1       1.534   4.329  18.104  0.00  0.00    +0.000 A 
ATOM     22  C   UNL     1       1.231   3.432  19.131  0.00  0.00    +0.000 A 
ATOM     23 CL   UNL     1       0.582   1.894  18.692  0.00  0.00    +0.000 Cl
ATOM     24  C   UNL     1       1.449   3.805  20.459  0.00  0.00    +0.000 A 
ATOM     25 CL   UNL     1       1.121   2.749  21.786  0.00  0.00    +0.000 Cl
ATOM     26  C   UNL     1       1.944   5.083  20.751  0.00  0.00    +0.000 A 
ENDBRANCH  18  19
ENDBRANCH  10  18
TORSDOF 6
ENDMDL
