MODEL 1
REMARK VINA RESULT:      -7.7      0.000      0.000
REMARK  Name = 
REMARK  3 active torsions:
REMARK  status: ('A' for Active; 'I' for Inactive)
REMARK    1  A    between atoms: C_1  and  O_2
REMARK    2  A    between atoms: O_2  and  C_3
REMARK    3  A    between atoms: C_8  and  N_9
REMARK                            x       y       z     vdW  Elec       q    Type
REMARK                         _______ _______ _______ _____ _____    ______ ____
ROOT
ATOM      1  N   UNL     1       4.154   4.872  17.267  0.00  0.00    +0.000 N 
ATOM      2  C   UNL     1       3.696   6.135  17.675  0.00  0.00    +0.000 C 
ATOM      3  O   UNL     1       3.953   7.196  17.114  0.00  0.00    +0.000 OA
ATOM      4  C   UNL     1       2.776   6.159  18.833  0.00  0.00    +0.000 A 
ATOM      5  C   UNL     1       2.383   7.388  19.383  0.00  0.00    +0.000 A 
ATOM      6  C   UNL     1       1.604   7.418  20.536  0.00  0.00    +0.000 A 
ATOM      7  C   UNL     1       1.232   6.225  21.157  0.00  0.00    +0.000 A 
ATOM      8  C   UNL     1       1.611   4.987  20.614  0.00  0.00    +0.000 A 
ATOM      9  C   UNL     1       1.273   3.777  21.242  0.00  0.00    +0.000 A 
ATOM     10  C   UNL     1       1.633   2.554  20.676  0.00  0.00    +0.000 A 
ATOM     11  C   UNL     1       2.316   2.527  19.462  0.00  0.00    +0.000 A 
ATOM     12  C   UNL     1       2.687   3.726  18.841  0.00  0.00    +0.000 A 
ATOM     13  C   UNL     1       2.364   4.958  19.416  0.00  0.00    +0.000 A 
ATOM     14  C   UNL     1       3.480   3.690  17.591  0.00  0.00    +0.000 C 
ATOM     15  O   UNL     1       3.507   2.634  16.960  0.00  0.00    +0.000 OA
ENDROOT
BRANCH   1  21
ATOM     16  C   UNL     1       6.585   4.729  16.861  0.00  0.00    +0.000 A 
ATOM     17  C   UNL     1       7.659   4.617  15.970  0.00  0.00    +0.000 A 
ATOM     18  C   UNL     1       7.439   4.643  14.591  0.00  0.00    +0.000 A 
ATOM     19  C   UNL     1       6.145   4.752  14.097  0.00  0.00    +0.000 A 
ATOM     20  C   UNL     1       5.063   4.830  14.974  0.00  0.00    +0.000 A 
ATOM     21  C   UNL     1       5.263   4.827  16.362  0.00  0.00    +0.000 A 
BRANCH  16  23
ATOM     22  C   UNL     1       7.487   5.655  18.841  0.00  0.00    +0.000 C 
ATOM     23  O   UNL     1       6.744   4.608  18.223  0.00  0.00    +0.000 OA
ENDBRANCH  16  23
ENDBRANCH   1  21
TORSDOF 2
ENDMDL
MODEL 2
REMARK VINA RESULT:      -7.3      2.610      4.727
REMARK  Name = 
REMARK  3 active torsions:
REMARK  status: ('A' for Active; 'I' for Inactive)
REMARK    1  A    between atoms: C_1  and  O_2
REMARK    2  A    between atoms: O_2  and  C_3
REMARK    3  A    between atoms: C_8  and  N_9
REMARK                            x       y       z     vdW  Elec       q    Type
REMARK                         _______ _______ _______ _____ _____    ______ ____
ROOT
ATOM      1  N   UNL     1       2.429   6.319  19.079  0.00  0.00    +0.000 N 
ATOM      2  C   UNL     1       1.851   6.425  20.354  0.00  0.00    +0.000 C 
ATOM      3  O   UNL     1       1.861   5.546  21.210  0.00  0.00    +0.000 OA
ATOM      4  C   UNL     1       1.248   7.732  20.698  0.00  0.00    +0.000 A 
ATOM      5  C   UNL     1       0.535   7.873  21.896  0.00  0.00    +0.000 A 
ATOM      6  C   UNL     1      -0.124   9.067  22.177  0.00  0.00    +0.000 A 
ATOM      7  C   UNL     1      -0.092  10.114  21.256  0.00  0.00    +0.000 A 
ATOM      8  C   UNL     1       0.625   9.990  20.055  0.00  0.00    +0.000 A 
ATOM      9  C   UNL     1       0.642  11.021  19.101  0.00  0.00    +0.000 A 
ATOM     10  C   UNL     1       1.382  10.893  17.926  0.00  0.00    +0.000 A 
ATOM     11  C   UNL     1       2.131   9.740  17.700  0.00  0.00    +0.000 A 
ATOM     12  C   UNL     1       2.097   8.691  18.628  0.00  0.00    +0.000 A 
ATOM     13  C   UNL     1       1.332   8.792  19.792  0.00  0.00    +0.000 A 
ATOM     14  C   UNL     1       2.834   7.439  18.344  0.00  0.00    +0.000 C 
ATOM     15  O   UNL     1       3.711   7.472  17.482  0.00  0.00    +0.000 OA
ENDROOT
BRANCH   1  21
ATOM     16  C   UNL     1       4.017   4.442  18.864  0.00  0.00    +0.000 A 
ATOM     17  C   UNL     1       4.297   3.134  18.450  0.00  0.00    +0.000 A 
ATOM     18  C   UNL     1       3.344   2.397  17.742  0.00  0.00    +0.000 A 
ATOM     19  C   UNL     1       2.101   2.953  17.469  0.00  0.00    +0.000 A 
ATOM     20  C   UNL     1       1.797   4.243  17.905  0.00  0.00    +0.000 A 
ATOM     21  C   UNL     1       2.746   5.008  18.599  0.00  0.00    +0.000 A 
BRANCH  16  23
ATOM     22  C   UNL     1       6.180   5.373  19.087  0.00  0.00    +0.000 C 
ATOM     23  O   UNL     1       4.886   5.166  19.648  0.00  0.00    +0.000 OA
ENDBRANCH  16  23
ENDBRANCH   1  21
TORSDOF 2
ENDMDL
MODEL 3
REMARK VINA RESULT:      -7.0      1.701      6.103
REMARK  Name = 
REMARK  3 active torsions:
REMARK  status: ('A' for Active; 'I' for Inactive)
REMARK    1  A    between atoms: C_1  and  O_2
REMARK    2  A    between atoms: O_2  and  C_3
REMARK    3  A    between atoms: C_8  and  N_9
REMARK                            x       y       z     vdW  Elec       q    Type
REMARK                         _______ _______ _______ _____ _____    ______ ____
ROOT
ATOM      1  N   UNL     1       3.673   4.392  18.368  0.00  0.00    +0.000 N 
ATOM      2  C   UNL     1       3.743   3.750  17.121  0.00  0.00    +0.000 C 
ATOM      3  O   UNL     1       2.952   2.905  16.715  0.00  0.00    +0.000 OA
ATOM      4  C   UNL     1       4.826   4.191  16.213  0.00  0.00    +0.000 A 
ATOM      5  C   UNL     1       5.044   3.506  15.009  0.00  0.00    +0.000 A 
ATOM      6  C   UNL     1       6.125   3.847  14.201  0.00  0.00    +0.000 A 
ATOM      7  C   UNL     1       7.002   4.856  14.600  0.00  0.00    +0.000 A 
ATOM      8  C   UNL     1       6.792   5.556  15.799  0.00  0.00    +0.000 A 
ATOM      9  C   UNL     1       7.683   6.552  16.232  0.00  0.00    +0.000 A 
ATOM     10  C   UNL     1       7.445   7.257  17.412  0.00  0.00    +0.000 A 
ATOM     11  C   UNL     1       6.301   6.989  18.161  0.00  0.00    +0.000 A 
ATOM     12  C   UNL     1       5.421   5.977  17.757  0.00  0.00    +0.000 A 
ATOM     13  C   UNL     1       5.667   5.238  16.597  0.00  0.00    +0.000 A 
ATOM     14  C   UNL     1       4.249   5.646  18.599  0.00  0.00    +0.000 C 
ATOM     15  O   UNL     1       3.895   6.471  19.439  0.00  0.00    +0.000 OA
ENDROOT
BRANCH   1  21
ATOM     16  C   UNL     1       3.399   2.854  20.279  0.00  0.00    +0.000 A 
ATOM     17  C   UNL     1       2.605   2.328  21.305  0.00  0.00    +0.000 A 
ATOM     18  C   UNL     1       1.262   2.695  21.420  0.00  0.00    +0.000 A 
ATOM     19  C   UNL     1       0.715   3.610  20.529  0.00  0.00    +0.000 A 
ATOM     20  C   UNL     1       1.505   4.169  19.523  0.00  0.00    +0.000 A 
ATOM     21  C   UNL     1       2.849   3.797  19.376  0.00  0.00    +0.000 A 
BRANCH  16  23
ATOM     22  C   UNL     1       5.180   1.396  20.823  0.00  0.00    +0.000 C 
ATOM     23  O   UNL     1       4.748   2.598  20.188  0.00  0.00    +0.000 OA
ENDBRANCH  16  23
ENDBRANCH   1  21
TORSDOF 2
ENDMDL
MODEL 4
REMARK VINA RESULT:      -6.9      3.664      6.882
REMARK  Name = 
REMARK  3 active torsions:
REMARK  status: ('A' for Active; 'I' for Inactive)
REMARK    1  A    between atoms: C_1  and  O_2
REMARK    2  A    between atoms: O_2  and  C_3
REMARK    3  A    between atoms: C_8  and  N_9
REMARK                            x       y       z     vdW  Elec       q    Type
REMARK                         _______ _______ _______ _____ _____    ______ ____
ROOT
ATOM      1  N   UNL     1       1.045   9.164  19.188  0.00  0.00    +0.000 N 
ATOM      2  C   UNL     1       2.040   9.137  18.199  0.00  0.00    +0.000 C 
ATOM      3  O   UNL     1       2.311  10.063  17.441  0.00  0.00    +0.000 OA
ATOM      4  C   UNL     1       2.864   7.909  18.128  0.00  0.00    +0.000 A 
ATOM      5  C   UNL     1       3.786   7.751  17.083  0.00  0.00    +0.000 A 
ATOM      6  C   UNL     1       4.487   6.556  16.948  0.00  0.00    +0.000 A 
ATOM      7  C   UNL     1       4.256   5.508  17.841  0.00  0.00    +0.000 A 
ATOM      8  C   UNL     1       3.342   5.655  18.897  0.00  0.00    +0.000 A 
ATOM      9  C   UNL     1       3.073   4.601  19.785  0.00  0.00    +0.000 A 
ATOM     10  C   UNL     1       2.183   4.771  20.845  0.00  0.00    +0.000 A 
ATOM     11  C   UNL     1       1.568   6.005  21.042  0.00  0.00    +0.000 A 
ATOM     12  C   UNL     1       1.802   7.055  20.145  0.00  0.00    +0.000 A 
ATOM     13  C   UNL     1       2.664   6.887  19.058  0.00  0.00    +0.000 A 
ATOM     14  C   UNL     1       1.086   8.339  20.317  0.00  0.00    +0.000 C 
ATOM     15  O   UNL     1       0.569   8.565  21.409  0.00  0.00    +0.000 OA
ENDROOT
BRANCH   1  21
ATOM     16  C   UNL     1       0.229  11.423  19.761  0.00  0.00    +0.000 A 
ATOM     17  C   UNL     1      -0.720  12.441  19.613  0.00  0.00    +0.000 A 
ATOM     18  C   UNL     1      -1.868  12.232  18.845  0.00  0.00    +0.000 A 
ATOM     19  C   UNL     1      -2.059  11.015  18.201  0.00  0.00    +0.000 A 
ATOM     20  C   UNL     1      -1.104  10.004  18.313  0.00  0.00    +0.000 A 
ATOM     21  C   UNL     1       0.045  10.186  19.096  0.00  0.00    +0.000 A 
BRANCH  16  23
ATOM     22  C   UNL     1       1.922  12.952  20.386  0.00  0.00    +0.000 C 
ATOM     23  O   UNL     1       1.419  11.618  20.424  0.00  0.00    +0.000 OA
ENDBRANCH  16  23
ENDBRANCH   1  21
TORSDOF 2
ENDMDL
MODEL 5
REMARK VINA RESULT:      -6.8      1.094      2.874
REMARK  Name = 
REMARK  3 active torsions:
REMARK  status: ('A' for Active; 'I' for Inactive)
REMARK    1  A    between atoms: C_1  and  O_2
REMARK    2  A    between atoms: O_2  and  C_3
REMARK    3  A    between atoms: C_8  and  N_9
REMARK                            x       y       z     vdW  Elec       q    Type
REMARK                         _______ _______ _______ _____ _____    ______ ____
ROOT
ATOM      1  N   UNL     1       4.791   5.003  17.602  0.00  0.00    +0.000 N 
ATOM      2  C   UNL     1       4.781   3.880  18.443  0.00  0.00    +0.000 C 
ATOM      3  O   UNL     1       5.534   2.916  18.346  0.00  0.00    +0.000 OA
ATOM      4  C   UNL     1       3.825   3.911  19.573  0.00  0.00    +0.000 A 
ATOM      5  C   UNL     1       3.660   2.772  20.375  0.00  0.00    +0.000 A 
ATOM      6  C   UNL     1       2.688   2.758  21.371  0.00  0.00    +0.000 A 
ATOM      7  C   UNL     1       1.864   3.868  21.557  0.00  0.00    +0.000 A 
ATOM      8  C   UNL     1       2.022   5.018  20.767  0.00  0.00    +0.000 A 
ATOM      9  C   UNL     1       1.180   6.132  20.918  0.00  0.00    +0.000 A 
ATOM     10  C   UNL     1       1.368   7.278  20.144  0.00  0.00    +0.000 A 
ATOM     11  C   UNL     1       2.414   7.330  19.225  0.00  0.00    +0.000 A 
ATOM     12  C   UNL     1       3.240   6.214  19.042  0.00  0.00    +0.000 A 
ATOM     13  C   UNL     1       3.041   5.048  19.785  0.00  0.00    +0.000 A 
ATOM     14  C   UNL     1       4.301   6.249  18.009  0.00  0.00    +0.000 C 
ATOM     15  O   UNL     1       4.644   7.348  17.577  0.00  0.00    +0.000 OA
ENDROOT
BRANCH   1  21
ATOM     16  C   UNL     1       6.835   5.247  16.240  0.00  0.00    +0.000 A 
ATOM     17  C   UNL     1       7.510   5.068  15.027  0.00  0.00    +0.000 A 
ATOM     18  C   UNL     1       6.835   4.575  13.908  0.00  0.00    +0.000 A 
ATOM     19  C   UNL     1       5.491   4.234  14.004  0.00  0.00    +0.000 A 
ATOM     20  C   UNL     1       4.815   4.375  15.216  0.00  0.00    +0.000 A 
ATOM     21  C   UNL     1       5.469   4.888  16.346  0.00  0.00    +0.000 A 
BRANCH  16  23
ATOM     22  C   UNL     1       7.761   7.029  17.490  0.00  0.00    +0.000 C 
ATOM     23  O   UNL     1       7.483   5.634  17.392  0.00  0.00    +0.000 OA
ENDBRANCH  16  23
ENDBRANCH   1  21
TORSDOF 2
ENDMDL
MODEL 6
REMARK VINA RESULT:      -6.5      8.926     12.647
REMARK  Name = 
REMARK  3 active torsions:
REMARK  status: ('A' for Active; 'I' for Inactive)
REMARK    1  A    between atoms: C_1  and  O_2
REMARK    2  A    between atoms: O_2  and  C_3
REMARK    3  A    between atoms: C_8  and  N_9
REMARK                            x       y       z     vdW  Elec       q    Type
REMARK                         _______ _______ _______ _____ _____    ______ ____
ROOT
ATOM      1  N   UNL     1      -4.805  12.814  19.713  0.00  0.00    +0.000 N 
ATOM      2  C   UNL     1      -5.109  12.442  18.394  0.00  0.00    +0.000 C 
ATOM      3  O   UNL     1      -6.118  12.773  17.780  0.00  0.00    +0.000 OA
ATOM      4  C   UNL     1      -4.085  11.645  17.682  0.00  0.00    +0.000 A 
ATOM      5  C   UNL     1      -4.370  11.122  16.413  0.00  0.00    +0.000 A 
ATOM      6  C   UNL     1      -3.454  10.285  15.783  0.00  0.00    +0.000 A 
ATOM      7  C   UNL     1      -2.261   9.949  16.424  0.00  0.00    +0.000 A 
ATOM      8  C   UNL     1      -1.958  10.472  17.692  0.00  0.00    +0.000 A 
ATOM      9  C   UNL     1      -0.777  10.119  18.366  0.00  0.00    +0.000 A 
ATOM     10  C   UNL     1      -0.477  10.668  19.613  0.00  0.00    +0.000 A 
ATOM     11  C   UNL     1      -1.345  11.593  20.190  0.00  0.00    +0.000 A 
ATOM     12  C   UNL     1      -2.541  11.929  19.543  0.00  0.00    +0.000 A 
ATOM     13  C   UNL     1      -2.870  11.359  18.311  0.00  0.00    +0.000 A 
ATOM     14  C   UNL     1      -3.494  12.854  20.198  0.00  0.00    +0.000 C 
ATOM     15  O   UNL     1      -3.073  13.552  21.119  0.00  0.00    +0.000 OA
ENDROOT
BRANCH   1  21
ATOM     16  C   UNL     1      -6.771  12.415  21.152  0.00  0.00    +0.000 A 
ATOM     17  C   UNL     1      -7.771  12.906  21.999  0.00  0.00    +0.000 A 
ATOM     18  C   UNL     1      -7.916  14.281  22.199  0.00  0.00    +0.000 A 
ATOM     19  C   UNL     1      -7.046  15.168  21.576  0.00  0.00    +0.000 A 
ATOM     20  C   UNL     1      -6.023  14.689  20.757  0.00  0.00    +0.000 A 
ATOM     21  C   UNL     1      -5.873  13.314  20.526  0.00  0.00    +0.000 A 
BRANCH  16  23
ATOM     22  C   UNL     1      -7.674  10.276  20.699  0.00  0.00    +0.000 C 
ATOM     23  O   UNL     1      -6.528  11.067  21.005  0.00  0.00    +0.000 OA
ENDBRANCH  16  23
ENDBRANCH   1  21
TORSDOF 2
ENDMDL
MODEL 7
REMARK VINA RESULT:      -6.5      3.684      7.116
REMARK  Name = 
REMARK  3 active torsions:
REMARK  status: ('A' for Active; 'I' for Inactive)
REMARK    1  A    between atoms: C_1  and  O_2
REMARK    2  A    between atoms: O_2  and  C_3
REMARK    3  A    between atoms: C_8  and  N_9
REMARK                            x       y       z     vdW  Elec       q    Type
REMARK                         _______ _______ _______ _____ _____    ______ ____
ROOT
ATOM      1  N   UNL     1       1.283   9.477  19.319  0.00  0.00    +0.000 N 
ATOM      2  C   UNL     1       2.233   9.354  18.293  0.00  0.00    +0.000 C 
ATOM      3  O   UNL     1       2.623  10.270  17.576  0.00  0.00    +0.000 OA
ATOM      4  C   UNL     1       2.851   8.020  18.125  0.00  0.00    +0.000 A 
ATOM      5  C   UNL     1       3.706   7.783  17.039  0.00  0.00    +0.000 A 
ATOM      6  C   UNL     1       4.207   6.504  16.814  0.00  0.00    +0.000 A 
ATOM      7  C   UNL     1       3.841   5.454  17.657  0.00  0.00    +0.000 A 
ATOM      8  C   UNL     1       2.993   5.677  18.753  0.00  0.00    +0.000 A 
ATOM      9  C   UNL     1       2.588   4.627  19.593  0.00  0.00    +0.000 A 
ATOM     10  C   UNL     1       1.766   4.870  20.694  0.00  0.00    +0.000 A 
ATOM     11  C   UNL     1       1.358   6.171  20.980  0.00  0.00    +0.000 A 
ATOM     12  C   UNL     1       1.728   7.223  20.132  0.00  0.00    +0.000 A 
ATOM     13  C   UNL     1       2.521   6.987  19.006  0.00  0.00    +0.000 A 
ATOM     14  C   UNL     1       1.227   8.590  20.400  0.00  0.00    +0.000 C 
ATOM     15  O   UNL     1       0.783   8.829  21.521  0.00  0.00    +0.000 OA
ENDROOT
BRANCH   1  21
ATOM     16  C   UNL     1      -0.668  10.720  18.458  0.00  0.00    +0.000 A 
ATOM     17  C   UNL     1      -1.514  11.835  18.513  0.00  0.00    +0.000 A 
ATOM     18  C   UNL     1      -1.237  12.891  19.384  0.00  0.00    +0.000 A 
ATOM     19  C   UNL     1      -0.130  12.827  20.222  0.00  0.00    +0.000 A 
ATOM     20  C   UNL     1       0.701  11.706  20.202  0.00  0.00    +0.000 A 
ATOM     21  C   UNL     1       0.453  10.644  19.320  0.00  0.00    +0.000 A 
BRANCH  16  23
ATOM     22  C   UNL     1      -2.071   9.762  16.812  0.00  0.00    +0.000 C 
ATOM     23  O   UNL     1      -0.957   9.615  17.690  0.00  0.00    +0.000 OA
ENDBRANCH  16  23
ENDBRANCH   1  21
TORSDOF 2
ENDMDL
MODEL 8
REMARK VINA RESULT:      -6.4      2.595      4.772
REMARK  Name = 
REMARK  3 active torsions:
REMARK  status: ('A' for Active; 'I' for Inactive)
REMARK    1  A    between atoms: C_1  and  O_2
REMARK    2  A    between atoms: O_2  and  C_3
REMARK    3  A    between atoms: C_8  and  N_9
REMARK                            x       y       z     vdW  Elec       q    Type
REMARK                         _______ _______ _______ _____ _____    ______ ____
ROOT
ATOM      1  N   UNL     1       2.645   6.955  19.170  0.00  0.00    +0.000 N 
ATOM      2  C   UNL     1       2.532   8.013  18.254  0.00  0.00    +0.000 C 
ATOM      3  O   UNL     1       2.932   7.991  17.095  0.00  0.00    +0.000 OA
ATOM      4  C   UNL     1       1.807   9.215  18.723  0.00  0.00    +0.000 A 
ATOM      5  C   UNL     1       1.770  10.362  17.917  0.00  0.00    +0.000 A 
ATOM      6  C   UNL     1       1.183  11.530  18.395  0.00  0.00    +0.000 A 
ATOM      7  C   UNL     1       0.650  11.565  19.684  0.00  0.00    +0.000 A 
ATOM      8  C   UNL     1       0.673  10.423  20.500  0.00  0.00    +0.000 A 
ATOM      9  C   UNL     1       0.172  10.449  21.812  0.00  0.00    +0.000 A 
ATOM     10  C   UNL     1       0.177   9.298  22.600  0.00  0.00    +0.000 A 
ATOM     11  C   UNL     1       0.664   8.102  22.078  0.00  0.00    +0.000 A 
ATOM     12  C   UNL     1       1.196   8.070  20.783  0.00  0.00    +0.000 A 
ATOM     13  C   UNL     1       1.230   9.223  19.996  0.00  0.00    +0.000 A 
ATOM     14  C   UNL     1       1.782   6.813  20.262  0.00  0.00    +0.000 C 
ATOM     15  O   UNL     1       1.493   5.765  20.837  0.00  0.00    +0.000 OA
ENDROOT
BRANCH   1  21
ATOM     16  C   UNL     1       3.166   4.770  18.147  0.00  0.00    +0.000 A 
ATOM     17  C   UNL     1       4.101   3.788  17.800  0.00  0.00    +0.000 A 
ATOM     18  C   UNL     1       5.435   3.909  18.197  0.00  0.00    +0.000 A 
ATOM     19  C   UNL     1       5.845   5.024  18.919  0.00  0.00    +0.000 A 
ATOM     20  C   UNL     1       4.929   6.027  19.242  0.00  0.00    +0.000 A 
ATOM     21  C   UNL     1       3.582   5.914  18.871  0.00  0.00    +0.000 A 
BRANCH  16  23
ATOM     22  C   UNL     1       1.119   3.587  18.069  0.00  0.00    +0.000 C 
ATOM     23  O   UNL     1       1.867   4.741  17.692  0.00  0.00    +0.000 OA
ENDBRANCH  16  23
ENDBRANCH   1  21
TORSDOF 2
ENDMDL
MODEL 9
REMARK VINA RESULT:      -6.4      3.623      7.339
REMARK  Name = 
REMARK  3 active torsions:
REMARK  status: ('A' for Active; 'I' for Inactive)
REMARK    1  A    between atoms: C_1  and  O_2
REMARK    2  A    between atoms: O_2  and  C_3
REMARK    3  A    between atoms: C_8  and  N_9
REMARK                            x       y       z     vdW  Elec       q    Type
REMARK                         _______ _______ _______ _____ _____    ______ ____
ROOT
ATOM      1  N   UNL     1       1.168   9.224  19.550  0.00  0.00    +0.000 N 
ATOM      2  C   UNL     1       0.874   8.148  20.403  0.00  0.00    +0.000 C 
ATOM      3  O   UNL     1      -0.015   8.138  21.248  0.00  0.00    +0.000 OA
ATOM      4  C   UNL     1       1.665   6.913  20.202  0.00  0.00    +0.000 A 
ATOM      5  C   UNL     1       1.524   5.845  21.099  0.00  0.00    +0.000 A 
ATOM      6  C   UNL     1       2.340   4.724  20.980  0.00  0.00    +0.000 A 
ATOM      7  C   UNL     1       3.312   4.672  19.979  0.00  0.00    +0.000 A 
ATOM      8  C   UNL     1       3.459   5.731  19.069  0.00  0.00    +0.000 A 
ATOM      9  C   UNL     1       4.453   5.711  18.076  0.00  0.00    +0.000 A 
ATOM     10  C   UNL     1       4.568   6.758  17.162  0.00  0.00    +0.000 A 
ATOM     11  C   UNL     1       3.677   7.827  17.215  0.00  0.00    +0.000 A 
ATOM     12  C   UNL     1       2.702   7.875  18.220  0.00  0.00    +0.000 A 
ATOM     13  C   UNL     1       2.598   6.850  19.164  0.00  0.00    +0.000 A 
ATOM     14  C   UNL     1       1.808   9.051  18.318  0.00  0.00    +0.000 C 
ATOM     15  O   UNL     1       1.719   9.786  17.336  0.00  0.00    +0.000 OA
ENDROOT
BRANCH   1  21
ATOM     16  C   UNL     1      -0.647  10.895  19.484  0.00  0.00    +0.000 A 
ATOM     17  C   UNL     1      -1.173  12.127  19.888  0.00  0.00    +0.000 A 
ATOM     18  C   UNL     1      -0.411  13.001  20.667  0.00  0.00    +0.000 A 
ATOM     19  C   UNL     1       0.868  12.635  21.068  0.00  0.00    +0.000 A 
ATOM     20  C   UNL     1       1.391  11.394  20.701  0.00  0.00    +0.000 A 
ATOM     21  C   UNL     1       0.651  10.512  19.902  0.00  0.00    +0.000 A 
BRANCH  16  23
ATOM     22  C   UNL     1      -1.799  10.352  17.491  0.00  0.00    +0.000 C 
ATOM     23  O   UNL     1      -1.398   9.963  18.802  0.00  0.00    +0.000 OA
ENDBRANCH  16  23
ENDBRANCH   1  21
TORSDOF 2
ENDMDL
