MODEL 1
REMARK VINA RESULT:      -6.8      0.000      0.000
REMARK  Name = 
REMARK  6 active torsions:
REMARK  status: ('A' for Active; 'I' for Inactive)
REMARK    1  A    between atoms: C_1  and  C_2
REMARK    2  A    between atoms: C_2  and  C_3
REMARK    3  A    between atoms: C_4  and  C_5
REMARK    4  A    between atoms: C_5  and  O_7
REMARK    5  A    between atoms: O_7  and  C_8
REMARK    6  A    between atoms: C_11  and  N_12
REMARK                            x       y       z     vdW  Elec       q    Type
REMARK                         _______ _______ _______ _____ _____    ______ ____
ROOT
ATOM      1  C   UNL     1       4.444   3.938  17.712  0.00  0.00    +0.000 A 
ATOM      2  C   UNL     1       5.167   4.150  18.887  0.00  0.00    +0.000 A 
ATOM      3  C   UNL     1       6.154   5.143  18.914  0.00  0.00    +0.000 A 
ATOM      4  C   UNL     1       6.405   5.904  17.759  0.00  0.00    +0.000 A 
ATOM      5  C   UNL     1       5.682   5.679  16.582  0.00  0.00    +0.000 A 
ATOM      6  C   UNL     1       4.709   4.682  16.559  0.00  0.00    +0.000 A 
ENDROOT
BRANCH   4   7
ATOM      7  N   UNL     1       7.449   6.937  17.773  0.00  0.00    +0.000 N 
ATOM      8  O   UNL     1       8.225   6.957  18.738  0.00  0.00    +0.000 OA
ATOM      9  O   UNL     1       7.499   7.722  16.816  0.00  0.00    +0.000 OA
ENDBRANCH   4   7
BRANCH   1  10
ATOM     10  O   UNL     1       3.526   2.874  17.680  0.00  0.00    +0.000 OA
BRANCH  10  11
ATOM     11  C   UNL     1       2.212   3.212  17.973  0.00  0.00    +0.000 C 
ATOM     12  O   UNL     1       1.434   3.815  17.252  0.00  0.00    +0.000 OA
BRANCH  11  16
ATOM     13  C   UNL     1       1.347   2.637  21.709  0.00  0.00    +0.000 C 
ATOM     14  C   UNL     1       1.742   3.333  20.435  0.00  0.00    +0.000 C 
ATOM     15  C   UNL     1       1.933   4.824  20.517  0.00  0.00    +0.000 C 
ATOM     16  C   UNL     1       1.886   2.620  19.298  0.00  0.00    +0.000 C 
ENDBRANCH  11  16
ENDBRANCH  10  11
ENDBRANCH   1  10
TORSDOF 4
ENDMDL
MODEL 2
REMARK VINA RESULT:      -6.6      2.225      2.788
REMARK  Name = 
REMARK  6 active torsions:
REMARK  status: ('A' for Active; 'I' for Inactive)
REMARK    1  A    between atoms: C_1  and  C_2
REMARK    2  A    between atoms: C_2  and  C_3
REMARK    3  A    between atoms: C_4  and  C_5
REMARK    4  A    between atoms: C_5  and  O_7
REMARK    5  A    between atoms: O_7  and  C_8
REMARK    6  A    between atoms: C_11  and  N_12
REMARK                            x       y       z     vdW  Elec       q    Type
REMARK                         _______ _______ _______ _____ _____    ______ ____
ROOT
ATOM      1  C   UNL     1       3.895   5.199  17.387  0.00  0.00    +0.000 A 
ATOM      2  C   UNL     1       4.434   6.352  16.815  0.00  0.00    +0.000 A 
ATOM      3  C   UNL     1       5.398   6.231  15.807  0.00  0.00    +0.000 A 
ATOM      4  C   UNL     1       5.812   4.953  15.392  0.00  0.00    +0.000 A 
ATOM      5  C   UNL     1       5.273   3.801  15.976  0.00  0.00    +0.000 A 
ATOM      6  C   UNL     1       4.322   3.929  16.986  0.00  0.00    +0.000 A 
ENDROOT
BRANCH   4   7
ATOM      7  N   UNL     1       6.834   4.816  14.347  0.00  0.00    +0.000 N 
ATOM      8  O   UNL     1       6.599   4.039  13.411  0.00  0.00    +0.000 OA
ATOM      9  O   UNL     1       7.868   5.489  14.456  0.00  0.00    +0.000 OA
ENDBRANCH   4   7
BRANCH   1  10
ATOM     10  O   UNL     1       2.999   5.345  18.461  0.00  0.00    +0.000 OA
BRANCH  10  11
ATOM     11  C   UNL     1       1.817   4.626  18.353  0.00  0.00    +0.000 C 
ATOM     12  O   UNL     1       1.214   4.360  17.325  0.00  0.00    +0.000 OA
BRANCH  11  16
ATOM     13  C   UNL     1       1.450   2.598  21.637  0.00  0.00    +0.000 C 
ATOM     14  C   UNL     1       1.812   2.949  20.219  0.00  0.00    +0.000 C 
ATOM     15  C   UNL     1       2.583   1.913  19.447  0.00  0.00    +0.000 C 
ATOM     16  C   UNL     1       1.459   4.151  19.716  0.00  0.00    +0.000 C 
ENDBRANCH  11  16
ENDBRANCH  10  11
ENDBRANCH   1  10
TORSDOF 4
ENDMDL
MODEL 3
REMARK VINA RESULT:      -6.6      2.227      2.686
REMARK  Name = 
REMARK  6 active torsions:
REMARK  status: ('A' for Active; 'I' for Inactive)
REMARK    1  A    between atoms: C_1  and  C_2
REMARK    2  A    between atoms: C_2  and  C_3
REMARK    3  A    between atoms: C_4  and  C_5
REMARK    4  A    between atoms: C_5  and  O_7
REMARK    5  A    between atoms: O_7  and  C_8
REMARK    6  A    between atoms: C_11  and  N_12
REMARK                            x       y       z     vdW  Elec       q    Type
REMARK                         _______ _______ _______ _____ _____    ______ ____
ROOT
ATOM      1  C   UNL     1       3.854   5.462  17.509  0.00  0.00    +0.000 A 
ATOM      2  C   UNL     1       4.268   4.155  17.249  0.00  0.00    +0.000 A 
ATOM      3  C   UNL     1       5.215   3.924  16.243  0.00  0.00    +0.000 A 
ATOM      4  C   UNL     1       5.728   5.008  15.509  0.00  0.00    +0.000 A 
ATOM      5  C   UNL     1       5.301   6.315  15.771  0.00  0.00    +0.000 A 
ATOM      6  C   UNL     1       4.351   6.537  16.765  0.00  0.00    +0.000 A 
ENDROOT
BRANCH   4   7
ATOM      7  N   UNL     1       6.709   4.774  14.443  0.00  0.00    +0.000 N 
ATOM      8  O   UNL     1       7.755   5.437  14.468  0.00  0.00    +0.000 OA
ATOM      9  O   UNL     1       6.439   3.922  13.585  0.00  0.00    +0.000 OA
ENDBRANCH   4   7
BRANCH   1  10
ATOM     10  O   UNL     1       2.834   5.660  18.457  0.00  0.00    +0.000 OA
BRANCH  10  11
ATOM     11  C   UNL     1       1.773   4.769  18.385  0.00  0.00    +0.000 C 
ATOM     12  O   UNL     1       1.200   4.393  17.375  0.00  0.00    +0.000 OA
BRANCH  11  16
ATOM     13  C   UNL     1       1.487   2.624  21.604  0.00  0.00    +0.000 C 
ATOM     14  C   UNL     1       1.720   3.001  20.165  0.00  0.00    +0.000 C 
ATOM     15  C   UNL     1       2.200   1.904  19.254  0.00  0.00    +0.000 C 
ATOM     16  C   UNL     1       1.516   4.273  19.764  0.00  0.00    +0.000 C 
ENDBRANCH  11  16
ENDBRANCH  10  11
ENDBRANCH   1  10
TORSDOF 4
ENDMDL
MODEL 4
REMARK VINA RESULT:      -6.5      2.367      3.095
REMARK  Name = 
REMARK  6 active torsions:
REMARK  status: ('A' for Active; 'I' for Inactive)
REMARK    1  A    between atoms: C_1  and  C_2
REMARK    2  A    between atoms: C_2  and  C_3
REMARK    3  A    between atoms: C_4  and  C_5
REMARK    4  A    between atoms: C_5  and  O_7
REMARK    5  A    between atoms: O_7  and  C_8
REMARK    6  A    between atoms: C_11  and  N_12
REMARK                            x       y       z     vdW  Elec       q    Type
REMARK                         _______ _______ _______ _____ _____    ______ ____
ROOT
ATOM      1  C   UNL     1       5.358   4.259  17.977  0.00  0.00    +0.000 A 
ATOM      2  C   UNL     1       4.547   4.215  16.842  0.00  0.00    +0.000 A 
ATOM      3  C   UNL     1       5.125   4.393  15.579  0.00  0.00    +0.000 A 
ATOM      4  C   UNL     1       6.509   4.620  15.474  0.00  0.00    +0.000 A 
ATOM      5  C   UNL     1       7.315   4.671  16.618  0.00  0.00    +0.000 A 
ATOM      6  C   UNL     1       6.731   4.504  17.872  0.00  0.00    +0.000 A 
ENDROOT
BRANCH   4   7
ATOM      7  N   UNL     1       7.122   4.824  14.155  0.00  0.00    +0.000 N 
ATOM      8  O   UNL     1       8.049   5.641  14.073  0.00  0.00    +0.000 OA
ATOM      9  O   UNL     1       6.683   4.162  13.205  0.00  0.00    +0.000 OA
ENDBRANCH   4   7
BRANCH   1  10
ATOM     10  O   UNL     1       4.743   4.172  19.238  0.00  0.00    +0.000 OA
BRANCH  10  11
ATOM     11  C   UNL     1       4.396   2.892  19.644  0.00  0.00    +0.000 C 
ATOM     12  O   UNL     1       5.054   2.144  20.349  0.00  0.00    +0.000 OA
BRANCH  11  16
ATOM     13  C   UNL     1       0.556   2.505  19.260  0.00  0.00    +0.000 C 
ATOM     14  C   UNL     1       1.903   2.739  19.890  0.00  0.00    +0.000 C 
ATOM     15  C   UNL     1       1.906   3.116  21.347  0.00  0.00    +0.000 C 
ATOM     16  C   UNL     1       3.021   2.624  19.142  0.00  0.00    +0.000 C 
ENDBRANCH  11  16
ENDBRANCH  10  11
ENDBRANCH   1  10
TORSDOF 4
ENDMDL
MODEL 5
REMARK VINA RESULT:      -6.5      1.655      2.189
REMARK  Name = 
REMARK  6 active torsions:
REMARK  status: ('A' for Active; 'I' for Inactive)
REMARK    1  A    between atoms: C_1  and  C_2
REMARK    2  A    between atoms: C_2  and  C_3
REMARK    3  A    between atoms: C_4  and  C_5
REMARK    4  A    between atoms: C_5  and  O_7
REMARK    5  A    between atoms: O_7  and  C_8
REMARK    6  A    between atoms: C_11  and  N_12
REMARK                            x       y       z     vdW  Elec       q    Type
REMARK                         _______ _______ _______ _____ _____    ______ ____
ROOT
ATOM      1  C   UNL     1       3.521   5.207  18.309  0.00  0.00    +0.000 A 
ATOM      2  C   UNL     1       3.987   4.716  17.089  0.00  0.00    +0.000 A 
ATOM      3  C   UNL     1       5.360   4.504  16.915  0.00  0.00    +0.000 A 
ATOM      4  C   UNL     1       6.246   4.792  17.968  0.00  0.00    +0.000 A 
ATOM      5  C   UNL     1       5.771   5.292  19.186  0.00  0.00    +0.000 A 
ATOM      6  C   UNL     1       4.405   5.512  19.348  0.00  0.00    +0.000 A 
ENDROOT
BRANCH   4   7
ATOM      7  N   UNL     1       7.689   4.588  17.790  0.00  0.00    +0.000 N 
ATOM      8  O   UNL     1       8.407   4.654  18.797  0.00  0.00    +0.000 OA
ATOM      9  O   UNL     1       8.104   4.352  16.647  0.00  0.00    +0.000 OA
ENDBRANCH   4   7
BRANCH   1  10
ATOM     10  O   UNL     1       2.151   5.502  18.428  0.00  0.00    +0.000 OA
BRANCH  10  11
ATOM     11  C   UNL     1       1.300   4.407  18.379  0.00  0.00    +0.000 C 
ATOM     12  O   UNL     1       0.848   3.876  17.376  0.00  0.00    +0.000 OA
BRANCH  11  16
ATOM     13  C   UNL     1       1.531   2.524  21.761  0.00  0.00    +0.000 C 
ATOM     14  C   UNL     1       1.757   2.879  20.316  0.00  0.00    +0.000 C 
ATOM     15  C   UNL     1       2.737   2.022  19.559  0.00  0.00    +0.000 C 
ATOM     16  C   UNL     1       1.107   3.931  19.774  0.00  0.00    +0.000 C 
ENDBRANCH  11  16
ENDBRANCH  10  11
ENDBRANCH   1  10
TORSDOF 4
ENDMDL
MODEL 6
REMARK VINA RESULT:      -6.4      2.042      2.672
REMARK  Name = 
REMARK  6 active torsions:
REMARK  status: ('A' for Active; 'I' for Inactive)
REMARK    1  A    between atoms: C_1  and  C_2
REMARK    2  A    between atoms: C_2  and  C_3
REMARK    3  A    between atoms: C_4  and  C_5
REMARK    4  A    between atoms: C_5  and  O_7
REMARK    5  A    between atoms: O_7  and  C_8
REMARK    6  A    between atoms: C_11  and  N_12
REMARK                            x       y       z     vdW  Elec       q    Type
REMARK                         _______ _______ _______ _____ _____    ______ ____
ROOT
ATOM      1  C   UNL     1       3.429   5.466  17.815  0.00  0.00    +0.000 A 
ATOM      2  C   UNL     1       4.208   6.595  17.556  0.00  0.00    +0.000 A 
ATOM      3  C   UNL     1       5.488   6.435  17.012  0.00  0.00    +0.000 A 
ATOM      4  C   UNL     1       5.971   5.143  16.742  0.00  0.00    +0.000 A 
ATOM      5  C   UNL     1       5.188   4.015  17.013  0.00  0.00    +0.000 A 
ATOM      6  C   UNL     1       3.919   4.181  17.564  0.00  0.00    +0.000 A 
ENDROOT
BRANCH   4   7
ATOM      7  N   UNL     1       7.319   4.964  16.187  0.00  0.00    +0.000 N 
ATOM      8  O   UNL     1       7.601   5.584  15.152  0.00  0.00    +0.000 OA
ATOM      9  O   UNL     1       8.097   4.210  16.787  0.00  0.00    +0.000 OA
ENDBRANCH   4   7
BRANCH   1  10
ATOM     10  O   UNL     1       2.187   5.646  18.448  0.00  0.00    +0.000 OA
BRANCH  10  11
ATOM     11  C   UNL     1       2.244   6.147  19.740  0.00  0.00    +0.000 C 
ATOM     12  O   UNL     1       1.974   7.283  20.097  0.00  0.00    +0.000 OA
BRANCH  11  16
ATOM     13  C   UNL     1       2.387   2.773  21.645  0.00  0.00    +0.000 C 
ATOM     14  C   UNL     1       1.893   3.877  20.750  0.00  0.00    +0.000 C 
ATOM     15  C   UNL     1       0.614   3.613  20.001  0.00  0.00    +0.000 C 
ATOM     16  C   UNL     1       2.604   5.019  20.640  0.00  0.00    +0.000 C 
ENDBRANCH  11  16
ENDBRANCH  10  11
ENDBRANCH   1  10
TORSDOF 4
ENDMDL
MODEL 7
REMARK VINA RESULT:      -6.4      2.450      2.891
REMARK  Name = 
REMARK  6 active torsions:
REMARK  status: ('A' for Active; 'I' for Inactive)
REMARK    1  A    between atoms: C_1  and  C_2
REMARK    2  A    between atoms: C_2  and  C_3
REMARK    3  A    between atoms: C_4  and  C_5
REMARK    4  A    between atoms: C_5  and  O_7
REMARK    5  A    between atoms: O_7  and  C_8
REMARK    6  A    between atoms: C_11  and  N_12
REMARK                            x       y       z     vdW  Elec       q    Type
REMARK                         _______ _______ _______ _____ _____    ______ ____
ROOT
ATOM      1  C   UNL     1       4.797   5.504  18.296  0.00  0.00    +0.000 A 
ATOM      2  C   UNL     1       5.542   4.341  18.097  0.00  0.00    +0.000 A 
ATOM      3  C   UNL     1       6.181   4.139  16.867  0.00  0.00    +0.000 A 
ATOM      4  C   UNL     1       6.057   5.104  15.853  0.00  0.00    +0.000 A 
ATOM      5  C   UNL     1       5.301   6.265  16.058  0.00  0.00    +0.000 A 
ATOM      6  C   UNL     1       4.659   6.454  17.279  0.00  0.00    +0.000 A 
ENDROOT
BRANCH   4   7
ATOM      7  N   UNL     1       6.711   4.894  14.555  0.00  0.00    +0.000 N 
ATOM      8  O   UNL     1       6.197   4.077  13.778  0.00  0.00    +0.000 OA
ATOM      9  O   UNL     1       7.732   5.550  14.308  0.00  0.00    +0.000 OA
ENDBRANCH   4   7
BRANCH   1  10
ATOM     10  O   UNL     1       4.088   5.641  19.502  0.00  0.00    +0.000 OA
BRANCH  10  11
ATOM     11  C   UNL     1       2.736   5.928  19.369  0.00  0.00    +0.000 C 
ATOM     12  O   UNL     1       2.189   6.994  19.599  0.00  0.00    +0.000 OA
BRANCH  11  16
ATOM     13  C   UNL     1       0.833   2.588  18.857  0.00  0.00    +0.000 C 
ATOM     14  C   UNL     1       1.529   3.734  19.540  0.00  0.00    +0.000 C 
ATOM     15  C   UNL     1       1.545   3.710  21.045  0.00  0.00    +0.000 C 
ATOM     16  C   UNL     1       2.080   4.721  18.800  0.00  0.00    +0.000 C 
ENDBRANCH  11  16
ENDBRANCH  10  11
ENDBRANCH   1  10
TORSDOF 4
ENDMDL
MODEL 8
REMARK VINA RESULT:      -6.4      2.539      3.201
REMARK  Name = 
REMARK  6 active torsions:
REMARK  status: ('A' for Active; 'I' for Inactive)
REMARK    1  A    between atoms: C_1  and  C_2
REMARK    2  A    between atoms: C_2  and  C_3
REMARK    3  A    between atoms: C_4  and  C_5
REMARK    4  A    between atoms: C_5  and  O_7
REMARK    5  A    between atoms: O_7  and  C_8
REMARK    6  A    between atoms: C_11  and  N_12
REMARK                            x       y       z     vdW  Elec       q    Type
REMARK                         _______ _______ _______ _____ _____    ______ ____
ROOT
ATOM      1  C   UNL     1       5.634   5.502  18.134  0.00  0.00    +0.000 A 
ATOM      2  C   UNL     1       6.766   4.712  17.931  0.00  0.00    +0.000 A 
ATOM      3  C   UNL     1       7.249   4.528  16.630  0.00  0.00    +0.000 A 
ATOM      4  C   UNL     1       6.585   5.136  15.550  0.00  0.00    +0.000 A 
ATOM      5  C   UNL     1       5.445   5.921  15.761  0.00  0.00    +0.000 A 
ATOM      6  C   UNL     1       4.963   6.090  17.057  0.00  0.00    +0.000 A 
ENDROOT
BRANCH   4   7
ATOM      7  N   UNL     1       7.075   4.937  14.180  0.00  0.00    +0.000 N 
ATOM      8  O   UNL     1       8.053   5.606  13.817  0.00  0.00    +0.000 OA
ATOM      9  O   UNL     1       6.490   4.109  13.471  0.00  0.00    +0.000 OA
ENDBRANCH   4   7
BRANCH   1  10
ATOM     10  O   UNL     1       5.112   5.594  19.436  0.00  0.00    +0.000 OA
BRANCH  10  11
ATOM     11  C   UNL     1       3.810   5.137  19.590  0.00  0.00    +0.000 C 
ATOM     12  O   UNL     1       2.802   5.819  19.680  0.00  0.00    +0.000 OA
BRANCH  11  16
ATOM     13  C   UNL     1       3.446   1.418  18.554  0.00  0.00    +0.000 C 
ATOM     14  C   UNL     1       3.288   2.915  18.549  0.00  0.00    +0.000 C 
ATOM     15  C   UNL     1       2.509   3.503  17.403  0.00  0.00    +0.000 C 
ATOM     16  C   UNL     1       3.851   3.652  19.530  0.00  0.00    +0.000 C 
ENDBRANCH  11  16
ENDBRANCH  10  11
ENDBRANCH   1  10
TORSDOF 4
ENDMDL
MODEL 9
REMARK VINA RESULT:      -6.3      2.928      5.750
REMARK  Name = 
REMARK  6 active torsions:
REMARK  status: ('A' for Active; 'I' for Inactive)
REMARK    1  A    between atoms: C_1  and  C_2
REMARK    2  A    between atoms: C_2  and  C_3
REMARK    3  A    between atoms: C_4  and  C_5
REMARK    4  A    between atoms: C_5  and  O_7
REMARK    5  A    between atoms: O_7  and  C_8
REMARK    6  A    between atoms: C_11  and  N_12
REMARK                            x       y       z     vdW  Elec       q    Type
REMARK                         _______ _______ _______ _____ _____    ______ ____
ROOT
ATOM      1  C   UNL     1       4.190   4.978  17.051  0.00  0.00    +0.000 A 
ATOM      2  C   UNL     1       3.521   5.753  18.000  0.00  0.00    +0.000 A 
ATOM      3  C   UNL     1       2.464   5.188  18.724  0.00  0.00    +0.000 A 
ATOM      4  C   UNL     1       2.089   3.855  18.480  0.00  0.00    +0.000 A 
ATOM      5  C   UNL     1       2.760   3.087  17.521  0.00  0.00    +0.000 A 
ATOM      6  C   UNL     1       3.803   3.659  16.797  0.00  0.00    +0.000 A 
ENDROOT
BRANCH   4   7
ATOM      7  N   UNL     1       0.972   3.259  19.223  0.00  0.00    +0.000 N 
ATOM      8  O   UNL     1       0.651   3.784  20.298  0.00  0.00    +0.000 OA
ATOM      9  O   UNL     1       0.409   2.272  18.729  0.00  0.00    +0.000 OA
ENDBRANCH   4   7
BRANCH   1  10
ATOM     10  O   UNL     1       5.184   5.594  16.271  0.00  0.00    +0.000 OA
BRANCH  10  11
ATOM     11  C   UNL     1       6.377   4.893  16.164  0.00  0.00    +0.000 C 
ATOM     12  O   UNL     1       6.881   4.459  15.141  0.00  0.00    +0.000 OA
BRANCH  11  16
ATOM     13  C   UNL     1       8.043   5.765  19.556  0.00  0.00    +0.000 C 
ATOM     14  C   UNL     1       7.508   5.916  18.157  0.00  0.00    +0.000 C 
ATOM     15  C   UNL     1       7.572   7.296  17.559  0.00  0.00    +0.000 C 
ATOM     16  C   UNL     1       6.988   4.846  17.519  0.00  0.00    +0.000 C 
ENDBRANCH  11  16
ENDBRANCH  10  11
ENDBRANCH   1  10
TORSDOF 4
ENDMDL
