MODEL 1
REMARK VINA RESULT:      -7.5      0.000      0.000
REMARK  Name = 
REMARK  5 active torsions:
REMARK  status: ('A' for Active; 'I' for Inactive)
REMARK    1  A    between atoms: C_1  and  C_2
REMARK    2  A    between atoms: C_3  and  C_4
REMARK    3  A    between atoms: C_11  and  O_12
REMARK    4  A    between atoms: O_12  and  C_13
REMARK    5  A    between atoms: C_13  and  C_14
REMARK                            x       y       z     vdW  Elec       q    Type
REMARK                         _______ _______ _______ _____ _____    ______ ____
ROOT
ATOM      1  C   UNL     1       0.538  11.480  18.861  0.00  0.00    +0.000 C 
ATOM      2  C   UNL     1       0.724  10.471  19.973  0.00  0.00    +0.000 A 
ATOM      3  C   UNL     1       0.377  10.681  21.260  0.00  0.00    +0.000 A 
ATOM      4  C   UNL     1       0.515   9.701  22.342  0.00  0.00    +0.000 A 
ATOM      5  O   UNL     1       0.191   9.938  23.498  0.00  0.00    +0.000 OA
ATOM      6  O   UNL     1       1.026   8.472  21.970  0.00  0.00    +0.000 OA
ATOM      7  C   UNL     1       1.447   8.231  20.651  0.00  0.00    +0.000 A 
ATOM      8  C   UNL     1       1.993   6.979  20.420  0.00  0.00    +0.000 A 
ATOM      9  C   UNL     1       2.414   6.648  19.138  0.00  0.00    +0.000 A 
ATOM     10  C   UNL     1       2.350   7.595  18.118  0.00  0.00    +0.000 A 
ATOM     11  C   UNL     1       1.803   8.855  18.365  0.00  0.00    +0.000 A 
ATOM     12  C   UNL     1       1.327   9.181  19.640  0.00  0.00    +0.000 A 
ENDROOT
BRANCH   3  13
ATOM     13  C   UNL     1      -0.178  12.052  21.610  0.00  0.00    +0.000 C 
ATOM     14  N   UNL     1      -0.638  13.189  21.902  0.00  0.00    +0.000 NA
ENDBRANCH   3  13
BRANCH   9  15
ATOM     15  O   UNL     1       2.894   5.419  18.788  0.00  0.00    +0.000 OA
BRANCH  15  16
ATOM     16  C   UNL     1       4.277   5.230  19.100  0.00  0.00    +0.000 C 
BRANCH  16  17
ATOM     17  C   UNL     1       5.035   5.174  17.810  0.00  0.00    +0.000 A 
ATOM     18  C   UNL     1       4.578   4.382  16.749  0.00  0.00    +0.000 A 
ATOM     19  C   UNL     1       5.303   4.321  15.561  0.00  0.00    +0.000 A 
ATOM     20  C   UNL     1       6.485   5.044  15.436  0.00  0.00    +0.000 A 
ATOM     21 CL   UNL     1       7.388   4.955  13.972  0.00  0.00    +0.000 Cl
ATOM     22  C   UNL     1       6.956   5.831  16.485  0.00  0.00    +0.000 A 
ATOM     23  C   UNL     1       6.231   5.892  17.674  0.00  0.00    +0.000 A 
ENDBRANCH  16  17
ENDBRANCH  15  16
ENDBRANCH   9  15
TORSDOF 4
ENDMDL
MODEL 2
REMARK VINA RESULT:      -7.5      0.139      1.020
REMARK  Name = 
REMARK  5 active torsions:
REMARK  status: ('A' for Active; 'I' for Inactive)
REMARK    1  A    between atoms: C_1  and  C_2
REMARK    2  A    between atoms: C_3  and  C_4
REMARK    3  A    between atoms: C_11  and  O_12
REMARK    4  A    between atoms: O_12  and  C_13
REMARK    5  A    between atoms: C_13  and  C_14
REMARK                            x       y       z     vdW  Elec       q    Type
REMARK                         _______ _______ _______ _____ _____    ______ ____
ROOT
ATOM      1  C   UNL     1       0.315  11.467  18.781  0.00  0.00    +0.000 C 
ATOM      2  C   UNL     1       0.569  10.492  19.909  0.00  0.00    +0.000 A 
ATOM      3  C   UNL     1       0.235  10.712  21.198  0.00  0.00    +0.000 A 
ATOM      4  C   UNL     1       0.440   9.762  22.296  0.00  0.00    +0.000 A 
ATOM      5  O   UNL     1       0.126  10.008  23.453  0.00  0.00    +0.000 OA
ATOM      6  O   UNL     1       1.003   8.552  21.939  0.00  0.00    +0.000 OA
ATOM      7  C   UNL     1       1.412   8.304  20.617  0.00  0.00    +0.000 A 
ATOM      8  C   UNL     1       2.014   7.075  20.401  0.00  0.00    +0.000 A 
ATOM      9  C   UNL     1       2.427   6.738  19.118  0.00  0.00    +0.000 A 
ATOM     10  C   UNL     1       2.299   7.660  18.081  0.00  0.00    +0.000 A 
ATOM     11  C   UNL     1       1.696   8.897  18.313  0.00  0.00    +0.000 A 
ATOM     12  C   UNL     1       1.228   9.226  19.590  0.00  0.00    +0.000 A 
ENDROOT
BRANCH   3  13
ATOM     13  C   UNL     1      -0.379  12.062  21.531  0.00  0.00    +0.000 C 
ATOM     14  N   UNL     1      -0.888  13.182  21.806  0.00  0.00    +0.000 NA
ENDBRANCH   3  13
BRANCH   9  15
ATOM     15  O   UNL     1       2.961   5.527  18.783  0.00  0.00    +0.000 OA
BRANCH  15  16
ATOM     16  C   UNL     1       4.341   5.390  19.128  0.00  0.00    +0.000 C 
BRANCH  16  17
ATOM     17  C   UNL     1       5.122   5.275  17.855  0.00  0.00    +0.000 A 
ATOM     18  C   UNL     1       6.329   5.967  17.694  0.00  0.00    +0.000 A 
ATOM     19  C   UNL     1       7.035   5.868  16.497  0.00  0.00    +0.000 A 
ATOM     20  C   UNL     1       6.533   5.086  15.461  0.00  0.00    +0.000 A 
ATOM     21 CL   UNL     1       7.400   4.978  13.977  0.00  0.00    +0.000 Cl
ATOM     22  C   UNL     1       5.330   4.398  15.605  0.00  0.00    +0.000 A 
ATOM     23  C   UNL     1       4.623   4.496  16.801  0.00  0.00    +0.000 A 
ENDBRANCH  16  17
ENDBRANCH  15  16
ENDBRANCH   9  15
TORSDOF 4
ENDMDL
MODEL 3
REMARK VINA RESULT:      -7.4      4.604      8.008
REMARK  Name = 
REMARK  5 active torsions:
REMARK  status: ('A' for Active; 'I' for Inactive)
REMARK    1  A    between atoms: C_1  and  C_2
REMARK    2  A    between atoms: C_3  and  C_4
REMARK    3  A    between atoms: C_11  and  O_12
REMARK    4  A    between atoms: O_12  and  C_13
REMARK    5  A    between atoms: C_13  and  C_14
REMARK                            x       y       z     vdW  Elec       q    Type
REMARK                         _______ _______ _______ _____ _____    ______ ____
ROOT
ATOM      1  C   UNL     1       3.863   4.329  17.172  0.00  0.00    +0.000 C 
ATOM      2  C   UNL     1       3.197   4.525  18.515  0.00  0.00    +0.000 A 
ATOM      3  C   UNL     1       3.047   3.556  19.443  0.00  0.00    +0.000 A 
ATOM      4  C   UNL     1       2.437   3.740  20.764  0.00  0.00    +0.000 A 
ATOM      5  O   UNL     1       2.317   2.828  21.572  0.00  0.00    +0.000 OA
ATOM      6  O   UNL     1       2.014   5.023  21.051  0.00  0.00    +0.000 OA
ATOM      7  C   UNL     1       2.105   6.048  20.093  0.00  0.00    +0.000 A 
ATOM      8  C   UNL     1       1.595   7.275  20.484  0.00  0.00    +0.000 A 
ATOM      9  C   UNL     1       1.665   8.350  19.607  0.00  0.00    +0.000 A 
ATOM     10  C   UNL     1       2.181   8.170  18.325  0.00  0.00    +0.000 A 
ATOM     11  C   UNL     1       2.687   6.928  17.941  0.00  0.00    +0.000 A 
ATOM     12  C   UNL     1       2.669   5.851  18.835  0.00  0.00    +0.000 A 
ENDROOT
BRANCH   3  13
ATOM     13  C   UNL     1       3.529   2.164  19.070  0.00  0.00    +0.000 C 
ATOM     14  N   UNL     1       3.929   1.009  18.761  0.00  0.00    +0.000 NA
ENDBRANCH   3  13
BRANCH   9  15
ATOM     15  O   UNL     1       1.262   9.616  19.920  0.00  0.00    +0.000 OA
BRANCH  15  16
ATOM     16  C   UNL     1       1.129  10.476  18.785  0.00  0.00    +0.000 C 
BRANCH  16  17
ATOM     17  C   UNL     1      -0.328  10.766  18.598  0.00  0.00    +0.000 A 
ATOM     18  C   UNL     1      -0.970  11.731  19.385  0.00  0.00    +0.000 A 
ATOM     19  C   UNL     1      -2.330  11.977  19.216  0.00  0.00    +0.000 A 
ATOM     20  C   UNL     1      -3.050  11.255  18.269  0.00  0.00    +0.000 A 
ATOM     21 CL   UNL     1      -4.736  11.550  18.073  0.00  0.00    +0.000 Cl
ATOM     22  C   UNL     1      -2.427  10.288  17.484  0.00  0.00    +0.000 A 
ATOM     23  C   UNL     1      -1.066  10.041  17.652  0.00  0.00    +0.000 A 
ENDBRANCH  16  17
ENDBRANCH  15  16
ENDBRANCH   9  15
TORSDOF 4
ENDMDL
MODEL 4
REMARK VINA RESULT:      -7.4      1.017      1.093
REMARK  Name = 
REMARK  5 active torsions:
REMARK  status: ('A' for Active; 'I' for Inactive)
REMARK    1  A    between atoms: C_1  and  C_2
REMARK    2  A    between atoms: C_3  and  C_4
REMARK    3  A    between atoms: C_11  and  O_12
REMARK    4  A    between atoms: O_12  and  C_13
REMARK    5  A    between atoms: C_13  and  C_14
REMARK                            x       y       z     vdW  Elec       q    Type
REMARK                         _______ _______ _______ _____ _____    ______ ____
ROOT
ATOM      1  C   UNL     1      -0.397  11.939  19.596  0.00  0.00    +0.000 C 
ATOM      2  C   UNL     1       0.129  10.819  20.467  0.00  0.00    +0.000 A 
ATOM      3  C   UNL     1       0.020  10.782  21.812  0.00  0.00    +0.000 A 
ATOM      4  C   UNL     1       0.490   9.688  22.667  0.00  0.00    +0.000 A 
ATOM      5  O   UNL     1       0.374   9.700  23.885  0.00  0.00    +0.000 OA
ATOM      6  O   UNL     1       1.068   8.621  22.005  0.00  0.00    +0.000 OA
ATOM      7  C   UNL     1       1.247   8.645  20.610  0.00  0.00    +0.000 A 
ATOM      8  C   UNL     1       1.889   7.540  20.075  0.00  0.00    +0.000 A 
ATOM      9  C   UNL     1       2.086   7.470  18.702  0.00  0.00    +0.000 A 
ATOM     10  C   UNL     1       1.704   8.534  17.888  0.00  0.00    +0.000 A 
ATOM     11  C   UNL     1       1.064   9.644  18.440  0.00  0.00    +0.000 A 
ATOM     12  C   UNL     1       0.812   9.702  19.816  0.00  0.00    +0.000 A 
ENDROOT
BRANCH   3  13
ATOM     13  C   UNL     1      -0.622  11.984  22.485  0.00  0.00    +0.000 C 
ATOM     14  N   UNL     1      -1.155  12.981  23.043  0.00  0.00    +0.000 NA
ENDBRANCH   3  13
BRANCH   9  15
ATOM     15  O   UNL     1       2.638   6.395  18.065  0.00  0.00    +0.000 OA
BRANCH  15  16
ATOM     16  C   UNL     1       4.029   6.215  18.341  0.00  0.00    +0.000 C 
BRANCH  16  17
ATOM     17  C   UNL     1       4.664   5.617  17.122  0.00  0.00    +0.000 A 
ATOM     18  C   UNL     1       5.012   4.261  17.092  0.00  0.00    +0.000 A 
ATOM     19  C   UNL     1       5.621   3.722  15.962  0.00  0.00    +0.000 A 
ATOM     20  C   UNL     1       5.888   4.537  14.865  0.00  0.00    +0.000 A 
ATOM     21 CL   UNL     1       6.654   3.872  13.474  0.00  0.00    +0.000 Cl
ATOM     22  C   UNL     1       5.553   5.889  14.883  0.00  0.00    +0.000 A 
ATOM     23  C   UNL     1       4.944   6.430  16.014  0.00  0.00    +0.000 A 
ENDBRANCH  16  17
ENDBRANCH  15  16
ENDBRANCH   9  15
TORSDOF 4
ENDMDL
MODEL 5
REMARK VINA RESULT:      -7.3      1.889      2.565
REMARK  Name = 
REMARK  5 active torsions:
REMARK  status: ('A' for Active; 'I' for Inactive)
REMARK    1  A    between atoms: C_1  and  C_2
REMARK    2  A    between atoms: C_3  and  C_4
REMARK    3  A    between atoms: C_11  and  O_12
REMARK    4  A    between atoms: O_12  and  C_13
REMARK    5  A    between atoms: C_13  and  C_14
REMARK                            x       y       z     vdW  Elec       q    Type
REMARK                         _______ _______ _______ _____ _____    ______ ____
ROOT
ATOM      1  C   UNL     1      -0.433   9.729  23.220  0.00  0.00    +0.000 C 
ATOM      2  C   UNL     1      -0.361  10.275  21.811  0.00  0.00    +0.000 A 
ATOM      3  C   UNL     1      -1.008  11.381  21.387  0.00  0.00    +0.000 A 
ATOM      4  C   UNL     1      -0.919  11.944  20.036  0.00  0.00    +0.000 A 
ATOM      5  O   UNL     1      -1.529  12.949  19.695  0.00  0.00    +0.000 OA
ATOM      6  O   UNL     1      -0.083  11.273  19.165  0.00  0.00    +0.000 OA
ATOM      7  C   UNL     1       0.567  10.088  19.553  0.00  0.00    +0.000 A 
ATOM      8  C   UNL     1       1.332   9.481  18.570  0.00  0.00    +0.000 A 
ATOM      9  C   UNL     1       2.029   8.318  18.874  0.00  0.00    +0.000 A 
ATOM     10  C   UNL     1       1.898   7.737  20.134  0.00  0.00    +0.000 A 
ATOM     11  C   UNL     1       1.120   8.356  21.113  0.00  0.00    +0.000 A 
ATOM     12  C   UNL     1       0.456   9.556  20.834  0.00  0.00    +0.000 A 
ENDROOT
BRANCH   3  13
ATOM     13  C   UNL     1      -1.915  12.076  22.389  0.00  0.00    +0.000 C 
ATOM     14  N   UNL     1      -2.667  12.654  23.220  0.00  0.00    +0.000 NA
ENDBRANCH   3  13
BRANCH   9  15
ATOM     15  O   UNL     1       2.868   7.684  18.004  0.00  0.00    +0.000 OA
BRANCH  15  16
ATOM     16  C   UNL     1       3.336   6.417  18.475  0.00  0.00    +0.000 C 
BRANCH  16  17
ATOM     17  C   UNL     1       4.093   5.765  17.360  0.00  0.00    +0.000 A 
ATOM     18  C   UNL     1       4.190   4.369  17.285  0.00  0.00    +0.000 A 
ATOM     19  C   UNL     1       4.914   3.775  16.255  0.00  0.00    +0.000 A 
ATOM     20  C   UNL     1       5.547   4.572  15.305  0.00  0.00    +0.000 A 
ATOM     21 CL   UNL     1       6.454   3.835  14.041  0.00  0.00    +0.000 Cl
ATOM     22  C   UNL     1       5.464   5.961  15.371  0.00  0.00    +0.000 A 
ATOM     23  C   UNL     1       4.740   6.557  16.401  0.00  0.00    +0.000 A 
ENDBRANCH  16  17
ENDBRANCH  15  16
ENDBRANCH   9  15
TORSDOF 4
ENDMDL
MODEL 6
REMARK VINA RESULT:      -7.3      4.571      8.157
REMARK  Name = 
REMARK  5 active torsions:
REMARK  status: ('A' for Active; 'I' for Inactive)
REMARK    1  A    between atoms: C_1  and  C_2
REMARK    2  A    between atoms: C_3  and  C_4
REMARK    3  A    between atoms: C_11  and  O_12
REMARK    4  A    between atoms: O_12  and  C_13
REMARK    5  A    between atoms: C_13  and  C_14
REMARK                            x       y       z     vdW  Elec       q    Type
REMARK                         _______ _______ _______ _____ _____    ______ ____
ROOT
ATOM      1  C   UNL     1       2.055   3.870  21.143  0.00  0.00    +0.000 C 
ATOM      2  C   UNL     1       2.475   4.719  19.964  0.00  0.00    +0.000 A 
ATOM      3  C   UNL     1       3.178   4.263  18.906  0.00  0.00    +0.000 A 
ATOM      4  C   UNL     1       3.560   5.063  17.738  0.00  0.00    +0.000 A 
ATOM      5  O   UNL     1       4.204   4.606  16.802  0.00  0.00    +0.000 OA
ATOM      6  O   UNL     1       3.132   6.377  17.751  0.00  0.00    +0.000 OA
ATOM      7  C   UNL     1       2.443   6.904  18.857  0.00  0.00    +0.000 A 
ATOM      8  C   UNL     1       2.118   8.248  18.770  0.00  0.00    +0.000 A 
ATOM      9  C   UNL     1       1.416   8.845  19.809  0.00  0.00    +0.000 A 
ATOM     10  C   UNL     1       1.107   8.111  20.953  0.00  0.00    +0.000 A 
ATOM     11  C   UNL     1       1.444   6.759  21.031  0.00  0.00    +0.000 A 
ATOM     12  C   UNL     1       2.106   6.134  19.967  0.00  0.00    +0.000 A 
ENDROOT
BRANCH   3  13
ATOM     13  C   UNL     1       3.623   2.810  18.949  0.00  0.00    +0.000 C 
ATOM     14  N   UNL     1       3.994   1.605  18.984  0.00  0.00    +0.000 NA
ENDBRANCH   3  13
BRANCH   9  15
ATOM     15  O   UNL     1       0.982  10.139  19.791  0.00  0.00    +0.000 OA
BRANCH  15  16
ATOM     16  C   UNL     1       0.718  10.640  18.478  0.00  0.00    +0.000 C 
BRANCH  16  17
ATOM     17  C   UNL     1      -0.768  10.726  18.311  0.00  0.00    +0.000 A 
ATOM     18  C   UNL     1      -1.434   9.882  17.413  0.00  0.00    +0.000 A 
ATOM     19  C   UNL     1      -2.813   9.986  17.252  0.00  0.00    +0.000 A 
ATOM     20  C   UNL     1      -3.525  10.936  17.978  0.00  0.00    +0.000 A 
ATOM     21 CL   UNL     1      -5.229  11.073  17.765  0.00  0.00    +0.000 Cl
ATOM     22  C   UNL     1      -2.875  11.787  18.869  0.00  0.00    +0.000 A 
ATOM     23  C   UNL     1      -1.495  11.684  19.032  0.00  0.00    +0.000 A 
ENDBRANCH  16  17
ENDBRANCH  15  16
ENDBRANCH   9  15
TORSDOF 4
ENDMDL
MODEL 7
REMARK VINA RESULT:      -7.3      4.593      7.946
REMARK  Name = 
REMARK  5 active torsions:
REMARK  status: ('A' for Active; 'I' for Inactive)
REMARK    1  A    between atoms: C_1  and  C_2
REMARK    2  A    between atoms: C_3  and  C_4
REMARK    3  A    between atoms: C_11  and  O_12
REMARK    4  A    between atoms: O_12  and  C_13
REMARK    5  A    between atoms: C_13  and  C_14
REMARK                            x       y       z     vdW  Elec       q    Type
REMARK                         _______ _______ _______ _____ _____    ______ ____
ROOT
ATOM      1  C   UNL     1       3.961   5.647  17.394  0.00  0.00    +0.000 C 
ATOM      2  C   UNL     1       3.155   5.782  18.666  0.00  0.00    +0.000 A 
ATOM      3  C   UNL     1       3.008   4.804  19.585  0.00  0.00    +0.000 A 
ATOM      4  C   UNL     1       2.261   4.931  20.840  0.00  0.00    +0.000 A 
ATOM      5  O   UNL     1       2.151   4.013  21.642  0.00  0.00    +0.000 OA
ATOM      6  O   UNL     1       1.695   6.169  21.074  0.00  0.00    +0.000 OA
ATOM      7  C   UNL     1       1.781   7.197  20.118  0.00  0.00    +0.000 A 
ATOM      8  C   UNL     1       1.124   8.371  20.448  0.00  0.00    +0.000 A 
ATOM      9  C   UNL     1       1.177   9.448  19.571  0.00  0.00    +0.000 A 
ATOM     10  C   UNL     1       1.826   9.316  18.345  0.00  0.00    +0.000 A 
ATOM     11  C   UNL     1       2.480   8.126  18.023  0.00  0.00    +0.000 A 
ATOM     12  C   UNL     1       2.478   7.053  18.922  0.00  0.00    +0.000 A 
ENDROOT
BRANCH   3  13
ATOM     13  C   UNL     1       3.651   3.463  19.272  0.00  0.00    +0.000 C 
ATOM     14  N   UNL     1       4.186   2.350  19.014  0.00  0.00    +0.000 NA
ENDBRANCH   3  13
BRANCH   9  15
ATOM     15  O   UNL     1       0.629  10.671  19.833  0.00  0.00    +0.000 OA
BRANCH  15  16
ATOM     16  C   UNL     1       0.258  11.398  18.659  0.00  0.00    +0.000 C 
BRANCH  16  17
ATOM     17  C   UNL     1      -1.221  11.252  18.478  0.00  0.00    +0.000 A 
ATOM     18  C   UNL     1      -1.741  10.289  17.604  0.00  0.00    +0.000 A 
ATOM     19  C   UNL     1      -3.117  10.176  17.428  0.00  0.00    +0.000 A 
ATOM     20  C   UNL     1      -3.974  11.029  18.118  0.00  0.00    +0.000 A 
ATOM     21 CL   UNL     1      -5.676  10.899  17.887  0.00  0.00    +0.000 Cl
ATOM     22  C   UNL     1      -3.472  11.996  18.985  0.00  0.00    +0.000 A 
ATOM     23  C   UNL     1      -2.094  12.110  19.162  0.00  0.00    +0.000 A 
ENDBRANCH  16  17
ENDBRANCH  15  16
ENDBRANCH   9  15
TORSDOF 4
ENDMDL
MODEL 8
REMARK VINA RESULT:      -7.2      1.951      2.804
REMARK  Name = 
REMARK  5 active torsions:
REMARK  status: ('A' for Active; 'I' for Inactive)
REMARK    1  A    between atoms: C_1  and  C_2
REMARK    2  A    between atoms: C_3  and  C_4
REMARK    3  A    between atoms: C_11  and  O_12
REMARK    4  A    between atoms: O_12  and  C_13
REMARK    5  A    between atoms: C_13  and  C_14
REMARK                            x       y       z     vdW  Elec       q    Type
REMARK                         _______ _______ _______ _____ _____    ______ ____
ROOT
ATOM      1  C   UNL     1      -0.693  10.013  23.283  0.00  0.00    +0.000 C 
ATOM      2  C   UNL     1      -0.564  10.530  21.867  0.00  0.00    +0.000 A 
ATOM      3  C   UNL     1      -1.173  11.640  21.401  0.00  0.00    +0.000 A 
ATOM      4  C   UNL     1      -1.029  12.175  20.043  0.00  0.00    +0.000 A 
ATOM      5  O   UNL     1      -1.607  13.184  19.662  0.00  0.00    +0.000 OA
ATOM      6  O   UNL     1      -0.177  11.470  19.214  0.00  0.00    +0.000 OA
ATOM      7  C   UNL     1       0.436  10.281  19.646  0.00  0.00    +0.000 A 
ATOM      8  C   UNL     1       1.221   9.640  18.701  0.00  0.00    +0.000 A 
ATOM      9  C   UNL     1       1.884   8.470  19.050  0.00  0.00    +0.000 A 
ATOM     10  C   UNL     1       1.699   7.916  20.316  0.00  0.00    +0.000 A 
ATOM     11  C   UNL     1       0.901   8.569  21.256  0.00  0.00    +0.000 A 
ATOM     12  C   UNL     1       0.271   9.777  20.932  0.00  0.00    +0.000 A 
ENDROOT
BRANCH   3  13
ATOM     13  C   UNL     1      -2.100  12.372  22.358  0.00  0.00    +0.000 C 
ATOM     14  N   UNL     1      -2.867  12.979  23.153  0.00  0.00    +0.000 NA
ENDBRANCH   3  13
BRANCH   9  15
ATOM     15  O   UNL     1       2.739   7.802  18.222  0.00  0.00    +0.000 OA
BRANCH  15  16
ATOM     16  C   UNL     1       2.986   6.451  18.617  0.00  0.00    +0.000 C 
BRANCH  16  17
ATOM     17  C   UNL     1       3.854   5.819  17.572  0.00  0.00    +0.000 A 
ATOM     18  C   UNL     1       4.587   6.612  16.681  0.00  0.00    +0.000 A 
ATOM     19  C   UNL     1       5.374   6.013  15.700  0.00  0.00    +0.000 A 
ATOM     20  C   UNL     1       5.422   4.625  15.604  0.00  0.00    +0.000 A 
ATOM     21 CL   UNL     1       6.383   3.887  14.381  0.00  0.00    +0.000 Cl
ATOM     22  C   UNL     1       4.692   3.824  16.480  0.00  0.00    +0.000 A 
ATOM     23  C   UNL     1       3.905   4.422  17.462  0.00  0.00    +0.000 A 
ENDBRANCH  16  17
ENDBRANCH  15  16
ENDBRANCH   9  15
TORSDOF 4
ENDMDL
MODEL 9
REMARK VINA RESULT:      -7.2      4.810      5.993
REMARK  Name = 
REMARK  5 active torsions:
REMARK  status: ('A' for Active; 'I' for Inactive)
REMARK    1  A    between atoms: C_1  and  C_2
REMARK    2  A    between atoms: C_3  and  C_4
REMARK    3  A    between atoms: C_11  and  O_12
REMARK    4  A    between atoms: O_12  and  C_13
REMARK    5  A    between atoms: C_13  and  C_14
REMARK                            x       y       z     vdW  Elec       q    Type
REMARK                         _______ _______ _______ _____ _____    ______ ____
ROOT
ATOM      1  C   UNL     1       1.303   4.970  19.899  0.00  0.00    +0.000 C 
ATOM      2  C   UNL     1       2.694   4.383  19.797  0.00  0.00    +0.000 A 
ATOM      3  C   UNL     1       3.132   3.329  20.516  0.00  0.00    +0.000 A 
ATOM      4  C   UNL     1       4.463   2.724  20.403  0.00  0.00    +0.000 A 
ATOM      5  O   UNL     1       4.819   1.770  21.082  0.00  0.00    +0.000 OA
ATOM      6  O   UNL     1       5.297   3.294  19.460  0.00  0.00    +0.000 OA
ATOM      7  C   UNL     1       4.896   4.425  18.727  0.00  0.00    +0.000 A 
ATOM      8  C   UNL     1       5.844   4.934  17.854  0.00  0.00    +0.000 A 
ATOM      9  C   UNL     1       5.524   6.037  17.073  0.00  0.00    +0.000 A 
ATOM     10  C   UNL     1       4.287   6.661  17.222  0.00  0.00    +0.000 A 
ATOM     11  C   UNL     1       3.343   6.141  18.108  0.00  0.00    +0.000 A 
ATOM     12  C   UNL     1       3.635   4.998  18.862  0.00  0.00    +0.000 A 
ENDROOT
BRANCH   3  13
ATOM     13  C   UNL     1       2.171   2.746  21.540  0.00  0.00    +0.000 C 
ATOM     14  N   UNL     1       1.374   2.262  22.389  0.00  0.00    +0.000 NA
ENDBRANCH   3  13
BRANCH   9  15
ATOM     15  O   UNL     1       6.355   6.570  16.130  0.00  0.00    +0.000 OA
BRANCH  15  16
ATOM     16  C   UNL     1       7.356   5.661  15.664  0.00  0.00    +0.000 C 
BRANCH  16  17
ATOM     17  C   UNL     1       6.783   4.903  14.506  0.00  0.00    +0.000 A 
ATOM     18  C   UNL     1       5.520   4.304  14.600  0.00  0.00    +0.000 A 
ATOM     19  C   UNL     1       5.008   3.584  13.524  0.00  0.00    +0.000 A 
ATOM     20  C   UNL     1       5.757   3.457  12.358  0.00  0.00    +0.000 A 
ATOM     21 CL   UNL     1       5.127   2.553  11.034  0.00  0.00    +0.000 Cl
ATOM     22  C   UNL     1       7.017   4.042  12.252  0.00  0.00    +0.000 A 
ATOM     23  C   UNL     1       7.531   4.762  13.328  0.00  0.00    +0.000 A 
ENDBRANCH  16  17
ENDBRANCH  15  16
ENDBRANCH   9  15
TORSDOF 4
ENDMDL
