MODEL 1
REMARK VINA RESULT:      -7.9      0.000      0.000
REMARK  Name = 
REMARK  5 active torsions:
REMARK  status: ('A' for Active; 'I' for Inactive)
REMARK    1  A    between atoms: C_4  and  C_5
REMARK    2  A    between atoms: C_5  and  N_6
REMARK    3  A    between atoms: N_6  and  C_7
REMARK    4  A    between atoms: C_7  and  C_8
REMARK    5  A    between atoms: C_8  and  C_9
REMARK                            x       y       z     vdW  Elec       q    Type
REMARK                         _______ _______ _______ _____ _____    ______ ____
ROOT
ATOM      1  O   UNL     1       6.698   5.364  19.928  0.00  0.00    +0.000 OA
ATOM      2  C   UNL     1       6.069   4.701  19.113  0.00  0.00    +0.000 A 
ATOM      3  N   UNL     1       5.100   3.818  19.521  0.00  0.00    +0.000 N 
ATOM      4  C   UNL     1       4.378   3.021  18.651  0.00  0.00    +0.000 A 
ATOM      5  N   UNL     1       4.520   2.999  17.355  0.00  0.00    +0.000 NA
ATOM      6  C   UNL     1       5.502   3.888  16.866  0.00  0.00    +0.000 A 
ATOM      7  C   UNL     1       6.225   4.701  17.692  0.00  0.00    +0.000 A 
ATOM      8  S   UNL     1       7.313   5.686  16.864  0.00  0.00    +0.000 S 
ATOM      9  C   UNL     1       6.863   4.999  15.344  0.00  0.00    +0.000 A 
ATOM     10  C   UNL     1       7.399   5.341  14.087  0.00  0.00    +0.000 A 
ATOM     11  C   UNL     1       6.939   4.674  12.953  0.00  0.00    +0.000 A 
ATOM     12  C   UNL     1       5.964   3.691  13.067  0.00  0.00    +0.000 A 
ATOM     13 BR   UNL     1       5.371   2.792  11.513  0.00  0.00    +0.000 Br
ATOM     14  C   UNL     1       5.420   3.356  14.314  0.00  0.00    +0.000 A 
ATOM     15  C   UNL     1       5.869   4.018  15.486  0.00  0.00    +0.000 A 
ATOM     16  H   UNL     1       4.972   3.760  20.520  0.00  0.00    +0.000 HD
ENDROOT
BRANCH   4  17
ATOM     17  C   UNL     1       3.379   2.100  19.347  0.00  0.00    +0.000 C 
BRANCH  17  18
ATOM     18  N   UNL     1       2.205   1.856  18.496  0.00  0.00    +0.000 NA
ATOM     19  H   UNL     1       1.841   0.929  18.733  0.00  0.00    +0.000 HD
BRANCH  18  20
ATOM     20  C   UNL     1       1.118   2.831  18.671  0.00  0.00    +0.000 C 
BRANCH  20  21
ATOM     21  C   UNL     1       1.242   3.687  19.941  0.00  0.00    +0.000 C 
BRANCH  21  22
ATOM     22  C   UNL     1       1.641   5.106  19.627  0.00  0.00    +0.000 A 
ATOM     23  C   UNL     1       1.602   6.100  20.617  0.00  0.00    +0.000 A 
ATOM     24  C   UNL     1       1.948   7.416  20.309  0.00  0.00    +0.000 A 
ATOM     25  C   UNL     1       2.338   7.748  19.013  0.00  0.00    +0.000 A 
ATOM     26  C   UNL     1       2.387   6.765  18.025  0.00  0.00    +0.000 A 
ATOM     27  C   UNL     1       2.039   5.450  18.330  0.00  0.00    +0.000 A 
ENDBRANCH  21  22
ENDBRANCH  20  21
ENDBRANCH  18  20
ENDBRANCH  17  18
ENDBRANCH   4  17
TORSDOF 5
ENDMDL
MODEL 2
REMARK VINA RESULT:      -7.8      0.634      1.217
REMARK  Name = 
REMARK  5 active torsions:
REMARK  status: ('A' for Active; 'I' for Inactive)
REMARK    1  A    between atoms: C_4  and  C_5
REMARK    2  A    between atoms: C_5  and  N_6
REMARK    3  A    between atoms: N_6  and  C_7
REMARK    4  A    between atoms: C_7  and  C_8
REMARK    5  A    between atoms: C_8  and  C_9
REMARK                            x       y       z     vdW  Elec       q    Type
REMARK                         _______ _______ _______ _____ _____    ______ ____
ROOT
ATOM      1  O   UNL     1       6.616   5.509  19.921  0.00  0.00    +0.000 OA
ATOM      2  C   UNL     1       6.021   4.804  19.116  0.00  0.00    +0.000 A 
ATOM      3  N   UNL     1       5.078   3.899  19.535  0.00  0.00    +0.000 N 
ATOM      4  C   UNL     1       4.395   3.055  18.676  0.00  0.00    +0.000 A 
ATOM      5  N   UNL     1       4.555   3.004  17.384  0.00  0.00    +0.000 NA
ATOM      6  C   UNL     1       5.513   3.914  16.884  0.00  0.00    +0.000 A 
ATOM      7  C   UNL     1       6.196   4.772  17.697  0.00  0.00    +0.000 A 
ATOM      8  S   UNL     1       7.261   5.772  16.857  0.00  0.00    +0.000 S 
ATOM      9  C   UNL     1       6.855   5.031  15.350  0.00  0.00    +0.000 A 
ATOM     10  C   UNL     1       7.396   5.358  14.092  0.00  0.00    +0.000 A 
ATOM     11  C   UNL     1       6.974   4.647  12.970  0.00  0.00    +0.000 A 
ATOM     12  C   UNL     1       6.032   3.634  13.098  0.00  0.00    +0.000 A 
ATOM     13 BR   UNL     1       5.491   2.676  11.560  0.00  0.00    +0.000 Br
ATOM     14  C   UNL     1       5.483   3.313  14.346  0.00  0.00    +0.000 A 
ATOM     15  C   UNL     1       5.893   4.020  15.506  0.00  0.00    +0.000 A 
ATOM     16  H   UNL     1       4.938   3.861  20.533  0.00  0.00    +0.000 HD
ENDROOT
BRANCH   4  17
ATOM     17  C   UNL     1       3.419   2.118  19.384  0.00  0.00    +0.000 C 
BRANCH  17  18
ATOM     18  N   UNL     1       3.135   2.585  20.748  0.00  0.00    +0.000 NA
ATOM     19  H   UNL     1       3.584   3.498  20.860  0.00  0.00    +0.000 HD
BRANCH  18  20
ATOM     20  C   UNL     1       1.704   2.740  21.051  0.00  0.00    +0.000 C 
BRANCH  20  21
ATOM     21  C   UNL     1       0.901   3.432  19.938  0.00  0.00    +0.000 C 
BRANCH  21  22
ATOM     22  C   UNL     1       1.450   4.796  19.612  0.00  0.00    +0.000 A 
ATOM     23  C   UNL     1       1.860   5.115  18.307  0.00  0.00    +0.000 A 
ATOM     24  C   UNL     1       2.391   6.372  18.022  0.00  0.00    +0.000 A 
ATOM     25  C   UNL     1       2.517   7.321  19.035  0.00  0.00    +0.000 A 
ATOM     26  C   UNL     1       2.105   7.017  20.332  0.00  0.00    +0.000 A 
ATOM     27  C   UNL     1       1.576   5.759  20.620  0.00  0.00    +0.000 A 
ENDBRANCH  21  22
ENDBRANCH  20  21
ENDBRANCH  18  20
ENDBRANCH  17  18
ENDBRANCH   4  17
TORSDOF 5
ENDMDL
MODEL 3
REMARK VINA RESULT:      -7.8      5.756      7.587
REMARK  Name = 
REMARK  5 active torsions:
REMARK  status: ('A' for Active; 'I' for Inactive)
REMARK    1  A    between atoms: C_4  and  C_5
REMARK    2  A    between atoms: C_5  and  N_6
REMARK    3  A    between atoms: N_6  and  C_7
REMARK    4  A    between atoms: C_7  and  C_8
REMARK    5  A    between atoms: C_8  and  C_9
REMARK                            x       y       z     vdW  Elec       q    Type
REMARK                         _______ _______ _______ _____ _____    ______ ____
ROOT
ATOM      1  O   UNL     1       7.437   5.217  14.591  0.00  0.00    +0.000 OA
ATOM      2  C   UNL     1       7.053   5.471  15.725  0.00  0.00    +0.000 A 
ATOM      3  N   UNL     1       7.691   6.419  16.487  0.00  0.00    +0.000 N 
ATOM      4  C   UNL     1       7.322   6.729  17.785  0.00  0.00    +0.000 A 
ATOM      5  N   UNL     1       6.346   6.172  18.445  0.00  0.00    +0.000 NA
ATOM      6  C   UNL     1       5.644   5.187  17.716  0.00  0.00    +0.000 A 
ATOM      7  C   UNL     1       5.968   4.863  16.430  0.00  0.00    +0.000 A 
ATOM      8  S   UNL     1       4.966   3.679  15.774  0.00  0.00    +0.000 S 
ATOM      9  C   UNL     1       4.078   3.533  17.249  0.00  0.00    +0.000 A 
ATOM     10  C   UNL     1       3.002   2.658  17.487  0.00  0.00    +0.000 A 
ATOM     11  C   UNL     1       2.404   2.651  18.747  0.00  0.00    +0.000 A 
ATOM     12  C   UNL     1       2.867   3.498  19.745  0.00  0.00    +0.000 A 
ATOM     13 BR   UNL     1       2.047   3.453  21.449  0.00  0.00    +0.000 Br
ATOM     14  C   UNL     1       3.931   4.378  19.509  0.00  0.00    +0.000 A 
ATOM     15  C   UNL     1       4.559   4.408  18.237  0.00  0.00    +0.000 A 
ATOM     16  H   UNL     1       8.483   6.858  16.045  0.00  0.00    +0.000 HD
ENDROOT
BRANCH   4  17
ATOM     17  C   UNL     1       8.202   7.795  18.435  0.00  0.00    +0.000 C 
BRANCH  17  18
ATOM     18  N   UNL     1       7.875   9.133  17.922  0.00  0.00    +0.000 NA
ATOM     19  H   UNL     1       6.971   9.402  18.320  0.00  0.00    +0.000 HD
BRANCH  18  20
ATOM     20  C   UNL     1       8.855  10.172  18.273  0.00  0.00    +0.000 C 
BRANCH  20  21
ATOM     21  C   UNL     1       9.355  10.097  19.725  0.00  0.00    +0.000 C 
BRANCH  21  22
ATOM     22  C   UNL     1       9.600  11.463  20.308  0.00  0.00    +0.000 A 
ATOM     23  C   UNL     1      10.474  12.367  19.684  0.00  0.00    +0.000 A 
ATOM     24  C   UNL     1      10.713  13.620  20.248  0.00  0.00    +0.000 A 
ATOM     25  C   UNL     1      10.082  13.982  21.436  0.00  0.00    +0.000 A 
ATOM     26  C   UNL     1       9.206  13.094  22.059  0.00  0.00    +0.000 A 
ATOM     27  C   UNL     1       8.967  11.839  21.499  0.00  0.00    +0.000 A 
ENDBRANCH  21  22
ENDBRANCH  20  21
ENDBRANCH  18  20
ENDBRANCH  17  18
ENDBRANCH   4  17
TORSDOF 5
ENDMDL
MODEL 4
REMARK VINA RESULT:      -7.8      5.857      7.848
REMARK  Name = 
REMARK  5 active torsions:
REMARK  status: ('A' for Active; 'I' for Inactive)
REMARK    1  A    between atoms: C_4  and  C_5
REMARK    2  A    between atoms: C_5  and  N_6
REMARK    3  A    between atoms: N_6  and  C_7
REMARK    4  A    between atoms: C_7  and  C_8
REMARK    5  A    between atoms: C_8  and  C_9
REMARK                            x       y       z     vdW  Elec       q    Type
REMARK                         _______ _______ _______ _____ _____    ______ ____
ROOT
ATOM      1  O   UNL     1       7.421   5.203  14.622  0.00  0.00    +0.000 OA
ATOM      2  C   UNL     1       7.050   5.432  15.766  0.00  0.00    +0.000 A 
ATOM      3  N   UNL     1       7.693   6.365  16.542  0.00  0.00    +0.000 N 
ATOM      4  C   UNL     1       7.338   6.645  17.849  0.00  0.00    +0.000 A 
ATOM      5  N   UNL     1       6.370   6.071  18.508  0.00  0.00    +0.000 NA
ATOM      6  C   UNL     1       5.663   5.099  17.766  0.00  0.00    +0.000 A 
ATOM      7  C   UNL     1       5.974   4.805  16.469  0.00  0.00    +0.000 A 
ATOM      8  S   UNL     1       4.968   3.632  15.798  0.00  0.00    +0.000 S 
ATOM      9  C   UNL     1       4.097   3.452  17.280  0.00  0.00    +0.000 A 
ATOM     10  C   UNL     1       3.026   2.568  17.511  0.00  0.00    +0.000 A 
ATOM     11  C   UNL     1       2.442   2.531  18.776  0.00  0.00    +0.000 A 
ATOM     12  C   UNL     1       2.913   3.358  19.788  0.00  0.00    +0.000 A 
ATOM     13 BR   UNL     1       2.112   3.274  21.499  0.00  0.00    +0.000 Br
ATOM     14  C   UNL     1       3.972   4.246  19.559  0.00  0.00    +0.000 A 
ATOM     15  C   UNL     1       4.586   4.306  18.281  0.00  0.00    +0.000 A 
ATOM     16  H   UNL     1       8.479   6.816  16.100  0.00  0.00    +0.000 HD
ENDROOT
BRANCH   4  17
ATOM     17  C   UNL     1       8.221   7.699  18.513  0.00  0.00    +0.000 C 
BRANCH  17  18
ATOM     18  N   UNL     1       8.135   8.983  17.802  0.00  0.00    +0.000 NA
ATOM     19  H   UNL     1       7.148   9.147  17.584  0.00  0.00    +0.000 HD
BRANCH  18  20
ATOM     20  C   UNL     1       8.630  10.135  18.570  0.00  0.00    +0.000 C 
BRANCH  20  21
ATOM     21  C   UNL     1      10.017  10.632  18.130  0.00  0.00    +0.000 C 
BRANCH  21  22
ATOM     22  C   UNL     1      10.050  12.127  17.954  0.00  0.00    +0.000 A 
ATOM     23  C   UNL     1      11.086  12.745  17.237  0.00  0.00    +0.000 A 
ATOM     24  C   UNL     1      11.121  14.133  17.103  0.00  0.00    +0.000 A 
ATOM     25  C   UNL     1      10.122  14.914  17.681  0.00  0.00    +0.000 A 
ATOM     26  C   UNL     1       9.085  14.308  18.389  0.00  0.00    +0.000 A 
ATOM     27  C   UNL     1       9.049  12.922  18.527  0.00  0.00    +0.000 A 
ENDBRANCH  21  22
ENDBRANCH  20  21
ENDBRANCH  18  20
ENDBRANCH  17  18
ENDBRANCH   4  17
TORSDOF 5
ENDMDL
MODEL 5
REMARK VINA RESULT:      -7.7      1.013      1.467
REMARK  Name = 
REMARK  5 active torsions:
REMARK  status: ('A' for Active; 'I' for Inactive)
REMARK    1  A    between atoms: C_4  and  C_5
REMARK    2  A    between atoms: C_5  and  N_6
REMARK    3  A    between atoms: N_6  and  C_7
REMARK    4  A    between atoms: C_7  and  C_8
REMARK    5  A    between atoms: C_8  and  C_9
REMARK                            x       y       z     vdW  Elec       q    Type
REMARK                         _______ _______ _______ _____ _____    ______ ____
ROOT
ATOM      1  O   UNL     1       6.776   5.270  19.848  0.00  0.00    +0.000 OA
ATOM      2  C   UNL     1       5.990   4.806  19.034  0.00  0.00    +0.000 A 
ATOM      3  N   UNL     1       4.800   4.253  19.441  0.00  0.00    +0.000 N 
ATOM      4  C   UNL     1       3.885   3.686  18.571  0.00  0.00    +0.000 A 
ATOM      5  N   UNL     1       4.027   3.599  17.278  0.00  0.00    +0.000 NA
ATOM      6  C   UNL     1       5.231   4.152  16.791  0.00  0.00    +0.000 A 
ATOM      7  C   UNL     1       6.153   4.733  17.615  0.00  0.00    +0.000 A 
ATOM      8  S   UNL     1       7.489   5.341  16.789  0.00  0.00    +0.000 S 
ATOM      9  C   UNL     1       6.873   4.788  15.273  0.00  0.00    +0.000 A 
ATOM     10  C   UNL     1       7.498   4.934  14.020  0.00  0.00    +0.000 A 
ATOM     11  C   UNL     1       6.874   4.410  12.888  0.00  0.00    +0.000 A 
ATOM     12  C   UNL     1       5.653   3.758  13.003  0.00  0.00    +0.000 A 
ATOM     13 BR   UNL     1       4.838   3.043  11.453  0.00  0.00    +0.000 Br
ATOM     14  C   UNL     1       5.023   3.620  14.247  0.00  0.00    +0.000 A 
ATOM     15  C   UNL     1       5.634   4.143  15.415  0.00  0.00    +0.000 A 
ATOM     16  H   UNL     1       4.650   4.253  20.438  0.00  0.00    +0.000 HD
ENDROOT
BRANCH   4  17
ATOM     17  C   UNL     1       2.653   3.111  19.266  0.00  0.00    +0.000 C 
BRANCH  17  18
ATOM     18  N   UNL     1       2.406   3.787  20.547  0.00  0.00    +0.000 NA
ATOM     19  H   UNL     1       3.297   4.180  20.864  0.00  0.00    +0.000 HD
BRANCH  18  20
ATOM     20  C   UNL     1       1.425   4.880  20.477  0.00  0.00    +0.000 C 
BRANCH  20  21
ATOM     21  C   UNL     1       1.943   6.222  21.017  0.00  0.00    +0.000 C 
BRANCH  21  22
ATOM     22  C   UNL     1       1.937   7.295  19.959  0.00  0.00    +0.000 A 
ATOM     23  C   UNL     1       1.271   8.513  20.173  0.00  0.00    +0.000 A 
ATOM     24  C   UNL     1       1.251   9.489  19.177  0.00  0.00    +0.000 A 
ATOM     25  C   UNL     1       1.893   9.258  17.962  0.00  0.00    +0.000 A 
ATOM     26  C   UNL     1       2.563   8.055  17.744  0.00  0.00    +0.000 A 
ATOM     27  C   UNL     1       2.583   7.077  18.737  0.00  0.00    +0.000 A 
ENDBRANCH  21  22
ENDBRANCH  20  21
ENDBRANCH  18  20
ENDBRANCH  17  18
ENDBRANCH   4  17
TORSDOF 5
ENDMDL
MODEL 6
REMARK VINA RESULT:      -7.7      5.940      7.809
REMARK  Name = 
REMARK  5 active torsions:
REMARK  status: ('A' for Active; 'I' for Inactive)
REMARK    1  A    between atoms: C_4  and  C_5
REMARK    2  A    between atoms: C_5  and  N_6
REMARK    3  A    between atoms: N_6  and  C_7
REMARK    4  A    between atoms: C_7  and  C_8
REMARK    5  A    between atoms: C_8  and  C_9
REMARK                            x       y       z     vdW  Elec       q    Type
REMARK                         _______ _______ _______ _____ _____    ______ ____
ROOT
ATOM      1  O   UNL     1       7.343   5.106  14.686  0.00  0.00    +0.000 OA
ATOM      2  C   UNL     1       6.988   5.323  15.838  0.00  0.00    +0.000 A 
ATOM      3  N   UNL     1       7.659   6.227  16.623  0.00  0.00    +0.000 N 
ATOM      4  C   UNL     1       7.323   6.493  17.939  0.00  0.00    +0.000 A 
ATOM      5  N   UNL     1       6.349   5.929  18.597  0.00  0.00    +0.000 NA
ATOM      6  C   UNL     1       5.613   4.987  17.845  0.00  0.00    +0.000 A 
ATOM      7  C   UNL     1       5.905   4.708  16.541  0.00  0.00    +0.000 A 
ATOM      8  S   UNL     1       4.866   3.570  15.860  0.00  0.00    +0.000 S 
ATOM      9  C   UNL     1       4.006   3.384  17.346  0.00  0.00    +0.000 A 
ATOM     10  C   UNL     1       2.916   2.521  17.573  0.00  0.00    +0.000 A 
ATOM     11  C   UNL     1       2.344   2.475  18.844  0.00  0.00    +0.000 A 
ATOM     12  C   UNL     1       2.844   3.273  19.864  0.00  0.00    +0.000 A 
ATOM     13 BR   UNL     1       2.058   3.177  21.581  0.00  0.00    +0.000 Br
ATOM     14  C   UNL     1       3.921   4.141  19.640  0.00  0.00    +0.000 A 
ATOM     15  C   UNL     1       4.523   4.210  18.358  0.00  0.00    +0.000 A 
ATOM     16  H   UNL     1       8.451   6.668  16.182  0.00  0.00    +0.000 HD
ENDROOT
BRANCH   4  17
ATOM     17  C   UNL     1       8.237   7.515  18.612  0.00  0.00    +0.000 C 
BRANCH  17  18
ATOM     18  N   UNL     1       8.217   8.795  17.890  0.00  0.00    +0.000 NA
ATOM     19  H   UNL     1       7.251   8.969  17.598  0.00  0.00    +0.000 HD
BRANCH  18  20
ATOM     20  C   UNL     1       8.666   9.947  18.688  0.00  0.00    +0.000 C 
BRANCH  20  21
ATOM     21  C   UNL     1       9.673  10.855  17.964  0.00  0.00    +0.000 C 
BRANCH  21  22
ATOM     22  C   UNL     1      10.176  11.961  18.854  0.00  0.00    +0.000 A 
ATOM     23  C   UNL     1       9.478  12.323  20.017  0.00  0.00    +0.000 A 
ATOM     24  C   UNL     1       9.939  13.366  20.820  0.00  0.00    +0.000 A 
ATOM     25  C   UNL     1      11.099  14.053  20.471  0.00  0.00    +0.000 A 
ATOM     26  C   UNL     1      11.804  13.695  19.322  0.00  0.00    +0.000 A 
ATOM     27  C   UNL     1      11.343  12.655  18.516  0.00  0.00    +0.000 A 
ENDBRANCH  21  22
ENDBRANCH  20  21
ENDBRANCH  18  20
ENDBRANCH  17  18
ENDBRANCH   4  17
TORSDOF 5
ENDMDL
MODEL 7
REMARK VINA RESULT:      -7.4      3.111      7.435
REMARK  Name = 
REMARK  5 active torsions:
REMARK  status: ('A' for Active; 'I' for Inactive)
REMARK    1  A    between atoms: C_4  and  C_5
REMARK    2  A    between atoms: C_5  and  N_6
REMARK    3  A    between atoms: N_6  and  C_7
REMARK    4  A    between atoms: C_7  and  C_8
REMARK    5  A    between atoms: C_8  and  C_9
REMARK                            x       y       z     vdW  Elec       q    Type
REMARK                         _______ _______ _______ _____ _____    ______ ____
ROOT
ATOM      1  O   UNL     1       3.805   2.303  20.058  0.00  0.00    +0.000 OA
ATOM      2  C   UNL     1       3.790   3.237  19.266  0.00  0.00    +0.000 A 
ATOM      3  N   UNL     1       4.434   3.145  18.057  0.00  0.00    +0.000 N 
ATOM      4  C   UNL     1       4.477   4.176  17.135  0.00  0.00    +0.000 A 
ATOM      5  N   UNL     1       3.928   5.349  17.289  0.00  0.00    +0.000 NA
ATOM      6  C   UNL     1       3.245   5.511  18.514  0.00  0.00    +0.000 A 
ATOM      7  C   UNL     1       3.168   4.512  19.443  0.00  0.00    +0.000 A 
ATOM      8  S   UNL     1       2.277   4.945  20.805  0.00  0.00    +0.000 S 
ATOM      9  C   UNL     1       2.002   6.536  20.190  0.00  0.00    +0.000 A 
ATOM     10  C   UNL     1       1.284   7.562  20.832  0.00  0.00    +0.000 A 
ATOM     11  C   UNL     1       1.172   8.802  20.205  0.00  0.00    +0.000 A 
ATOM     12  C   UNL     1       1.759   9.014  18.964  0.00  0.00    +0.000 A 
ATOM     13 BR   UNL     1       1.603  10.711  18.146  0.00  0.00    +0.000 Br
ATOM     14  C   UNL     1       2.465   7.991  18.317  0.00  0.00    +0.000 A 
ATOM     15  C   UNL     1       2.596   6.719  18.930  0.00  0.00    +0.000 A 
ATOM     16  H   UNL     1       4.915   2.273  17.896  0.00  0.00    +0.000 HD
ENDROOT
BRANCH   4  17
ATOM     17  C   UNL     1       5.280   3.844  15.879  0.00  0.00    +0.000 C 
BRANCH  17  18
ATOM     18  N   UNL     1       5.968   5.035  15.362  0.00  0.00    +0.000 NA
ATOM     19  H   UNL     1       6.235   5.610  16.168  0.00  0.00    +0.000 HD
BRANCH  18  20
ATOM     20  C   UNL     1       7.184   4.745  14.587  0.00  0.00    +0.000 C 
BRANCH  20  21
ATOM     21  C   UNL     1       7.042   5.006  13.079  0.00  0.00    +0.000 C 
BRANCH  21  22
ATOM     22  C   UNL     1       6.572   3.782  12.337  0.00  0.00    +0.000 A 
ATOM     23  C   UNL     1       5.203   3.532  12.154  0.00  0.00    +0.000 A 
ATOM     24  C   UNL     1       4.780   2.382  11.488  0.00  0.00    +0.000 A 
ATOM     25  C   UNL     1       5.717   1.474  10.999  0.00  0.00    +0.000 A 
ATOM     26  C   UNL     1       7.079   1.718  11.170  0.00  0.00    +0.000 A 
ATOM     27  C   UNL     1       7.506   2.865  11.838  0.00  0.00    +0.000 A 
ENDBRANCH  21  22
ENDBRANCH  20  21
ENDBRANCH  18  20
ENDBRANCH  17  18
ENDBRANCH   4  17
TORSDOF 5
ENDMDL
MODEL 8
REMARK VINA RESULT:      -7.3      7.199     10.466
REMARK  Name = 
REMARK  5 active torsions:
REMARK  status: ('A' for Active; 'I' for Inactive)
REMARK    1  A    between atoms: C_4  and  C_5
REMARK    2  A    between atoms: C_5  and  N_6
REMARK    3  A    between atoms: N_6  and  C_7
REMARK    4  A    between atoms: C_7  and  C_8
REMARK    5  A    between atoms: C_8  and  C_9
REMARK                            x       y       z     vdW  Elec       q    Type
REMARK                         _______ _______ _______ _____ _____    ______ ____
ROOT
ATOM      1  O   UNL     1      -2.559   9.702  16.186  0.00  0.00    +0.000 OA
ATOM      2  C   UNL     1      -1.937  10.146  17.142  0.00  0.00    +0.000 A 
ATOM      3  N   UNL     1      -0.611   9.837  17.325  0.00  0.00    +0.000 N 
ATOM      4  C   UNL     1       0.136  10.284  18.400  0.00  0.00    +0.000 A 
ATOM      5  N   UNL     1      -0.309  11.039  19.365  0.00  0.00    +0.000 NA
ATOM      6  C   UNL     1      -1.669  11.398  19.238  0.00  0.00    +0.000 A 
ATOM      7  C   UNL     1      -2.435  10.988  18.185  0.00  0.00    +0.000 A 
ATOM      8  S   UNL     1      -4.014  11.571  18.250  0.00  0.00    +0.000 S 
ATOM      9  C   UNL     1      -3.717  12.370  19.753  0.00  0.00    +0.000 A 
ATOM     10  C   UNL     1      -4.650  13.121  20.493  0.00  0.00    +0.000 A 
ATOM     11  C   UNL     1      -4.252  13.687  21.703  0.00  0.00    +0.000 A 
ATOM     12  C   UNL     1      -2.954  13.512  22.164  0.00  0.00    +0.000 A 
ATOM     13 BR   UNL     1      -2.449  14.279  23.817  0.00  0.00    +0.000 Br
ATOM     14  C   UNL     1      -2.020  12.775  21.425  0.00  0.00    +0.000 A 
ATOM     15  C   UNL     1      -2.395  12.187  20.190  0.00  0.00    +0.000 A 
ATOM     16  H   UNL     1      -0.219   9.220  16.630  0.00  0.00    +0.000 HD
ENDROOT
BRANCH   4  17
ATOM     17  C   UNL     1       1.578   9.781  18.398  0.00  0.00    +0.000 C 
BRANCH  17  18
ATOM     18  N   UNL     1       1.665   8.436  17.812  0.00  0.00    +0.000 NA
ATOM     19  H   UNL     1       1.822   8.548  16.806  0.00  0.00    +0.000 HD
BRANCH  18  20
ATOM     20  C   UNL     1       2.754   7.608  18.354  0.00  0.00    +0.000 C 
BRANCH  20  21
ATOM     21  C   UNL     1       2.401   6.891  19.666  0.00  0.00    +0.000 C 
BRANCH  21  22
ATOM     22  C   UNL     1       1.964   5.469  19.431  0.00  0.00    +0.000 A 
ATOM     23  C   UNL     1       2.037   4.895  18.152  0.00  0.00    +0.000 A 
ATOM     24  C   UNL     1       1.604   3.586  17.941  0.00  0.00    +0.000 A 
ATOM     25  C   UNL     1       1.098   2.840  19.003  0.00  0.00    +0.000 A 
ATOM     26  C   UNL     1       1.029   3.399  20.278  0.00  0.00    +0.000 A 
ATOM     27  C   UNL     1       1.458   4.708  20.492  0.00  0.00    +0.000 A 
ENDBRANCH  21  22
ENDBRANCH  20  21
ENDBRANCH  18  20
ENDBRANCH  17  18
ENDBRANCH   4  17
TORSDOF 5
ENDMDL
MODEL 9
REMARK VINA RESULT:      -7.1      6.749      9.919
REMARK  Name = 
REMARK  5 active torsions:
REMARK  status: ('A' for Active; 'I' for Inactive)
REMARK    1  A    between atoms: C_4  and  C_5
REMARK    2  A    between atoms: C_5  and  N_6
REMARK    3  A    between atoms: N_6  and  C_7
REMARK    4  A    between atoms: C_7  and  C_8
REMARK    5  A    between atoms: C_8  and  C_9
REMARK                            x       y       z     vdW  Elec       q    Type
REMARK                         _______ _______ _______ _____ _____    ______ ____
ROOT
ATOM      1  O   UNL     1       1.333  11.557  21.567  0.00  0.00    +0.000 OA
ATOM      2  C   UNL     1       0.583  11.227  20.658  0.00  0.00    +0.000 A 
ATOM      3  N   UNL     1       1.015  10.387  19.660  0.00  0.00    +0.000 N 
ATOM      4  C   UNL     1       0.224  10.002  18.592  0.00  0.00    +0.000 A 
ATOM      5  N   UNL     1      -1.007  10.380  18.390  0.00  0.00    +0.000 NA
ATOM      6  C   UNL     1      -1.516  11.246  19.383  0.00  0.00    +0.000 A 
ATOM      7  C   UNL     1      -0.772  11.637  20.459  0.00  0.00    +0.000 A 
ATOM      8  S   UNL     1      -1.613  12.648  21.512  0.00  0.00    +0.000 S 
ATOM      9  C   UNL     1      -3.016  12.623  20.503  0.00  0.00    +0.000 A 
ATOM     10  C   UNL     1      -4.224  13.304  20.745  0.00  0.00    +0.000 A 
ATOM     11  C   UNL     1      -5.258  13.195  19.816  0.00  0.00    +0.000 A 
ATOM     12  C   UNL     1      -5.093  12.422  18.674  0.00  0.00    +0.000 A 
ATOM     13 BR   UNL     1      -6.507  12.306  17.424  0.00  0.00    +0.000 Br
ATOM     14  C   UNL     1      -3.896  11.734  18.435  0.00  0.00    +0.000 A 
ATOM     15  C   UNL     1      -2.827  11.826  19.363  0.00  0.00    +0.000 A 
ATOM     16  H   UNL     1       1.975  10.092  19.739  0.00  0.00    +0.000 HD
ENDROOT
BRANCH   4  17
ATOM     17  C   UNL     1       0.938   9.088  17.598  0.00  0.00    +0.000 C 
BRANCH  17  18
ATOM     18  N   UNL     1       2.347   8.902  17.971  0.00  0.00    +0.000 NA
ATOM     19  H   UNL     1       2.475   9.310  18.902  0.00  0.00    +0.000 HD
BRANCH  18  20
ATOM     20  C   UNL     1       2.779   7.497  18.027  0.00  0.00    +0.000 C 
BRANCH  20  21
ATOM     21  C   UNL     1       2.681   6.866  19.425  0.00  0.00    +0.000 C 
BRANCH  21  22
ATOM     22  C   UNL     1       2.116   5.471  19.376  0.00  0.00    +0.000 A 
ATOM     23  C   UNL     1       2.029   4.772  18.161  0.00  0.00    +0.000 A 
ATOM     24  C   UNL     1       1.479   3.490  18.124  0.00  0.00    +0.000 A 
ATOM     25  C   UNL     1       1.015   2.897  19.296  0.00  0.00    +0.000 A 
ATOM     26  C   UNL     1       1.105   3.581  20.508  0.00  0.00    +0.000 A 
ATOM     27  C   UNL     1       1.651   4.863  20.548  0.00  0.00    +0.000 A 
ENDBRANCH  21  22
ENDBRANCH  20  21
ENDBRANCH  18  20
ENDBRANCH  17  18
ENDBRANCH   4  17
TORSDOF 5
ENDMDL
