MODEL 1
REMARK VINA RESULT:      -9.0      0.000      0.000
REMARK  Name = 
REMARK  9 active torsions:
REMARK  status: ('A' for Active; 'I' for Inactive)
REMARK    1  A    between atoms: C_1  and  O_2
REMARK    2  A    between atoms: O_2  and  C_3
REMARK    3  A    between atoms: C_7  and  C_8
REMARK    4  A    between atoms: N_9  and  C_10
REMARK    5  A    between atoms: C_15  and  C_16
REMARK    6  A    between atoms: C_16  and  N_17
REMARK    7  A    between atoms: C_19  and  C_20
REMARK    8  A    between atoms: C_32  and  O_33
REMARK    9  A    between atoms: O_33  and  C_34
REMARK                            x       y       z     vdW  Elec       q    Type
REMARK                         _______ _______ _______ _____ _____    ______ ____
ROOT
ATOM      1  C   UNL     1       5.029   5.182  17.247  0.00  0.00    +0.000 A 
ATOM      2  C   UNL     1       4.527   4.519  16.107  0.00  0.00    +0.000 A 
ATOM      3  C   UNL     1       5.376   3.912  15.184  0.00  0.00    +0.000 A 
ATOM      4  C   UNL     1       6.748   3.968  15.375  0.00  0.00    +0.000 A 
ATOM      5  C   UNL     1       7.267   4.654  16.471  0.00  0.00    +0.000 A 
ATOM      6  C   UNL     1       6.427   5.287  17.415  0.00  0.00    +0.000 A 
ENDROOT
BRANCH   1  13
ATOM      7  C   UNL     1       0.755   8.296  20.904  0.00  0.00    +0.000 A 
ATOM      8  C   UNL     1       1.223   6.975  20.888  0.00  0.00    +0.000 A 
ATOM      9  C   UNL     1       2.105   6.531  19.908  0.00  0.00    +0.000 A 
ATOM     10  N   UNL     1       2.668   5.264  20.046  0.00  0.00    +0.000 NA
ATOM     11  C   UNL     1       3.638   4.921  19.259  0.00  0.00    +0.000 A 
ATOM     12  C   UNL     1       4.342   3.621  19.602  0.00  0.00    +0.000 C 
ATOM     13  N   UNL     1       4.083   5.697  18.193  0.00  0.00    +0.000 N 
ATOM     14  C   UNL     1       3.453   6.910  17.901  0.00  0.00    +0.000 A 
ATOM     15  O   UNL     1       3.637   7.588  16.887  0.00  0.00    +0.000 OA
ATOM     16  C   UNL     1       2.481   7.404  18.900  0.00  0.00    +0.000 A 
ATOM     17  C   UNL     1       2.003   8.722  18.874  0.00  0.00    +0.000 A 
ATOM     18  C   UNL     1       1.149   9.182  19.888  0.00  0.00    +0.000 A 
BRANCH   7  20
ATOM     19  C   UNL     1       0.554   9.459  22.988  0.00  0.00    +0.000 C 
ATOM     20  O   UNL     1       0.009   8.574  22.019  0.00  0.00    +0.000 OA
ENDBRANCH   7  20
BRANCH  18  21
ATOM     21  O   UNL     1       0.770  10.491  19.989  0.00  0.00    +0.000 OA
ATOM     22  C   UNL     1       0.373  11.151  18.794  0.00  0.00    +0.000 C 
ENDBRANCH  18  21
ENDBRANCH   1  13
BRANCH   6  23
ATOM     23  C   UNL     1       7.109   5.999  18.561  0.00  0.00    +0.000 C 
BRANCH  23  24
ATOM     24  N   UNL     1       7.698   7.268  18.174  0.00  0.00    +0.000 N 
ATOM     25  C   UNL     1       8.674   7.952  18.842  0.00  0.00    +0.000 A 
ATOM     26  C   UNL     1       8.596   9.231  18.332  0.00  0.00    +0.000 A 
ATOM     27  N   UNL     1       7.651   9.253  17.334  0.00  0.00    +0.000 NA
ATOM     28  N   UNL     1       7.103   8.046  17.251  0.00  0.00    +0.000 NA
BRANCH  26  29
ATOM     29  C   UNL     1       9.285  10.409  18.833  0.00  0.00    +0.000 A 
ATOM     30  C   UNL     1       9.987  11.271  17.976  0.00  0.00    +0.000 A 
ATOM     31  C   UNL     1      10.760  12.316  18.489  0.00  0.00    +0.000 A 
ATOM     32  C   UNL     1      10.829  12.524  19.864  0.00  0.00    +0.000 A 
ATOM     33  C   UNL     1      10.101  11.706  20.725  0.00  0.00    +0.000 A 
ATOM     34  C   UNL     1       9.330  10.657  20.213  0.00  0.00    +0.000 A 
ENDBRANCH  26  29
ENDBRANCH  23  24
ENDBRANCH   6  23
TORSDOF 6
ENDMDL
MODEL 2
REMARK VINA RESULT:      -8.4      3.824      5.073
REMARK  Name = 
REMARK  9 active torsions:
REMARK  status: ('A' for Active; 'I' for Inactive)
REMARK    1  A    between atoms: C_1  and  O_2
REMARK    2  A    between atoms: O_2  and  C_3
REMARK    3  A    between atoms: C_7  and  C_8
REMARK    4  A    between atoms: N_9  and  C_10
REMARK    5  A    between atoms: C_15  and  C_16
REMARK    6  A    between atoms: C_16  and  N_17
REMARK    7  A    between atoms: C_19  and  C_20
REMARK    8  A    between atoms: C_32  and  O_33
REMARK    9  A    between atoms: O_33  and  C_34
REMARK                            x       y       z     vdW  Elec       q    Type
REMARK                         _______ _______ _______ _____ _____    ______ ____
ROOT
ATOM      1  C   UNL     1       2.693   4.165  18.984  0.00  0.00    +0.000 A 
ATOM      2  C   UNL     1       1.684   3.248  18.624  0.00  0.00    +0.000 A 
ATOM      3  C   UNL     1       1.991   1.982  18.129  0.00  0.00    +0.000 A 
ATOM      4  C   UNL     1       3.318   1.613  17.969  0.00  0.00    +0.000 A 
ATOM      5  C   UNL     1       4.331   2.519  18.277  0.00  0.00    +0.000 A 
ATOM      6  C   UNL     1       4.044   3.811  18.771  0.00  0.00    +0.000 A 
ENDROOT
BRANCH   1  13
ATOM      7  C   UNL     1       0.978  10.117  20.707  0.00  0.00    +0.000 A 
ATOM      8  C   UNL     1       0.926   8.877  21.357  0.00  0.00    +0.000 A 
ATOM      9  C   UNL     1       1.289   7.701  20.706  0.00  0.00    +0.000 A 
ATOM     10  N   UNL     1       1.383   6.530  21.454  0.00  0.00    +0.000 NA
ATOM     11  C   UNL     1       1.912   5.481  20.910  0.00  0.00    +0.000 A 
ATOM     12  C   UNL     1       2.176   4.312  21.841  0.00  0.00    +0.000 C 
ATOM     13  N   UNL     1       2.290   5.408  19.572  0.00  0.00    +0.000 N 
ATOM     14  C   UNL     1       2.074   6.499  18.725  0.00  0.00    +0.000 A 
ATOM     15  O   UNL     1       2.199   6.490  17.498  0.00  0.00    +0.000 OA
ATOM     16  C   UNL     1       1.655   7.761  19.371  0.00  0.00    +0.000 A 
ATOM     17  C   UNL     1       1.686   8.985  18.687  0.00  0.00    +0.000 A 
ATOM     18  C   UNL     1       1.363  10.175  19.358  0.00  0.00    +0.000 A 
BRANCH   7  20
ATOM     19  C   UNL     1      -0.508  11.155  22.272  0.00  0.00    +0.000 C 
ATOM     20  O   UNL     1       0.717  11.163  21.552  0.00  0.00    +0.000 OA
ENDBRANCH   7  20
BRANCH  18  21
ATOM     21  O   UNL     1       1.515  11.405  18.781  0.00  0.00    +0.000 OA
ATOM     22  C   UNL     1       2.576  11.562  17.848  0.00  0.00    +0.000 C 
ENDBRANCH  18  21
ENDBRANCH   1  13
BRANCH   6  23
ATOM     23  C   UNL     1       5.228   4.703  19.069  0.00  0.00    +0.000 C 
BRANCH  23  24
ATOM     24  N   UNL     1       6.097   4.899  17.923  0.00  0.00    +0.000 N 
ATOM     25  C   UNL     1       5.707   5.134  16.634  0.00  0.00    +0.000 A 
ATOM     26  C   UNL     1       6.827   4.842  15.886  0.00  0.00    +0.000 A 
ATOM     27  N   UNL     1       7.858   4.528  16.738  0.00  0.00    +0.000 NA
ATOM     28  N   UNL     1       7.397   4.560  17.983  0.00  0.00    +0.000 NA
BRANCH  26  29
ATOM     29  C   UNL     1       6.902   4.742  14.437  0.00  0.00    +0.000 A 
ATOM     30  C   UNL     1       6.139   3.804  13.725  0.00  0.00    +0.000 A 
ATOM     31  C   UNL     1       6.327   3.624  12.351  0.00  0.00    +0.000 A 
ATOM     32  C   UNL     1       7.270   4.389  11.670  0.00  0.00    +0.000 A 
ATOM     33  C   UNL     1       8.003   5.356  12.354  0.00  0.00    +0.000 A 
ATOM     34  C   UNL     1       7.817   5.534  13.729  0.00  0.00    +0.000 A 
ENDBRANCH  26  29
ENDBRANCH  23  24
ENDBRANCH   6  23
TORSDOF 6
ENDMDL
MODEL 3
REMARK VINA RESULT:      -8.4      3.751      5.135
REMARK  Name = 
REMARK  9 active torsions:
REMARK  status: ('A' for Active; 'I' for Inactive)
REMARK    1  A    between atoms: C_1  and  O_2
REMARK    2  A    between atoms: O_2  and  C_3
REMARK    3  A    between atoms: C_7  and  C_8
REMARK    4  A    between atoms: N_9  and  C_10
REMARK    5  A    between atoms: C_15  and  C_16
REMARK    6  A    between atoms: C_16  and  N_17
REMARK    7  A    between atoms: C_19  and  C_20
REMARK    8  A    between atoms: C_32  and  O_33
REMARK    9  A    between atoms: O_33  and  C_34
REMARK                            x       y       z     vdW  Elec       q    Type
REMARK                         _______ _______ _______ _____ _____    ______ ____
ROOT
ATOM      1  C   UNL     1       2.499   4.741  18.769  0.00  0.00    +0.000 A 
ATOM      2  C   UNL     1       1.449   3.870  18.409  0.00  0.00    +0.000 A 
ATOM      3  C   UNL     1       1.699   2.592  17.910  0.00  0.00    +0.000 A 
ATOM      4  C   UNL     1       3.008   2.166  17.747  0.00  0.00    +0.000 A 
ATOM      5  C   UNL     1       4.061   3.025  18.055  0.00  0.00    +0.000 A 
ATOM      6  C   UNL     1       3.832   4.328  18.553  0.00  0.00    +0.000 A 
ENDROOT
BRANCH   1  13
ATOM      7  C   UNL     1       0.998  10.747  20.502  0.00  0.00    +0.000 A 
ATOM      8  C   UNL     1       0.953   9.516  21.170  0.00  0.00    +0.000 A 
ATOM      9  C   UNL     1       1.258   8.326  20.516  0.00  0.00    +0.000 A 
ATOM     10  N   UNL     1       1.365   7.161  21.273  0.00  0.00    +0.000 NA
ATOM     11  C   UNL     1       1.844   6.094  20.715  0.00  0.00    +0.000 A 
ATOM     12  C   UNL     1       2.131   4.931  21.646  0.00  0.00    +0.000 C 
ATOM     13  N   UNL     1       2.152   5.998  19.361  0.00  0.00    +0.000 N 
ATOM     14  C   UNL     1       1.916   7.084  18.512  0.00  0.00    +0.000 A 
ATOM     15  O   UNL     1       1.978   7.058  17.281  0.00  0.00    +0.000 OA
ATOM     16  C   UNL     1       1.557   8.362  19.163  0.00  0.00    +0.000 A 
ATOM     17  C   UNL     1       1.578   9.577  18.463  0.00  0.00    +0.000 A 
ATOM     18  C   UNL     1       1.315  10.781  19.134  0.00  0.00    +0.000 A 
BRANCH   7  20
ATOM     19  C   UNL     1      -0.529  12.257  21.562  0.00  0.00    +0.000 C 
ATOM     20  O   UNL     1       0.802  11.808  21.346  0.00  0.00    +0.000 OA
ENDBRANCH   7  20
BRANCH  18  21
ATOM     21  O   UNL     1       1.463  12.001  18.535  0.00  0.00    +0.000 OA
ATOM     22  C   UNL     1       2.759  12.342  18.058  0.00  0.00    +0.000 C 
ENDBRANCH  18  21
ENDBRANCH   1  13
BRANCH   6  23
ATOM     23  C   UNL     1       5.055   5.166  18.850  0.00  0.00    +0.000 C 
BRANCH  23  24
ATOM     24  N   UNL     1       6.009   5.190  17.756  0.00  0.00    +0.000 N 
ATOM     25  C   UNL     1       5.724   5.346  16.429  0.00  0.00    +0.000 A 
ATOM     26  C   UNL     1       6.859   4.901  15.787  0.00  0.00    +0.000 A 
ATOM     27  N   UNL     1       7.803   4.575  16.732  0.00  0.00    +0.000 NA
ATOM     28  N   UNL     1       7.268   4.752  17.935  0.00  0.00    +0.000 NA
BRANCH  26  29
ATOM     29  C   UNL     1       7.017   4.671  14.360  0.00  0.00    +0.000 A 
ATOM     30  C   UNL     1       7.867   5.469  13.577  0.00  0.00    +0.000 A 
ATOM     31  C   UNL     1       7.900   5.328  12.187  0.00  0.00    +0.000 A 
ATOM     32  C   UNL     1       7.095   4.378  11.562  0.00  0.00    +0.000 A 
ATOM     33  C   UNL     1       6.281   3.548  12.330  0.00  0.00    +0.000 A 
ATOM     34  C   UNL     1       6.245   3.691  13.720  0.00  0.00    +0.000 A 
ENDBRANCH  26  29
ENDBRANCH  23  24
ENDBRANCH   6  23
TORSDOF 6
ENDMDL
MODEL 4
REMARK VINA RESULT:      -8.3      4.888     10.409
REMARK  Name = 
REMARK  9 active torsions:
REMARK  status: ('A' for Active; 'I' for Inactive)
REMARK    1  A    between atoms: C_1  and  O_2
REMARK    2  A    between atoms: O_2  and  C_3
REMARK    3  A    between atoms: C_7  and  C_8
REMARK    4  A    between atoms: N_9  and  C_10
REMARK    5  A    between atoms: C_15  and  C_16
REMARK    6  A    between atoms: C_16  and  N_17
REMARK    7  A    between atoms: C_19  and  C_20
REMARK    8  A    between atoms: C_32  and  O_33
REMARK    9  A    between atoms: O_33  and  C_34
REMARK                            x       y       z     vdW  Elec       q    Type
REMARK                         _______ _______ _______ _____ _____    ______ ____
ROOT
ATOM      1  C   UNL     1       0.728  11.524  19.137  0.00  0.00    +0.000 A 
ATOM      2  C   UNL     1       1.679  12.487  19.536  0.00  0.00    +0.000 A 
ATOM      3  C   UNL     1       1.469  13.849  19.328  0.00  0.00    +0.000 A 
ATOM      4  C   UNL     1       0.308  14.276  18.702  0.00  0.00    +0.000 A 
ATOM      5  C   UNL     1      -0.625  13.339  18.261  0.00  0.00    +0.000 A 
ATOM      6  C   UNL     1      -0.430  11.952  18.452  0.00  0.00    +0.000 A 
ENDROOT
BRANCH   1  13
ATOM      7  C   UNL     1       2.261   5.309  19.737  0.00  0.00    +0.000 A 
ATOM      8  C   UNL     1       1.828   6.283  20.646  0.00  0.00    +0.000 A 
ATOM      9  C   UNL     1       1.650   7.608  20.259  0.00  0.00    +0.000 A 
ATOM     10  N   UNL     1       1.053   8.489  21.160  0.00  0.00    +0.000 NA
ATOM     11  C   UNL     1       0.697   9.662  20.744  0.00  0.00    +0.000 A 
ATOM     12  C   UNL     1      -0.132  10.485  21.712  0.00  0.00    +0.000 C 
ATOM     13  N   UNL     1       0.981  10.155  19.473  0.00  0.00    +0.000 N 
ATOM     14  C   UNL     1       1.718   9.380  18.573  0.00  0.00    +0.000 A 
ATOM     15  O   UNL     1       2.180   9.774  17.500  0.00  0.00    +0.000 OA
ATOM     16  C   UNL     1       1.961   7.973  18.959  0.00  0.00    +0.000 A 
ATOM     17  C   UNL     1       2.425   7.026  18.037  0.00  0.00    +0.000 A 
ATOM     18  C   UNL     1       2.562   5.681  18.416  0.00  0.00    +0.000 A 
BRANCH   7  20
ATOM     19  C   UNL     1       1.009   3.342  20.283  0.00  0.00    +0.000 C 
ATOM     20  O   UNL     1       2.242   4.048  20.271  0.00  0.00    +0.000 OA
ENDBRANCH   7  20
BRANCH  18  21
ATOM     21  O   UNL     1       2.872   4.695  17.522  0.00  0.00    +0.000 OA
ATOM     22  C   UNL     1       4.249   4.407  17.318  0.00  0.00    +0.000 C 
ENDBRANCH  18  21
ENDBRANCH   1  13
BRANCH   6  23
ATOM     23  C   UNL     1      -1.513  11.036  17.930  0.00  0.00    +0.000 C 
BRANCH  23  24
ATOM     24  N   UNL     1      -2.852  11.551  18.154  0.00  0.00    +0.000 N 
ATOM     25  C   UNL     1      -3.375  11.975  19.343  0.00  0.00    +0.000 A 
ATOM     26  C   UNL     1      -4.736  11.971  19.131  0.00  0.00    +0.000 A 
ATOM     27  N   UNL     1      -4.980  11.632  17.822  0.00  0.00    +0.000 NA
ATOM     28  N   UNL     1      -3.818  11.372  17.235  0.00  0.00    +0.000 NA
BRANCH  26  29
ATOM     29  C   UNL     1      -5.773  12.156  20.135  0.00  0.00    +0.000 A 
ATOM     30  C   UNL     1      -6.787  11.206  20.328  0.00  0.00    +0.000 A 
ATOM     31  C   UNL     1      -7.853  11.463  21.195  0.00  0.00    +0.000 A 
ATOM     32  C   UNL     1      -7.910  12.668  21.892  0.00  0.00    +0.000 A 
ATOM     33  C   UNL     1      -6.887  13.602  21.746  0.00  0.00    +0.000 A 
ATOM     34  C   UNL     1      -5.822  13.346  20.876  0.00  0.00    +0.000 A 
ENDBRANCH  26  29
ENDBRANCH  23  24
ENDBRANCH   6  23
TORSDOF 6
ENDMDL
MODEL 5
REMARK VINA RESULT:      -8.2      5.036     10.340
REMARK  Name = 
REMARK  9 active torsions:
REMARK  status: ('A' for Active; 'I' for Inactive)
REMARK    1  A    between atoms: C_1  and  O_2
REMARK    2  A    between atoms: O_2  and  C_3
REMARK    3  A    between atoms: C_7  and  C_8
REMARK    4  A    between atoms: N_9  and  C_10
REMARK    5  A    between atoms: C_15  and  C_16
REMARK    6  A    between atoms: C_16  and  N_17
REMARK    7  A    between atoms: C_19  and  C_20
REMARK    8  A    between atoms: C_32  and  O_33
REMARK    9  A    between atoms: O_33  and  C_34
REMARK                            x       y       z     vdW  Elec       q    Type
REMARK                         _______ _______ _______ _____ _____    ______ ____
ROOT
ATOM      1  C   UNL     1       0.687  11.102  19.087  0.00  0.00    +0.000 A 
ATOM      2  C   UNL     1       1.604  12.117  19.431  0.00  0.00    +0.000 A 
ATOM      3  C   UNL     1       1.331  13.461  19.182  0.00  0.00    +0.000 A 
ATOM      4  C   UNL     1       0.140  13.816  18.569  0.00  0.00    +0.000 A 
ATOM      5  C   UNL     1      -0.761  12.826  18.180  0.00  0.00    +0.000 A 
ATOM      6  C   UNL     1      -0.503  11.456  18.413  0.00  0.00    +0.000 A 
ENDROOT
BRANCH   1  13
ATOM      7  C   UNL     1       2.543   4.998  19.882  0.00  0.00    +0.000 A 
ATOM      8  C   UNL     1       2.030   5.966  20.754  0.00  0.00    +0.000 A 
ATOM      9  C   UNL     1       1.790   7.270  20.330  0.00  0.00    +0.000 A 
ATOM     10  N   UNL     1       1.119   8.136  21.191  0.00  0.00    +0.000 NA
ATOM     11  C   UNL     1       0.711   9.278  20.737  0.00  0.00    +0.000 A 
ATOM     12  C   UNL     1      -0.192  10.075  21.660  0.00  0.00    +0.000 C 
ATOM     13  N   UNL     1       1.005   9.756  19.463  0.00  0.00    +0.000 N 
ATOM     14  C   UNL     1       1.811   9.004  18.603  0.00  0.00    +0.000 A 
ATOM     15  O   UNL     1       2.282   9.399  17.535  0.00  0.00    +0.000 OA
ATOM     16  C   UNL     1       2.120   7.622  19.031  0.00  0.00    +0.000 A 
ATOM     17  C   UNL     1       2.663   6.681  18.145  0.00  0.00    +0.000 A 
ATOM     18  C   UNL     1       2.863   5.356  18.562  0.00  0.00    +0.000 A 
BRANCH   7  20
ATOM     19  C   UNL     1       1.364   3.200  20.937  0.00  0.00    +0.000 C 
ATOM     20  O   UNL     1       2.579   3.750  20.446  0.00  0.00    +0.000 OA
ENDBRANCH   7  20
BRANCH  18  21
ATOM     21  O   UNL     1       3.253   4.369  17.701  0.00  0.00    +0.000 OA
ATOM     22  C   UNL     1       2.254   3.468  17.243  0.00  0.00    +0.000 C 
ENDBRANCH  18  21
ENDBRANCH   1  13
BRANCH   6  23
ATOM     23  C   UNL     1      -1.556  10.478  17.947  0.00  0.00    +0.000 C 
BRANCH  23  24
ATOM     24  N   UNL     1      -2.899  11.029  17.977  0.00  0.00    +0.000 N 
ATOM     25  C   UNL     1      -3.497  11.664  19.029  0.00  0.00    +0.000 A 
ATOM     26  C   UNL     1      -4.841  11.626  18.724  0.00  0.00    +0.000 A 
ATOM     27  N   UNL     1      -4.997  11.055  17.484  0.00  0.00    +0.000 NA
ATOM     28  N   UNL     1      -3.801  10.687  17.039  0.00  0.00    +0.000 NA
BRANCH  26  29
ATOM     29  C   UNL     1      -5.941  11.995  19.601  0.00  0.00    +0.000 A 
ATOM     30  C   UNL     1      -6.099  13.308  20.070  0.00  0.00    +0.000 A 
ATOM     31  C   UNL     1      -7.075  13.615  21.022  0.00  0.00    +0.000 A 
ATOM     32  C   UNL     1      -7.917  12.616  21.506  0.00  0.00    +0.000 A 
ATOM     33  C   UNL     1      -7.803  11.317  21.016  0.00  0.00    +0.000 A 
ATOM     34  C   UNL     1      -6.823  11.009  20.066  0.00  0.00    +0.000 A 
ENDBRANCH  26  29
ENDBRANCH  23  24
ENDBRANCH   6  23
TORSDOF 6
ENDMDL
MODEL 6
REMARK VINA RESULT:      -8.1      3.855      5.385
REMARK  Name = 
REMARK  9 active torsions:
REMARK  status: ('A' for Active; 'I' for Inactive)
REMARK    1  A    between atoms: C_1  and  O_2
REMARK    2  A    between atoms: O_2  and  C_3
REMARK    3  A    between atoms: C_7  and  C_8
REMARK    4  A    between atoms: N_9  and  C_10
REMARK    5  A    between atoms: C_15  and  C_16
REMARK    6  A    between atoms: C_16  and  N_17
REMARK    7  A    between atoms: C_19  and  C_20
REMARK    8  A    between atoms: C_32  and  O_33
REMARK    9  A    between atoms: O_33  and  C_34
REMARK                            x       y       z     vdW  Elec       q    Type
REMARK                         _______ _______ _______ _____ _____    ______ ____
ROOT
ATOM      1  C   UNL     1       2.874   4.589  19.064  0.00  0.00    +0.000 A 
ATOM      2  C   UNL     1       1.874   3.604  18.925  0.00  0.00    +0.000 A 
ATOM      3  C   UNL     1       2.171   2.245  19.018  0.00  0.00    +0.000 A 
ATOM      4  C   UNL     1       3.479   1.843  19.239  0.00  0.00    +0.000 A 
ATOM      5  C   UNL     1       4.490   2.798  19.337  0.00  0.00    +0.000 A 
ATOM      6  C   UNL     1       4.216   4.181  19.235  0.00  0.00    +0.000 A 
ENDROOT
BRANCH   1  13
ATOM      7  C   UNL     1       0.717  10.585  19.914  0.00  0.00    +0.000 A 
ATOM      8  C   UNL     1       1.527   9.986  18.941  0.00  0.00    +0.000 A 
ATOM      9  C   UNL     1       1.924   8.656  19.047  0.00  0.00    +0.000 A 
ATOM     10  N   UNL     1       2.580   8.070  17.966  0.00  0.00    +0.000 NA
ATOM     11  C   UNL     1       2.771   6.789  17.970  0.00  0.00    +0.000 A 
ATOM     12  C   UNL     1       3.295   6.193  16.677  0.00  0.00    +0.000 C 
ATOM     13  N   UNL     1       2.468   5.962  19.048  0.00  0.00    +0.000 N 
ATOM     14  C   UNL     1       1.954   6.512  20.227  0.00  0.00    +0.000 A 
ATOM     15  O   UNL     1       1.819   5.914  21.296  0.00  0.00    +0.000 OA
ATOM     16  C   UNL     1       1.550   7.933  20.169  0.00  0.00    +0.000 A 
ATOM     17  C   UNL     1       0.766   8.518  21.173  0.00  0.00    +0.000 A 
ATOM     18  C   UNL     1       0.329   9.845  21.043  0.00  0.00    +0.000 A 
BRANCH   7  20
ATOM     19  C   UNL     1      -0.947  12.012  18.949  0.00  0.00    +0.000 C 
ATOM     20  O   UNL     1       0.324  11.850  19.562  0.00  0.00    +0.000 OA
ENDBRANCH   7  20
BRANCH  18  21
ATOM     21  O   UNL     1      -0.552  10.416  21.918  0.00  0.00    +0.000 OA
ATOM     22  C   UNL     1      -0.513   9.970  23.268  0.00  0.00    +0.000 C 
ENDBRANCH  18  21
ENDBRANCH   1  13
BRANCH   6  23
ATOM     23  C   UNL     1       5.395   5.118  19.358  0.00  0.00    +0.000 C 
BRANCH  23  24
ATOM     24  N   UNL     1       6.240   5.129  18.177  0.00  0.00    +0.000 N 
ATOM     25  C   UNL     1       5.842   5.369  16.892  0.00  0.00    +0.000 A 
ATOM     26  C   UNL     1       6.875   4.877  16.124  0.00  0.00    +0.000 A 
ATOM     27  N   UNL     1       7.877   4.440  16.957  0.00  0.00    +0.000 NA
ATOM     28  N   UNL     1       7.474   4.595  18.213  0.00  0.00    +0.000 NA
BRANCH  26  29
ATOM     29  C   UNL     1       6.879   4.707  14.679  0.00  0.00    +0.000 A 
ATOM     30  C   UNL     1       6.063   3.755  14.049  0.00  0.00    +0.000 A 
ATOM     31  C   UNL     1       6.181   3.506  12.679  0.00  0.00    +0.000 A 
ATOM     32  C   UNL     1       7.107   4.216  11.918  0.00  0.00    +0.000 A 
ATOM     33  C   UNL     1       7.892   5.196  12.521  0.00  0.00    +0.000 A 
ATOM     34  C   UNL     1       7.776   5.443  13.892  0.00  0.00    +0.000 A 
ENDBRANCH  26  29
ENDBRANCH  23  24
ENDBRANCH   6  23
TORSDOF 6
ENDMDL
MODEL 7
REMARK VINA RESULT:      -7.9      4.779     10.140
REMARK  Name = 
REMARK  9 active torsions:
REMARK  status: ('A' for Active; 'I' for Inactive)
REMARK    1  A    between atoms: C_1  and  O_2
REMARK    2  A    between atoms: O_2  and  C_3
REMARK    3  A    between atoms: C_7  and  C_8
REMARK    4  A    between atoms: N_9  and  C_10
REMARK    5  A    between atoms: C_15  and  C_16
REMARK    6  A    between atoms: C_16  and  N_17
REMARK    7  A    between atoms: C_19  and  C_20
REMARK    8  A    between atoms: C_32  and  O_33
REMARK    9  A    between atoms: O_33  and  C_34
REMARK                            x       y       z     vdW  Elec       q    Type
REMARK                         _______ _______ _______ _____ _____    ______ ____
ROOT
ATOM      1  C   UNL     1       0.746  10.672  19.514  0.00  0.00    +0.000 A 
ATOM      2  C   UNL     1       1.431  11.654  20.262  0.00  0.00    +0.000 A 
ATOM      3  C   UNL     1       1.117  13.007  20.149  0.00  0.00    +0.000 A 
ATOM      4  C   UNL     1       0.121  13.408  19.272  0.00  0.00    +0.000 A 
ATOM      5  C   UNL     1      -0.539  12.460  18.492  0.00  0.00    +0.000 A 
ATOM      6  C   UNL     1      -0.231  11.084  18.582  0.00  0.00    +0.000 A 
ENDROOT
BRANCH   1  13
ATOM      7  C   UNL     1       2.658   4.538  19.745  0.00  0.00    +0.000 A 
ATOM      8  C   UNL     1       2.090   5.403  20.690  0.00  0.00    +0.000 A 
ATOM      9  C   UNL     1       1.850   6.742  20.395  0.00  0.00    +0.000 A 
ATOM     10  N   UNL     1       1.127   7.504  21.311  0.00  0.00    +0.000 NA
ATOM     11  C   UNL     1       0.723   8.684  20.962  0.00  0.00    +0.000 A 
ATOM     12  C   UNL     1      -0.233   9.368  21.920  0.00  0.00    +0.000 C 
ATOM     13  N   UNL     1       1.068   9.298  19.761  0.00  0.00    +0.000 N 
ATOM     14  C   UNL     1       1.924   8.650  18.865  0.00  0.00    +0.000 A 
ATOM     15  O   UNL     1       2.437   9.161  17.868  0.00  0.00    +0.000 OA
ATOM     16  C   UNL     1       2.233   7.234  19.158  0.00  0.00    +0.000 A 
ATOM     17  C   UNL     1       2.832   6.398  18.205  0.00  0.00    +0.000 A 
ATOM     18  C   UNL     1       3.032   5.038  18.487  0.00  0.00    +0.000 A 
BRANCH   7  20
ATOM     19  C   UNL     1       2.286   2.963  21.510  0.00  0.00    +0.000 C 
ATOM     20  O   UNL     1       2.687   3.238  20.175  0.00  0.00    +0.000 OA
ENDBRANCH   7  20
BRANCH  18  21
ATOM     21  O   UNL     1       3.477   4.153  17.546  0.00  0.00    +0.000 OA
ATOM     22  C   UNL     1       4.874   4.128  17.280  0.00  0.00    +0.000 C 
ENDBRANCH  18  21
ENDBRANCH   1  13
BRANCH   6  23
ATOM     23  C   UNL     1      -1.015  10.153  17.684  0.00  0.00    +0.000 C 
BRANCH  23  24
ATOM     24  N   UNL     1      -2.244  10.743  17.186  0.00  0.00    +0.000 N 
ATOM     25  C   UNL     1      -3.095  11.561  17.875  0.00  0.00    +0.000 A 
ATOM     26  C   UNL     1      -4.265  11.515  17.149  0.00  0.00    +0.000 A 
ATOM     27  N   UNL     1      -4.060  10.753  16.025  0.00  0.00    +0.000 NA
ATOM     28  N   UNL     1      -2.820  10.280  16.061  0.00  0.00    +0.000 NA
BRANCH  26  29
ATOM     29  C   UNL     1      -5.556  12.057  17.547  0.00  0.00    +0.000 A 
ATOM     30  C   UNL     1      -6.123  13.161  16.891  0.00  0.00    +0.000 A 
ATOM     31  C   UNL     1      -7.291  13.757  17.374  0.00  0.00    +0.000 A 
ATOM     32  C   UNL     1      -7.917  13.247  18.509  0.00  0.00    +0.000 A 
ATOM     33  C   UNL     1      -7.391  12.124  19.144  0.00  0.00    +0.000 A 
ATOM     34  C   UNL     1      -6.220  11.530  18.663  0.00  0.00    +0.000 A 
ENDBRANCH  26  29
ENDBRANCH  23  24
ENDBRANCH   6  23
TORSDOF 6
ENDMDL
MODEL 8
REMARK VINA RESULT:      -7.6      4.546     10.338
REMARK  Name = 
REMARK  9 active torsions:
REMARK  status: ('A' for Active; 'I' for Inactive)
REMARK    1  A    between atoms: C_1  and  O_2
REMARK    2  A    between atoms: O_2  and  C_3
REMARK    3  A    between atoms: C_7  and  C_8
REMARK    4  A    between atoms: N_9  and  C_10
REMARK    5  A    between atoms: C_15  and  C_16
REMARK    6  A    between atoms: C_16  and  N_17
REMARK    7  A    between atoms: C_19  and  C_20
REMARK    8  A    between atoms: C_32  and  O_33
REMARK    9  A    between atoms: O_33  and  C_34
REMARK                            x       y       z     vdW  Elec       q    Type
REMARK                         _______ _______ _______ _____ _____    ______ ____
ROOT
ATOM      1  C   UNL     1       0.385  10.850  19.439  0.00  0.00    +0.000 A 
ATOM      2  C   UNL     1       0.887  11.845  20.304  0.00  0.00    +0.000 A 
ATOM      3  C   UNL     1       0.314  13.114  20.366  0.00  0.00    +0.000 A 
ATOM      4  C   UNL     1      -0.765  13.419  19.552  0.00  0.00    +0.000 A 
ATOM      5  C   UNL     1      -1.251  12.466  18.659  0.00  0.00    +0.000 A 
ATOM      6  C   UNL     1      -0.680  11.176  18.570  0.00  0.00    +0.000 A 
ENDROOT
BRANCH   1  13
ATOM      7  C   UNL     1       3.473   5.239  18.887  0.00  0.00    +0.000 A 
ATOM      8  C   UNL     1       2.752   5.839  19.927  0.00  0.00    +0.000 A 
ATOM      9  C   UNL     1       2.250   7.132  19.809  0.00  0.00    +0.000 A 
ATOM     10  N   UNL     1       1.396   7.606  20.803  0.00  0.00    +0.000 NA
ATOM     11  C   UNL     1       0.764   8.719  20.606  0.00  0.00    +0.000 A 
ATOM     12  C   UNL     1      -0.303   9.066  21.628  0.00  0.00    +0.000 C 
ATOM     13  N   UNL     1       0.973   9.546  19.506  0.00  0.00    +0.000 N 
ATOM     14  C   UNL     1       1.935   9.206  18.549  0.00  0.00    +0.000 A 
ATOM     15  O   UNL     1       2.331   9.938  17.640  0.00  0.00    +0.000 OA
ATOM     16  C   UNL     1       2.520   7.852  18.657  0.00  0.00    +0.000 A 
ATOM     17  C   UNL     1       3.266   7.288  17.613  0.00  0.00    +0.000 A 
ATOM     18  C   UNL     1       3.733   5.968  17.715  0.00  0.00    +0.000 A 
BRANCH   7  20
ATOM     19  C   UNL     1       3.101   3.288  20.225  0.00  0.00    +0.000 C 
ATOM     20  O   UNL     1       3.761   3.923  19.139  0.00  0.00    +0.000 OA
ENDBRANCH   7  20
BRANCH  18  21
ATOM     21  O   UNL     1       4.339   5.323  16.673  0.00  0.00    +0.000 OA
ATOM     22  C   UNL     1       5.225   6.082  15.860  0.00  0.00    +0.000 C 
ENDBRANCH  18  21
ENDBRANCH   1  13
BRANCH   6  23
ATOM     23  C   UNL     1      -1.294  10.229  17.564  0.00  0.00    +0.000 C 
BRANCH  23  24
ATOM     24  N   UNL     1      -2.743  10.314  17.512  0.00  0.00    +0.000 N 
ATOM     25  C   UNL     1      -3.486  11.433  17.262  0.00  0.00    +0.000 A 
ATOM     26  C   UNL     1      -4.746  11.107  17.715  0.00  0.00    +0.000 A 
ATOM     27  N   UNL     1      -4.740   9.800  18.138  0.00  0.00    +0.000 NA
ATOM     28  N   UNL     1      -3.506   9.326  18.014  0.00  0.00    +0.000 NA
BRANCH  26  29
ATOM     29  C   UNL     1      -5.877  12.010  17.862  0.00  0.00    +0.000 A 
ATOM     30  C   UNL     1      -6.220  12.928  16.857  0.00  0.00    +0.000 A 
ATOM     31  C   UNL     1      -7.219  13.882  17.070  0.00  0.00    +0.000 A 
ATOM     32  C   UNL     1      -7.897  13.922  18.286  0.00  0.00    +0.000 A 
ATOM     33  C   UNL     1      -7.599  12.989  19.276  0.00  0.00    +0.000 A 
ATOM     34  C   UNL     1      -6.599  12.036  19.064  0.00  0.00    +0.000 A 
ENDBRANCH  26  29
ENDBRANCH  23  24
ENDBRANCH   6  23
TORSDOF 6
ENDMDL
MODEL 9
REMARK VINA RESULT:      -7.6      4.478      8.684
REMARK  Name = 
REMARK  9 active torsions:
REMARK  status: ('A' for Active; 'I' for Inactive)
REMARK    1  A    between atoms: C_1  and  O_2
REMARK    2  A    between atoms: O_2  and  C_3
REMARK    3  A    between atoms: C_7  and  C_8
REMARK    4  A    between atoms: N_9  and  C_10
REMARK    5  A    between atoms: C_15  and  C_16
REMARK    6  A    between atoms: C_16  and  N_17
REMARK    7  A    between atoms: C_19  and  C_20
REMARK    8  A    between atoms: C_32  and  O_33
REMARK    9  A    between atoms: O_33  and  C_34
REMARK                            x       y       z     vdW  Elec       q    Type
REMARK                         _______ _______ _______ _____ _____    ______ ____
ROOT
ATOM      1  C   UNL     1       0.125  11.541  18.789  0.00  0.00    +0.000 A 
ATOM      2  C   UNL     1      -1.202  12.003  18.668  0.00  0.00    +0.000 A 
ATOM      3  C   UNL     1      -2.186  11.238  18.043  0.00  0.00    +0.000 A 
ATOM      4  C   UNL     1      -1.858  10.001  17.512  0.00  0.00    +0.000 A 
ATOM      5  C   UNL     1      -0.543   9.544  17.581  0.00  0.00    +0.000 A 
ATOM      6  C   UNL     1       0.474  10.305  18.201  0.00  0.00    +0.000 A 
ENDROOT
BRANCH   1  13
ATOM      7  C   UNL     1       4.665  15.390  21.219  0.00  0.00    +0.000 A 
ATOM      8  C   UNL     1       3.523  14.789  21.765  0.00  0.00    +0.000 A 
ATOM      9  C   UNL     1       2.641  14.058  20.975  0.00  0.00    +0.000 A 
ATOM     10  N   UNL     1       1.624  13.342  21.603  0.00  0.00    +0.000 NA
ATOM     11  C   UNL     1       0.928  12.501  20.906  0.00  0.00    +0.000 A 
ATOM     12  C   UNL     1      -0.013  11.607  21.692  0.00  0.00    +0.000 C 
ATOM     13  N   UNL     1       1.050  12.348  19.528  0.00  0.00    +0.000 N 
ATOM     14  C   UNL     1       1.942  13.152  18.812  0.00  0.00    +0.000 A 
ATOM     15  O   UNL     1       2.006  13.233  17.583  0.00  0.00    +0.000 OA
ATOM     16  C   UNL     1       2.877  13.972  19.612  0.00  0.00    +0.000 A 
ATOM     17  C   UNL     1       3.995  14.590  19.034  0.00  0.00    +0.000 A 
ATOM     18  C   UNL     1       4.907  15.289  19.840  0.00  0.00    +0.000 A 
BRANCH   7  20
ATOM     19  C   UNL     1       6.361  15.090  22.884  0.00  0.00    +0.000 C 
ATOM     20  O   UNL     1       5.474  15.945  22.176  0.00  0.00    +0.000 OA
ENDBRANCH   7  20
BRANCH  18  21
ATOM     21  O   UNL     1       6.084  15.786  19.352  0.00  0.00    +0.000 OA
ATOM     22  C   UNL     1       6.590  15.209  18.155  0.00  0.00    +0.000 C 
ENDBRANCH  18  21
ENDBRANCH   1  13
BRANCH   6  23
ATOM     23  C   UNL     1       1.861   9.703  18.214  0.00  0.00    +0.000 C 
BRANCH  23  24
ATOM     24  N   UNL     1       1.983   8.572  19.117  0.00  0.00    +0.000 N 
ATOM     25  C   UNL     1       2.298   7.287  18.777  0.00  0.00    +0.000 A 
ATOM     26  C   UNL     1       1.896   6.544  19.865  0.00  0.00    +0.000 A 
ATOM     27  N   UNL     1       1.437   7.397  20.839  0.00  0.00    +0.000 NA
ATOM     28  N   UNL     1       1.489   8.637  20.367  0.00  0.00    +0.000 NA
BRANCH  26  29
ATOM     29  C   UNL     1       1.827   5.093  19.949  0.00  0.00    +0.000 A 
ATOM     30  C   UNL     1       1.974   4.420  21.172  0.00  0.00    +0.000 A 
ATOM     31  C   UNL     1       2.048   3.025  21.216  0.00  0.00    +0.000 A 
ATOM     32  C   UNL     1       1.961   2.284  20.040  0.00  0.00    +0.000 A 
ATOM     33  C   UNL     1       1.769   2.935  18.824  0.00  0.00    +0.000 A 
ATOM     34  C   UNL     1       1.699   4.331  18.779  0.00  0.00    +0.000 A 
ENDBRANCH  26  29
ENDBRANCH  23  24
ENDBRANCH   6  23
TORSDOF 6
ENDMDL
