MODEL 1
REMARK VINA RESULT:      -8.1      0.000      0.000
REMARK  Name = 
REMARK  5 active torsions:
REMARK  status: ('A' for Active; 'I' for Inactive)
REMARK    1  A    between atoms: C_1  and  C_2
REMARK    2  A    between atoms: C_3  and  C_4
REMARK    3  A    between atoms: C_8  and  O_9
REMARK    4  A    between atoms: O_9  and  C_10
REMARK    5  A    between atoms: N_13  and  C_14
REMARK                            x       y       z     vdW  Elec       q    Type
REMARK                         _______ _______ _______ _____ _____    ______ ____
ROOT
ATOM      1  C   UNL     1      -1.227  11.581  22.760  0.00  0.00    +0.000 C 
ATOM      2  C   UNL     1      -0.437  10.653  21.877  0.00  0.00    +0.000 A 
ATOM      3  C   UNL     1      -0.391  10.697  20.529  0.00  0.00    +0.000 A 
ATOM      4  C   UNL     1      -1.185  11.648  19.670  0.00  0.00    +0.000 C 
ATOM      5  C   UNL     1       0.508   9.765  19.823  0.00  0.00    +0.000 A 
ATOM      6  C   UNL     1       0.743   9.824  18.445  0.00  0.00    +0.000 A 
ATOM      7  C   UNL     1       1.623   8.933  17.819  0.00  0.00    +0.000 A 
ATOM      8  C   UNL     1       2.241   7.926  18.547  0.00  0.00    +0.000 A 
ATOM      9  C   UNL     1       2.048   7.868  19.927  0.00  0.00    +0.000 A 
ATOM     10  C   UNL     1       1.194   8.791  20.542  0.00  0.00    +0.000 A 
ATOM     11  O   UNL     1       1.067   8.702  21.937  0.00  0.00    +0.000 OA
ATOM     12  C   UNL     1       0.332   9.634  22.652  0.00  0.00    +0.000 A 
ATOM     13  O   UNL     1       0.298   9.603  23.879  0.00  0.00    +0.000 OA
ENDROOT
BRANCH   8  14
ATOM     14  O   UNL     1       3.075   6.992  18.003  0.00  0.00    +0.000 OA
BRANCH  14  15
ATOM     15  C   UNL     1       3.038   5.678  18.585  0.00  0.00    +0.000 C 
ATOM     16  C   UNL     1       4.443   5.088  18.500  0.00  0.00    +0.000 C 
ATOM     17  C   UNL     1       4.442   3.626  18.933  0.00  0.00    +0.000 C 
ATOM     18  N   UNL     1       3.495   2.845  18.128  0.00  0.00    +0.000 NA
ATOM     19  C   UNL     1       3.565   1.428  18.484  0.00  0.00    +0.000 C 
ATOM     20  C   UNL     1       2.125   3.350  18.276  0.00  0.00    +0.000 C 
ATOM     21  C   UNL     1       2.029   4.810  17.837  0.00  0.00    +0.000 C 
ENDBRANCH  14  15
ENDBRANCH   8  14
TORSDOF 2
ENDMDL
MODEL 2
REMARK VINA RESULT:      -7.3      1.829      2.385
REMARK  Name = 
REMARK  5 active torsions:
REMARK  status: ('A' for Active; 'I' for Inactive)
REMARK    1  A    between atoms: C_1  and  C_2
REMARK    2  A    between atoms: C_3  and  C_4
REMARK    3  A    between atoms: C_8  and  O_9
REMARK    4  A    between atoms: O_9  and  C_10
REMARK    5  A    between atoms: N_13  and  C_14
REMARK                            x       y       z     vdW  Elec       q    Type
REMARK                         _______ _______ _______ _____ _____    ______ ____
ROOT
ATOM      1  C   UNL     1      -0.579  11.874  22.172  0.00  0.00    +0.000 C 
ATOM      2  C   UNL     1       0.089  10.688  21.529  0.00  0.00    +0.000 A 
ATOM      3  C   UNL     1       0.333  10.541  20.210  0.00  0.00    +0.000 A 
ATOM      4  C   UNL     1      -0.089  11.519  19.141  0.00  0.00    +0.000 C 
ATOM      5  C   UNL     1       1.080   9.353  19.758  0.00  0.00    +0.000 A 
ATOM      6  C   UNL     1       1.514   9.177  18.440  0.00  0.00    +0.000 A 
ATOM      7  C   UNL     1       2.241   8.042  18.060  0.00  0.00    +0.000 A 
ATOM      8  C   UNL     1       2.499   7.032  18.976  0.00  0.00    +0.000 A 
ATOM      9  C   UNL     1       2.106   7.201  20.303  0.00  0.00    +0.000 A 
ATOM     10  C   UNL     1       1.413   8.359  20.674  0.00  0.00    +0.000 A 
ATOM     11  O   UNL     1       1.074   8.486  22.030  0.00  0.00    +0.000 OA
ATOM     12  C   UNL     1       0.482   9.640  22.517  0.00  0.00    +0.000 A 
ATOM     13  O   UNL     1       0.270   9.781  23.718  0.00  0.00    +0.000 OA
ENDROOT
BRANCH   8  14
ATOM     14  O   UNL     1       3.160   5.876  18.673  0.00  0.00    +0.000 OA
BRANCH  14  15
ATOM     15  C   UNL     1       3.880   5.852  17.429  0.00  0.00    +0.000 C 
ATOM     16  C   UNL     1       4.031   4.395  17.003  0.00  0.00    +0.000 C 
ATOM     17  C   UNL     1       4.941   4.280  15.785  0.00  0.00    +0.000 C 
ATOM     18  N   UNL     1       6.251   4.886  16.054  0.00  0.00    +0.000 NA
ATOM     19  C   UNL     1       7.150   4.691  14.917  0.00  0.00    +0.000 C 
ATOM     20  C   UNL     1       6.123   6.312  16.376  0.00  0.00    +0.000 C 
ATOM     21  C   UNL     1       5.242   6.519  17.607  0.00  0.00    +0.000 C 
ENDBRANCH  14  15
ENDBRANCH   8  14
TORSDOF 2
ENDMDL
MODEL 3
REMARK VINA RESULT:      -7.2      1.705      2.391
REMARK  Name = 
REMARK  5 active torsions:
REMARK  status: ('A' for Active; 'I' for Inactive)
REMARK    1  A    between atoms: C_1  and  C_2
REMARK    2  A    between atoms: C_3  and  C_4
REMARK    3  A    between atoms: C_8  and  O_9
REMARK    4  A    between atoms: O_9  and  C_10
REMARK    5  A    between atoms: N_13  and  C_14
REMARK                            x       y       z     vdW  Elec       q    Type
REMARK                         _______ _______ _______ _____ _____    ______ ____
ROOT
ATOM      1  C   UNL     1      -1.548  12.910  21.274  0.00  0.00    +0.000 C 
ATOM      2  C   UNL     1      -0.661  11.815  20.744  0.00  0.00    +0.000 A 
ATOM      3  C   UNL     1      -0.261  10.724  21.430  0.00  0.00    +0.000 A 
ATOM      4  C   UNL     1      -0.580  10.451  22.879  0.00  0.00    +0.000 C 
ATOM      5  C   UNL     1       0.535   9.701  20.727  0.00  0.00    +0.000 A 
ATOM      6  C   UNL     1       0.875   8.470  21.297  0.00  0.00    +0.000 A 
ATOM      7  C   UNL     1       1.614   7.518  20.584  0.00  0.00    +0.000 A 
ATOM      8  C   UNL     1       2.080   7.800  19.307  0.00  0.00    +0.000 A 
ATOM      9  C   UNL     1       1.726   9.008  18.706  0.00  0.00    +0.000 A 
ATOM     10  C   UNL     1       0.954   9.932  19.420  0.00  0.00    +0.000 A 
ATOM     11  O   UNL     1       0.602  11.114  18.748  0.00  0.00    +0.000 OA
ATOM     12  C   UNL     1      -0.247  12.043  19.328  0.00  0.00    +0.000 A 
ATOM     13  O   UNL     1      -0.622  13.030  18.701  0.00  0.00    +0.000 OA
ENDROOT
BRANCH   8  14
ATOM     14  O   UNL     1       2.844   6.945  18.566  0.00  0.00    +0.000 OA
BRANCH  14  15
ATOM     15  C   UNL     1       2.817   5.560  18.949  0.00  0.00    +0.000 C 
ATOM     16  C   UNL     1       4.255   5.053  18.977  0.00  0.00    +0.000 C 
ATOM     17  C   UNL     1       4.293   3.545  19.198  0.00  0.00    +0.000 C 
ATOM     18  N   UNL     1       3.511   2.848  18.169  0.00  0.00    +0.000 NA
ATOM     19  C   UNL     1       3.626   1.399  18.331  0.00  0.00    +0.000 C 
ATOM     20  C   UNL     1       2.104   3.263  18.195  0.00  0.00    +0.000 C 
ATOM     21  C   UNL     1       1.971   4.766  17.955  0.00  0.00    +0.000 C 
ENDBRANCH  14  15
ENDBRANCH   8  14
TORSDOF 2
ENDMDL
MODEL 4
REMARK VINA RESULT:      -7.0      1.735      2.159
REMARK  Name = 
REMARK  5 active torsions:
REMARK  status: ('A' for Active; 'I' for Inactive)
REMARK    1  A    between atoms: C_1  and  C_2
REMARK    2  A    between atoms: C_3  and  C_4
REMARK    3  A    between atoms: C_8  and  O_9
REMARK    4  A    between atoms: O_9  and  C_10
REMARK    5  A    between atoms: N_13  and  C_14
REMARK                            x       y       z     vdW  Elec       q    Type
REMARK                         _______ _______ _______ _____ _____    ______ ____
ROOT
ATOM      1  C   UNL     1      -0.730  12.747  21.778  0.00  0.00    +0.000 C 
ATOM      2  C   UNL     1      -0.142  11.511  21.151  0.00  0.00    +0.000 A 
ATOM      3  C   UNL     1       0.205  11.374  19.854  0.00  0.00    +0.000 A 
ATOM      4  C   UNL     1      -0.006  12.423  18.790  0.00  0.00    +0.000 C 
ATOM      5  C   UNL     1       0.855  10.122  19.426  0.00  0.00    +0.000 A 
ATOM      6  C   UNL     1       1.385   9.934  18.145  0.00  0.00    +0.000 A 
ATOM      7  C   UNL     1       2.014   8.736  17.788  0.00  0.00    +0.000 A 
ATOM      8  C   UNL     1       2.074   7.677  18.684  0.00  0.00    +0.000 A 
ATOM      9  C   UNL     1       1.582   7.853  19.977  0.00  0.00    +0.000 A 
ATOM     10  C   UNL     1       0.990   9.071  20.328  0.00  0.00    +0.000 A 
ATOM     11  O   UNL     1       0.544   9.198  21.654  0.00  0.00    +0.000 OA
ATOM     12  C   UNL     1       0.041  10.399  22.130  0.00  0.00    +0.000 A 
ATOM     13  O   UNL     1      -0.263  10.529  23.313  0.00  0.00    +0.000 OA
ENDROOT
BRANCH   8  14
ATOM     14  O   UNL     1       2.629   6.463  18.397  0.00  0.00    +0.000 OA
BRANCH  14  15
ATOM     15  C   UNL     1       4.065   6.401  18.369  0.00  0.00    +0.000 C 
ATOM     16  C   UNL     1       4.494   6.124  16.931  0.00  0.00    +0.000 C 
ATOM     17  C   UNL     1       5.994   5.864  16.855  0.00  0.00    +0.000 C 
ATOM     18  N   UNL     1       6.377   4.756  17.739  0.00  0.00    +0.000 NA
ATOM     19  C   UNL     1       7.799   4.450  17.594  0.00  0.00    +0.000 C 
ATOM     20  C   UNL     1       6.050   5.053  19.139  0.00  0.00    +0.000 C 
ATOM     21  C   UNL     1       4.553   5.302  19.311  0.00  0.00    +0.000 C 
ENDBRANCH  14  15
ENDBRANCH   8  14
TORSDOF 2
ENDMDL
MODEL 5
REMARK VINA RESULT:      -7.0      3.141      7.458
REMARK  Name = 
REMARK  5 active torsions:
REMARK  status: ('A' for Active; 'I' for Inactive)
REMARK    1  A    between atoms: C_1  and  C_2
REMARK    2  A    between atoms: C_3  and  C_4
REMARK    3  A    between atoms: C_8  and  O_9
REMARK    4  A    between atoms: O_9  and  C_10
REMARK    5  A    between atoms: N_13  and  C_14
REMARK                            x       y       z     vdW  Elec       q    Type
REMARK                         _______ _______ _______ _____ _____    ______ ____
ROOT
ATOM      1  C   UNL     1       4.762   3.909  18.715  0.00  0.00    +0.000 C 
ATOM      2  C   UNL     1       3.918   5.156  18.756  0.00  0.00    +0.000 A 
ATOM      3  C   UNL     1       3.024   5.471  19.717  0.00  0.00    +0.000 A 
ATOM      4  C   UNL     1       2.666   4.586  20.885  0.00  0.00    +0.000 C 
ATOM      5  C   UNL     1       2.347   6.779  19.649  0.00  0.00    +0.000 A 
ATOM      6  C   UNL     1       1.518   7.265  20.666  0.00  0.00    +0.000 A 
ATOM      7  C   UNL     1       0.913   8.524  20.570  0.00  0.00    +0.000 A 
ATOM      8  C   UNL     1       1.075   9.299  19.430  0.00  0.00    +0.000 A 
ATOM      9  C   UNL     1       1.924   8.849  18.418  0.00  0.00    +0.000 A 
ATOM     10  C   UNL     1       2.551   7.605  18.548  0.00  0.00    +0.000 A 
ATOM     11  O   UNL     1       3.418   7.223  17.512  0.00  0.00    +0.000 OA
ATOM     12  C   UNL     1       4.168   6.060  17.595  0.00  0.00    +0.000 A 
ATOM     13  O   UNL     1       4.991   5.778  16.728  0.00  0.00    +0.000 OA
ENDROOT
BRANCH   8  14
ATOM     14  O   UNL     1       0.483  10.514  19.241  0.00  0.00    +0.000 OA
BRANCH  14  15
ATOM     15  C   UNL     1      -0.952  10.526  19.161  0.00  0.00    +0.000 C 
ATOM     16  C   UNL     1      -1.351   9.949  17.807  0.00  0.00    +0.000 C 
ATOM     17  C   UNL     1      -2.851  10.097  17.577  0.00  0.00    +0.000 C 
ATOM     18  N   UNL     1      -3.258  11.504  17.687  0.00  0.00    +0.000 NA
ATOM     19  C   UNL     1      -4.679  11.653  17.375  0.00  0.00    +0.000 C 
ATOM     20  C   UNL     1      -2.960  12.043  19.019  0.00  0.00    +0.000 C 
ATOM     21  C   UNL     1      -1.466  11.956  19.324  0.00  0.00    +0.000 C 
ENDBRANCH  14  15
ENDBRANCH   8  14
TORSDOF 2
ENDMDL
MODEL 6
REMARK VINA RESULT:      -6.9      2.869      7.713
REMARK  Name = 
REMARK  5 active torsions:
REMARK  status: ('A' for Active; 'I' for Inactive)
REMARK    1  A    between atoms: C_1  and  C_2
REMARK    2  A    between atoms: C_3  and  C_4
REMARK    3  A    between atoms: C_8  and  O_9
REMARK    4  A    between atoms: O_9  and  C_10
REMARK    5  A    between atoms: N_13  and  C_14
REMARK                            x       y       z     vdW  Elec       q    Type
REMARK                         _______ _______ _______ _____ _____    ______ ____
ROOT
ATOM      1  C   UNL     1       3.689   1.738  18.609  0.00  0.00    +0.000 C 
ATOM      2  C   UNL     1       3.262   3.178  18.705  0.00  0.00    +0.000 A 
ATOM      3  C   UNL     1       2.539   3.721  19.706  0.00  0.00    +0.000 A 
ATOM      4  C   UNL     1       1.971   2.953  20.873  0.00  0.00    +0.000 C 
ATOM      5  C   UNL     1       2.285   5.174  19.686  0.00  0.00    +0.000 A 
ATOM      6  C   UNL     1       1.677   5.859  20.744  0.00  0.00    +0.000 A 
ATOM      7  C   UNL     1       1.477   7.243  20.692  0.00  0.00    +0.000 A 
ATOM      8  C   UNL     1       1.826   7.964  19.559  0.00  0.00    +0.000 A 
ATOM      9  C   UNL     1       2.464   7.308  18.506  0.00  0.00    +0.000 A 
ATOM     10  C   UNL     1       2.690   5.930  18.590  0.00  0.00    +0.000 A 
ATOM     11  O   UNL     1       3.366   5.333  17.514  0.00  0.00    +0.000 OA
ATOM     12  C   UNL     1       3.733   3.997  17.548  0.00  0.00    +0.000 A 
ATOM     13  O   UNL     1       4.402   3.504  16.644  0.00  0.00    +0.000 OA
ENDROOT
BRANCH   8  14
ATOM     14  O   UNL     1       1.622   9.306  19.413  0.00  0.00    +0.000 OA
BRANCH  14  15
ATOM     15  C   UNL     1       0.339   9.811  19.821  0.00  0.00    +0.000 C 
ATOM     16  C   UNL     1      -0.351  10.388  18.589  0.00  0.00    +0.000 C 
ATOM     17  C   UNL     1      -1.640  11.105  18.977  0.00  0.00    +0.000 C 
ATOM     18  N   UNL     1      -1.374  12.154  19.968  0.00  0.00    +0.000 NA
ATOM     19  C   UNL     1      -2.596  12.900  20.268  0.00  0.00    +0.000 C 
ATOM     20  C   UNL     1      -0.792  11.596  21.194  0.00  0.00    +0.000 C 
ATOM     21  C   UNL     1       0.523  10.877  20.900  0.00  0.00    +0.000 C 
ENDBRANCH  14  15
ENDBRANCH   8  14
TORSDOF 2
ENDMDL
MODEL 7
REMARK VINA RESULT:      -6.8      3.102      7.104
REMARK  Name = 
REMARK  5 active torsions:
REMARK  status: ('A' for Active; 'I' for Inactive)
REMARK    1  A    between atoms: C_1  and  C_2
REMARK    2  A    between atoms: C_3  and  C_4
REMARK    3  A    between atoms: C_8  and  O_9
REMARK    4  A    between atoms: O_9  and  C_10
REMARK    5  A    between atoms: N_13  and  C_14
REMARK                            x       y       z     vdW  Elec       q    Type
REMARK                         _______ _______ _______ _____ _____    ______ ____
ROOT
ATOM      1  C   UNL     1       4.322   3.533  18.530  0.00  0.00    +0.000 C 
ATOM      2  C   UNL     1       3.638   4.851  18.779  0.00  0.00    +0.000 A 
ATOM      3  C   UNL     1       3.743   5.952  18.005  0.00  0.00    +0.000 A 
ATOM      4  C   UNL     1       4.627   6.069  16.788  0.00  0.00    +0.000 C 
ATOM      5  C   UNL     1       2.932   7.135  18.347  0.00  0.00    +0.000 A 
ATOM      6  C   UNL     1       2.853   8.270  17.532  0.00  0.00    +0.000 A 
ATOM      7  C   UNL     1       2.051   9.362  17.885  0.00  0.00    +0.000 A 
ATOM      8  C   UNL     1       1.357   9.368  19.087  0.00  0.00    +0.000 A 
ATOM      9  C   UNL     1       1.394   8.234  19.899  0.00  0.00    +0.000 A 
ATOM     10  C   UNL     1       2.171   7.136  19.512  0.00  0.00    +0.000 A 
ATOM     11  O   UNL     1       2.141   6.013  20.354  0.00  0.00    +0.000 OA
ATOM     12  C   UNL     1       2.790   4.838  20.008  0.00  0.00    +0.000 A 
ATOM     13  O   UNL     1       2.686   3.832  20.704  0.00  0.00    +0.000 OA
ENDROOT
BRANCH   8  14
ATOM     14  O   UNL     1       0.591  10.411  19.523  0.00  0.00    +0.000 OA
BRANCH  14  15
ATOM     15  C   UNL     1      -0.812  10.352  19.218  0.00  0.00    +0.000 C 
ATOM     16  C   UNL     1      -0.957   9.936  17.757  0.00  0.00    +0.000 C 
ATOM     17  C   UNL     1      -2.412  10.028  17.310  0.00  0.00    +0.000 C 
ATOM     18  N   UNL     1      -2.938  11.382  17.524  0.00  0.00    +0.000 NA
ATOM     19  C   UNL     1      -4.303  11.490  17.010  0.00  0.00    +0.000 C 
ATOM     20  C   UNL     1      -2.886  11.757  18.943  0.00  0.00    +0.000 C 
ATOM     21  C   UNL     1      -1.453  11.716  19.469  0.00  0.00    +0.000 C 
ENDBRANCH  14  15
ENDBRANCH   8  14
TORSDOF 2
ENDMDL
MODEL 8
REMARK VINA RESULT:      -6.8      3.087      7.224
REMARK  Name = 
REMARK  5 active torsions:
REMARK  status: ('A' for Active; 'I' for Inactive)
REMARK    1  A    between atoms: C_1  and  C_2
REMARK    2  A    between atoms: C_3  and  C_4
REMARK    3  A    between atoms: C_8  and  O_9
REMARK    4  A    between atoms: O_9  and  C_10
REMARK    5  A    between atoms: N_13  and  C_14
REMARK                            x       y       z     vdW  Elec       q    Type
REMARK                         _______ _______ _______ _____ _____    ______ ____
ROOT
ATOM      1  C   UNL     1       2.541   1.700  19.592  0.00  0.00    +0.000 C 
ATOM      2  C   UNL     1       2.421   3.199  19.658  0.00  0.00    +0.000 A 
ATOM      3  C   UNL     1       2.682   4.055  18.648  0.00  0.00    +0.000 A 
ATOM      4  C   UNL     1       3.211   3.655  17.293  0.00  0.00    +0.000 C 
ATOM      5  C   UNL     1       2.424   5.492  18.857  0.00  0.00    +0.000 A 
ATOM      6  C   UNL     1       2.519   6.443  17.835  0.00  0.00    +0.000 A 
ATOM      7  C   UNL     1       2.242   7.795  18.073  0.00  0.00    +0.000 A 
ATOM      8  C   UNL     1       1.922   8.234  19.350  0.00  0.00    +0.000 A 
ATOM      9  C   UNL     1       1.789   7.300  20.377  0.00  0.00    +0.000 A 
ATOM     10  C   UNL     1       2.033   5.947  20.113  0.00  0.00    +0.000 A 
ATOM     11  O   UNL     1       1.850   5.052  21.179  0.00  0.00    +0.000 OA
ATOM     12  C   UNL     1       1.961   3.683  20.994  0.00  0.00    +0.000 A 
ATOM     13  O   UNL     1       1.712   2.902  21.908  0.00  0.00    +0.000 OA
ENDROOT
BRANCH   8  14
ATOM     14  O   UNL     1       1.684   9.540  19.672  0.00  0.00    +0.000 OA
BRANCH  14  15
ATOM     15  C   UNL     1       0.320   9.896  19.950  0.00  0.00    +0.000 C 
ATOM     16  C   UNL     1      -0.302  10.416  18.658  0.00  0.00    +0.000 C 
ATOM     17  C   UNL     1      -1.693  10.983  18.917  0.00  0.00    +0.000 C 
ATOM     18  N   UNL     1      -1.644  12.039  19.936  0.00  0.00    +0.000 NA
ATOM     19  C   UNL     1      -2.964  12.643  20.115  0.00  0.00    +0.000 C 
ATOM     20  C   UNL     1      -1.131  11.526  21.212  0.00  0.00    +0.000 C 
ATOM     21  C   UNL     1       0.278  10.958  21.048  0.00  0.00    +0.000 C 
ENDBRANCH  14  15
ENDBRANCH   8  14
TORSDOF 2
ENDMDL
MODEL 9
REMARK VINA RESULT:      -6.7      3.072      7.108
REMARK  Name = 
REMARK  5 active torsions:
REMARK  status: ('A' for Active; 'I' for Inactive)
REMARK    1  A    between atoms: C_1  and  C_2
REMARK    2  A    between atoms: C_3  and  C_4
REMARK    3  A    between atoms: C_8  and  O_9
REMARK    4  A    between atoms: O_9  and  C_10
REMARK    5  A    between atoms: N_13  and  C_14
REMARK                            x       y       z     vdW  Elec       q    Type
REMARK                         _______ _______ _______ _____ _____    ______ ____
ROOT
ATOM      1  C   UNL     1       3.617   2.360  20.051  0.00  0.00    +0.000 C 
ATOM      2  C   UNL     1       3.295   3.808  19.796  0.00  0.00    +0.000 A 
ATOM      3  C   UNL     1       3.786   4.558  18.788  0.00  0.00    +0.000 A 
ATOM      4  C   UNL     1       4.803   4.087  17.778  0.00  0.00    +0.000 C 
ATOM      5  C   UNL     1       3.294   5.940  18.632  0.00  0.00    +0.000 A 
ATOM      6  C   UNL     1       3.623   6.751  17.540  0.00  0.00    +0.000 A 
ATOM      7  C   UNL     1       3.115   8.050  17.422  0.00  0.00    +0.000 A 
ATOM      8  C   UNL     1       2.314   8.588  18.420  0.00  0.00    +0.000 A 
ATOM      9  C   UNL     1       1.946   7.786  19.501  0.00  0.00    +0.000 A 
ATOM     10  C   UNL     1       2.433   6.477  19.585  0.00  0.00    +0.000 A 
ATOM     11  O   UNL     1       2.000   5.710  20.678  0.00  0.00    +0.000 OA
ATOM     12  C   UNL     1       2.339   4.371  20.796  0.00  0.00    +0.000 A 
ATOM     13  O   UNL     1       1.884   3.684  21.705  0.00  0.00    +0.000 OA
ENDROOT
BRANCH   8  14
ATOM     14  O   UNL     1       1.818   9.859  18.400  0.00  0.00    +0.000 OA
BRANCH  14  15
ATOM     15  C   UNL     1       0.581  10.079  19.098  0.00  0.00    +0.000 C 
ATOM     16  C   UNL     1      -0.518  10.269  18.056  0.00  0.00    +0.000 C 
ATOM     17  C   UNL     1      -1.826  10.687  18.719  0.00  0.00    +0.000 C 
ATOM     18  N   UNL     1      -1.640  11.907  19.514  0.00  0.00    +0.000 NA
ATOM     19  C   UNL     1      -2.915  12.356  20.072  0.00  0.00    +0.000 C 
ATOM     20  C   UNL     1      -0.649  11.707  20.578  0.00  0.00    +0.000 C 
ATOM     21  C   UNL     1       0.706  11.308  19.997  0.00  0.00    +0.000 C 
ENDBRANCH  14  15
ENDBRANCH   8  14
TORSDOF 2
ENDMDL
