MODEL 1
REMARK VINA RESULT:      -8.3      0.000      0.000
REMARK  Name = 
REMARK  11 active torsions:
REMARK  status: ('A' for Active; 'I' for Inactive)
REMARK    1  A    between atoms: C_1  and  C_2
REMARK    2  A    between atoms: C_2  and  C_3
REMARK    3  A    between atoms: C_2  and  C_4
REMARK    4  A    between atoms: C_4  and  C_5
REMARK    5  A    between atoms: C_5  and  N_6
REMARK    6  A    between atoms: N_6  and  C_18
REMARK    7  A    between atoms: C_7  and  C_9
REMARK    8  A    between atoms: C_9  and  C_10
REMARK    9  A    between atoms: C_19  and  N_20
REMARK   10  A    between atoms: N_21  and  C_22
REMARK   11  A    between atoms: C_22  and  C_23
REMARK                            x       y       z     vdW  Elec       q    Type
REMARK                         _______ _______ _______ _____ _____    ______ ____
ROOT
ATOM      1  C   UNL     1       2.401   6.548  19.249  0.00  0.00    +0.000 A 
ATOM      2  C   UNL     1       2.165   7.800  18.763  0.00  0.00    +0.000 A 
ATOM      3  N   UNL     1       1.553   8.759  19.579  0.00  0.00    +0.000 N 
ATOM      4  C   UNL     1       1.150   8.490  20.881  0.00  0.00    +0.000 A 
ATOM      5  O   UNL     1       0.525   9.275  21.593  0.00  0.00    +0.000 OA
ATOM      6  N   UNL     1       1.498   7.280  21.384  0.00  0.00    +0.000 N 
ATOM      7  C   UNL     1       2.023   6.251  20.670  0.00  0.00    +0.000 A 
ATOM      8  O   UNL     1       2.080   5.123  21.156  0.00  0.00    +0.000 OA
ATOM      9  H   UNL     1       1.193   7.073  22.321  0.00  0.00    +0.000 HD
ENDROOT
BRANCH   1  10
ATOM     10  N   UNL     1       2.998   5.500  18.514  0.00  0.00    +0.000 N 
ATOM     11  C   UNL     1       4.378   5.314  18.685  0.00  0.00    +0.000 C 
ATOM     12  O   UNL     1       5.070   6.135  19.298  0.00  0.00    +0.000 OA
BRANCH  10  13
ATOM     13  C   UNL     1       2.149   4.716  17.599  0.00  0.00    +0.000 C 
BRANCH  13  14
ATOM     14  C   UNL     1       1.076   3.829  18.253  0.00  0.00    +0.000 C 
BRANCH  14  16
ATOM     15  C   UNL     1       2.648   1.906  17.673  0.00  0.00    +0.000 C 
ATOM     16  C   UNL     1       1.461   2.365  18.518  0.00  0.00    +0.000 C 
ATOM     17  C   UNL     1       1.787   2.194  20.006  0.00  0.00    +0.000 C 
ENDBRANCH  14  16
ENDBRANCH  13  14
ENDBRANCH  10  13
BRANCH  11  18
ATOM     18  C   UNL     1       5.068   4.108  18.052  0.00  0.00    +0.000 C 
BRANCH  18  19
ATOM     19  C   UNL     1       5.766   4.384  16.730  0.00  0.00    +0.000 A 
ATOM     20  C   UNL     1       7.032   4.978  16.653  0.00  0.00    +0.000 A 
ATOM     21  C   UNL     1       7.650   5.201  15.416  0.00  0.00    +0.000 A 
ATOM     22  C   UNL     1       7.015   4.821  14.233  0.00  0.00    +0.000 A 
ATOM     23 CL   UNL     1       7.830   5.136  12.744  0.00  0.00    +0.000 Cl
ATOM     24  C   UNL     1       5.761   4.206  14.291  0.00  0.00    +0.000 A 
ATOM     25 CL   UNL     1       4.917   3.694  12.873  0.00  0.00    +0.000 Cl
ATOM     26  C   UNL     1       5.148   3.985  15.532  0.00  0.00    +0.000 A 
ENDBRANCH  18  19
ENDBRANCH  11  18
ENDBRANCH   1  10
BRANCH   2  27
ATOM     27  N   UNL     1       2.560   8.144  17.469  0.00  0.00    +0.000 N 
ATOM     28  H   UNL     1       2.118   7.546  16.775  0.00  0.00    +0.000 HD
ATOM     29  H   UNL     1       3.569   8.100  17.358  0.00  0.00    +0.000 HD
ENDBRANCH   2  27
BRANCH   3  30
ATOM     30  C   UNL     1       1.298  10.125  19.098  0.00  0.00    +0.000 C 
BRANCH  30  31
ATOM     31  C   UNL     1      -0.140  10.400  18.684  0.00  0.00    +0.000 A 
ATOM     32  C   UNL     1      -0.835  11.477  19.262  0.00  0.00    +0.000 A 
ATOM     33  C   UNL     1      -2.110  11.834  18.811  0.00  0.00    +0.000 A 
ATOM     34  C   UNL     1      -2.711  11.128  17.773  0.00  0.00    +0.000 A 
ATOM     35  C   UNL     1      -2.042  10.054  17.193  0.00  0.00    +0.000 A 
ATOM     36  C   UNL     1      -0.767   9.696  17.642  0.00  0.00    +0.000 A 
ENDBRANCH  30  31
ENDBRANCH   3  30
TORSDOF 9
ENDMDL
MODEL 2
REMARK VINA RESULT:      -8.2      3.817      8.044
REMARK  Name = 
REMARK  11 active torsions:
REMARK  status: ('A' for Active; 'I' for Inactive)
REMARK    1  A    between atoms: C_1  and  C_2
REMARK    2  A    between atoms: C_2  and  C_3
REMARK    3  A    between atoms: C_2  and  C_4
REMARK    4  A    between atoms: C_4  and  C_5
REMARK    5  A    between atoms: C_5  and  N_6
REMARK    6  A    between atoms: N_6  and  C_18
REMARK    7  A    between atoms: C_7  and  C_9
REMARK    8  A    between atoms: C_9  and  C_10
REMARK    9  A    between atoms: C_19  and  N_20
REMARK   10  A    between atoms: N_21  and  C_22
REMARK   11  A    between atoms: C_22  and  C_23
REMARK                            x       y       z     vdW  Elec       q    Type
REMARK                         _______ _______ _______ _____ _____    ______ ____
ROOT
ATOM      1  C   UNL     1       4.574   5.722  17.714  0.00  0.00    +0.000 A 
ATOM      2  C   UNL     1       5.383   5.908  16.632  0.00  0.00    +0.000 A 
ATOM      3  N   UNL     1       6.654   5.323  16.605  0.00  0.00    +0.000 N 
ATOM      4  C   UNL     1       7.151   4.560  17.654  0.00  0.00    +0.000 A 
ATOM      5  O   UNL     1       8.296   4.111  17.708  0.00  0.00    +0.000 OA
ATOM      6  N   UNL     1       6.292   4.290  18.666  0.00  0.00    +0.000 N 
ATOM      7  C   UNL     1       5.069   4.857  18.835  0.00  0.00    +0.000 A 
ATOM      8  O   UNL     1       4.469   4.734  19.901  0.00  0.00    +0.000 OA
ATOM      9  H   UNL     1       6.652   3.752  19.437  0.00  0.00    +0.000 HD
ENDROOT
BRANCH   1  10
ATOM     10  N   UNL     1       3.281   6.274  17.855  0.00  0.00    +0.000 N 
ATOM     11  C   UNL     1       3.188   7.674  17.850  0.00  0.00    +0.000 C 
ATOM     12  O   UNL     1       4.195   8.389  17.906  0.00  0.00    +0.000 OA
BRANCH  10  13
ATOM     13  C   UNL     1       2.144   5.354  18.040  0.00  0.00    +0.000 C 
BRANCH  13  14
ATOM     14  C   UNL     1       2.211   4.022  17.274  0.00  0.00    +0.000 C 
BRANCH  14  16
ATOM     15  C   UNL     1       3.078   1.857  18.307  0.00  0.00    +0.000 C 
ATOM     16  C   UNL     1       1.864   2.753  18.069  0.00  0.00    +0.000 C 
ATOM     17  C   UNL     1       1.246   3.156  19.412  0.00  0.00    +0.000 C 
ENDBRANCH  14  16
ENDBRANCH  13  14
ENDBRANCH  10  13
BRANCH  11  18
ATOM     18  C   UNL     1       1.817   8.345  17.838  0.00  0.00    +0.000 C 
BRANCH  18  19
ATOM     19  C   UNL     1       1.276   8.733  19.205  0.00  0.00    +0.000 A 
ATOM     20  C   UNL     1       1.660   8.081  20.383  0.00  0.00    +0.000 A 
ATOM     21  C   UNL     1       1.153   8.478  21.626  0.00  0.00    +0.000 A 
ATOM     22  C   UNL     1       0.260   9.547  21.713  0.00  0.00    +0.000 A 
ATOM     23 CL   UNL     1      -0.334   9.976  23.276  0.00  0.00    +0.000 Cl
ATOM     24  C   UNL     1      -0.117  10.225  20.550  0.00  0.00    +0.000 A 
ATOM     25 CL   UNL     1      -1.207  11.567  20.575  0.00  0.00    +0.000 Cl
ATOM     26  C   UNL     1       0.394   9.823  19.309  0.00  0.00    +0.000 A 
ENDBRANCH  18  19
ENDBRANCH  11  18
ENDBRANCH   1  10
BRANCH   2  27
ATOM     27  N   UNL     1       4.940   6.649  15.535  0.00  0.00    +0.000 N 
ATOM     28  H   UNL     1       5.494   6.451  14.705  0.00  0.00    +0.000 HD
ATOM     29  H   UNL     1       4.959   7.649  15.723  0.00  0.00    +0.000 HD
ENDBRANCH   2  27
BRANCH   3  30
ATOM     30  C   UNL     1       7.549   5.485  15.450  0.00  0.00    +0.000 C 
BRANCH  30  31
ATOM     31  C   UNL     1       7.062   4.826  14.167  0.00  0.00    +0.000 A 
ATOM     32  C   UNL     1       7.694   5.132  12.948  0.00  0.00    +0.000 A 
ATOM     33  C   UNL     1       7.357   4.450  11.773  0.00  0.00    +0.000 A 
ATOM     34  C   UNL     1       6.391   3.449  11.797  0.00  0.00    +0.000 A 
ATOM     35  C   UNL     1       5.749   3.137  12.991  0.00  0.00    +0.000 A 
ATOM     36  C   UNL     1       6.085   3.817  14.166  0.00  0.00    +0.000 A 
ENDBRANCH  30  31
ENDBRANCH   3  30
TORSDOF 9
ENDMDL
MODEL 3
REMARK VINA RESULT:      -7.9      3.814      8.053
REMARK  Name = 
REMARK  11 active torsions:
REMARK  status: ('A' for Active; 'I' for Inactive)
REMARK    1  A    between atoms: C_1  and  C_2
REMARK    2  A    between atoms: C_2  and  C_3
REMARK    3  A    between atoms: C_2  and  C_4
REMARK    4  A    between atoms: C_4  and  C_5
REMARK    5  A    between atoms: C_5  and  N_6
REMARK    6  A    between atoms: N_6  and  C_18
REMARK    7  A    between atoms: C_7  and  C_9
REMARK    8  A    between atoms: C_9  and  C_10
REMARK    9  A    between atoms: C_19  and  N_20
REMARK   10  A    between atoms: N_21  and  C_22
REMARK   11  A    between atoms: C_22  and  C_23
REMARK                            x       y       z     vdW  Elec       q    Type
REMARK                         _______ _______ _______ _____ _____    ______ ____
ROOT
ATOM      1  C   UNL     1       4.573   5.649  17.654  0.00  0.00    +0.000 A 
ATOM      2  C   UNL     1       5.404   5.879  16.598  0.00  0.00    +0.000 A 
ATOM      3  N   UNL     1       6.687   5.319  16.587  0.00  0.00    +0.000 N 
ATOM      4  C   UNL     1       7.173   4.538  17.627  0.00  0.00    +0.000 A 
ATOM      5  O   UNL     1       8.325   4.110  17.697  0.00  0.00    +0.000 OA
ATOM      6  N   UNL     1       6.295   4.225  18.611  0.00  0.00    +0.000 N 
ATOM      7  C   UNL     1       5.058   4.765  18.764  0.00  0.00    +0.000 A 
ATOM      8  O   UNL     1       4.435   4.602  19.812  0.00  0.00    +0.000 OA
ATOM      9  H   UNL     1       6.647   3.674  19.376  0.00  0.00    +0.000 HD
ENDROOT
BRANCH   1  10
ATOM     10  N   UNL     1       3.267   6.173  17.778  0.00  0.00    +0.000 N 
ATOM     11  C   UNL     1       3.153   7.567  17.899  0.00  0.00    +0.000 C 
ATOM     12  O   UNL     1       4.146   8.283  18.075  0.00  0.00    +0.000 OA
BRANCH  10  13
ATOM     13  C   UNL     1       2.135   5.229  17.816  0.00  0.00    +0.000 C 
BRANCH  13  14
ATOM     14  C   UNL     1       1.620   4.836  19.211  0.00  0.00    +0.000 C 
BRANCH  14  16
ATOM     15  C   UNL     1       1.844   2.400  18.486  0.00  0.00    +0.000 C 
ATOM     16  C   UNL     1       1.101   3.398  19.372  0.00  0.00    +0.000 C 
ATOM     17  C   UNL     1       1.229   2.981  20.842  0.00  0.00    +0.000 C 
ENDBRANCH  14  16
ENDBRANCH  13  14
ENDBRANCH  10  13
BRANCH  11  18
ATOM     18  C   UNL     1       1.775   8.222  17.877  0.00  0.00    +0.000 C 
BRANCH  18  19
ATOM     19  C   UNL     1       1.250   8.665  19.233  0.00  0.00    +0.000 A 
ATOM     20  C   UNL     1       1.637   8.052  20.431  0.00  0.00    +0.000 A 
ATOM     21  C   UNL     1       1.144   8.499  21.663  0.00  0.00    +0.000 A 
ATOM     22  C   UNL     1       0.262   9.579  21.718  0.00  0.00    +0.000 A 
ATOM     23 CL   UNL     1      -0.314  10.070  23.270  0.00  0.00    +0.000 Cl
ATOM     24  C   UNL     1      -0.118  10.219  20.535  0.00  0.00    +0.000 A 
ATOM     25 CL   UNL     1      -1.196  11.570  20.520  0.00  0.00    +0.000 Cl
ATOM     26  C   UNL     1       0.379   9.767  19.305  0.00  0.00    +0.000 A 
ENDBRANCH  18  19
ENDBRANCH  11  18
ENDBRANCH   1  10
BRANCH   2  27
ATOM     27  N   UNL     1       4.973   6.641  15.510  0.00  0.00    +0.000 N 
ATOM     28  H   UNL     1       4.998   7.636  15.720  0.00  0.00    +0.000 HD
ATOM     29  H   UNL     1       4.035   6.382  15.216  0.00  0.00    +0.000 HD
ENDBRANCH   2  27
BRANCH   3  30
ATOM     30  C   UNL     1       7.605   5.528  15.458  0.00  0.00    +0.000 C 
BRANCH  30  31
ATOM     31  C   UNL     1       7.232   4.786  14.183  0.00  0.00    +0.000 A 
ATOM     32  C   UNL     1       6.220   3.810  14.220  0.00  0.00    +0.000 A 
ATOM     33  C   UNL     1       5.765   3.202  13.044  0.00  0.00    +0.000 A 
ATOM     34  C   UNL     1       6.309   3.561  11.814  0.00  0.00    +0.000 A 
ATOM     35  C   UNL     1       7.317   4.518  11.758  0.00  0.00    +0.000 A 
ATOM     36  C   UNL     1       7.771   5.127  12.932  0.00  0.00    +0.000 A 
ENDBRANCH  30  31
ENDBRANCH   3  30
TORSDOF 9
ENDMDL
MODEL 4
REMARK VINA RESULT:      -7.8      3.882      7.991
REMARK  Name = 
REMARK  11 active torsions:
REMARK  status: ('A' for Active; 'I' for Inactive)
REMARK    1  A    between atoms: C_1  and  C_2
REMARK    2  A    between atoms: C_2  and  C_3
REMARK    3  A    between atoms: C_2  and  C_4
REMARK    4  A    between atoms: C_4  and  C_5
REMARK    5  A    between atoms: C_5  and  N_6
REMARK    6  A    between atoms: N_6  and  C_18
REMARK    7  A    between atoms: C_7  and  C_9
REMARK    8  A    between atoms: C_9  and  C_10
REMARK    9  A    between atoms: C_19  and  N_20
REMARK   10  A    between atoms: N_21  and  C_22
REMARK   11  A    between atoms: C_22  and  C_23
REMARK                            x       y       z     vdW  Elec       q    Type
REMARK                         _______ _______ _______ _____ _____    ______ ____
ROOT
ATOM      1  C   UNL     1       4.526   5.578  17.740  0.00  0.00    +0.000 A 
ATOM      2  C   UNL     1       5.339   5.831  16.675  0.00  0.00    +0.000 A 
ATOM      3  N   UNL     1       6.641   5.317  16.656  0.00  0.00    +0.000 N 
ATOM      4  C   UNL     1       7.164   4.561  17.697  0.00  0.00    +0.000 A 
ATOM      5  O   UNL     1       8.331   4.174  17.760  0.00  0.00    +0.000 OA
ATOM      6  N   UNL     1       6.306   4.223  18.690  0.00  0.00    +0.000 N 
ATOM      7  C   UNL     1       5.051   4.719  18.851  0.00  0.00    +0.000 A 
ATOM      8  O   UNL     1       4.443   4.541  19.905  0.00  0.00    +0.000 OA
ATOM      9  H   UNL     1       6.684   3.690  19.456  0.00  0.00    +0.000 HD
ENDROOT
BRANCH   1  10
ATOM     10  N   UNL     1       3.203   6.056  17.872  0.00  0.00    +0.000 N 
ATOM     11  C   UNL     1       3.034   7.448  17.910  0.00  0.00    +0.000 C 
ATOM     12  O   UNL     1       4.000   8.214  18.011  0.00  0.00    +0.000 OA
BRANCH  10  13
ATOM     13  C   UNL     1       2.113   5.071  18.003  0.00  0.00    +0.000 C 
BRANCH  13  14
ATOM     14  C   UNL     1       2.272   3.766  17.203  0.00  0.00    +0.000 C 
BRANCH  14  16
ATOM     15  C   UNL     1       3.352   1.689  18.215  0.00  0.00    +0.000 C 
ATOM     16  C   UNL     1       2.053   2.456  17.976  0.00  0.00    +0.000 C 
ATOM     17  C   UNL     1       1.382   2.770  19.317  0.00  0.00    +0.000 C 
ENDBRANCH  14  16
ENDBRANCH  13  14
ENDBRANCH  10  13
BRANCH  11  18
ATOM     18  C   UNL     1       1.629   8.046  17.891  0.00  0.00    +0.000 C 
BRANCH  18  19
ATOM     19  C   UNL     1       1.461   9.326  18.694  0.00  0.00    +0.000 A 
ATOM     20  C   UNL     1       1.779  10.588  18.179  0.00  0.00    +0.000 A 
ATOM     21  C   UNL     1       1.595  11.747  18.944  0.00  0.00    +0.000 A 
ATOM     22  C   UNL     1       1.075  11.662  20.236  0.00  0.00    +0.000 A 
ATOM     23 CL   UNL     1       0.884  13.129  21.126  0.00  0.00    +0.000 Cl
ATOM     24  C   UNL     1       0.730  10.412  20.759  0.00  0.00    +0.000 A 
ATOM     25 CL   UNL     1       0.069  10.224  22.345  0.00  0.00    +0.000 Cl
ATOM     26  C   UNL     1       0.917   9.256  19.989  0.00  0.00    +0.000 A 
ENDBRANCH  18  19
ENDBRANCH  11  18
ENDBRANCH   1  10
BRANCH   2  27
ATOM     27  N   UNL     1       4.872   6.569  15.586  0.00  0.00    +0.000 N 
ATOM     28  H   UNL     1       5.575   7.224  15.252  0.00  0.00    +0.000 HD
ATOM     29  H   UNL     1       4.020   7.076  15.811  0.00  0.00    +0.000 HD
ENDBRANCH   2  27
BRANCH   3  30
ATOM     30  C   UNL     1       7.542   5.551  15.519  0.00  0.00    +0.000 C 
BRANCH  30  31
ATOM     31  C   UNL     1       7.112   4.891  14.216  0.00  0.00    +0.000 A 
ATOM     32  C   UNL     1       7.727   5.273  13.010  0.00  0.00    +0.000 A 
ATOM     33  C   UNL     1       7.448   4.598  11.816  0.00  0.00    +0.000 A 
ATOM     34  C   UNL     1       6.557   3.529  11.807  0.00  0.00    +0.000 A 
ATOM     35  C   UNL     1       5.932   3.142  12.988  0.00  0.00    +0.000 A 
ATOM     36  C   UNL     1       6.211   3.815  14.182  0.00  0.00    +0.000 A 
ENDBRANCH  30  31
ENDBRANCH   3  30
TORSDOF 9
ENDMDL
MODEL 5
REMARK VINA RESULT:      -7.8      3.548      7.912
REMARK  Name = 
REMARK  11 active torsions:
REMARK  status: ('A' for Active; 'I' for Inactive)
REMARK    1  A    between atoms: C_1  and  C_2
REMARK    2  A    between atoms: C_2  and  C_3
REMARK    3  A    between atoms: C_2  and  C_4
REMARK    4  A    between atoms: C_4  and  C_5
REMARK    5  A    between atoms: C_5  and  N_6
REMARK    6  A    between atoms: N_6  and  C_18
REMARK    7  A    between atoms: C_7  and  C_9
REMARK    8  A    between atoms: C_9  and  C_10
REMARK    9  A    between atoms: C_19  and  N_20
REMARK   10  A    between atoms: N_21  and  C_22
REMARK   11  A    between atoms: C_22  and  C_23
REMARK                            x       y       z     vdW  Elec       q    Type
REMARK                         _______ _______ _______ _____ _____    ______ ____
ROOT
ATOM      1  C   UNL     1       4.490   5.592  17.746  0.00  0.00    +0.000 A 
ATOM      2  C   UNL     1       5.309   5.856  16.688  0.00  0.00    +0.000 A 
ATOM      3  N   UNL     1       6.612   5.344  16.672  0.00  0.00    +0.000 N 
ATOM      4  C   UNL     1       7.130   4.578  17.709  0.00  0.00    +0.000 A 
ATOM      5  O   UNL     1       8.297   4.193  17.775  0.00  0.00    +0.000 OA
ATOM      6  N   UNL     1       6.266   4.229  18.694  0.00  0.00    +0.000 N 
ATOM      7  C   UNL     1       5.010   4.722  18.851  0.00  0.00    +0.000 A 
ATOM      8  O   UNL     1       4.396   4.533  19.899  0.00  0.00    +0.000 OA
ATOM      9  H   UNL     1       6.640   3.689  19.456  0.00  0.00    +0.000 HD
ENDROOT
BRANCH   1  10
ATOM     10  N   UNL     1       3.166   6.066  17.874  0.00  0.00    +0.000 N 
ATOM     11  C   UNL     1       2.993   7.459  17.903  0.00  0.00    +0.000 C 
ATOM     12  O   UNL     1       3.956   8.228  18.000  0.00  0.00    +0.000 OA
BRANCH  10  13
ATOM     13  C   UNL     1       2.079   5.079  18.011  0.00  0.00    +0.000 C 
BRANCH  13  14
ATOM     14  C   UNL     1       2.263   3.751  17.257  0.00  0.00    +0.000 C 
BRANCH  14  16
ATOM     15  C   UNL     1       3.211   1.637  18.324  0.00  0.00    +0.000 C 
ATOM     16  C   UNL     1       1.959   2.466  18.043  0.00  0.00    +0.000 C 
ATOM     17  C   UNL     1       1.276   2.836  19.364  0.00  0.00    +0.000 C 
ENDBRANCH  14  16
ENDBRANCH  13  14
ENDBRANCH  10  13
BRANCH  11  18
ATOM     18  C   UNL     1       1.586   8.052  17.880  0.00  0.00    +0.000 C 
BRANCH  18  19
ATOM     19  C   UNL     1       1.405   9.316  18.705  0.00  0.00    +0.000 A 
ATOM     20  C   UNL     1       0.972   9.295  20.036  0.00  0.00    +0.000 A 
ATOM     21  C   UNL     1       0.833  10.480  20.768  0.00  0.00    +0.000 A 
ATOM     22  C   UNL     1       1.139  11.710  20.183  0.00  0.00    +0.000 A 
ATOM     23 CL   UNL     1       0.935  13.132  21.140  0.00  0.00    +0.000 Cl
ATOM     24  C   UNL     1       1.596  11.748  18.862  0.00  0.00    +0.000 A 
ATOM     25 CL   UNL     1       2.008  13.229  18.070  0.00  0.00    +0.000 Cl
ATOM     26  C   UNL     1       1.733  10.559  18.134  0.00  0.00    +0.000 A 
ENDBRANCH  18  19
ENDBRANCH  11  18
ENDBRANCH   1  10
BRANCH   2  27
ATOM     27  N   UNL     1       4.848   6.605  15.604  0.00  0.00    +0.000 N 
ATOM     28  H   UNL     1       5.615   7.056  15.111  0.00  0.00    +0.000 HD
ATOM     29  H   UNL     1       4.172   7.308  15.891  0.00  0.00    +0.000 HD
ENDBRANCH   2  27
BRANCH   3  30
ATOM     30  C   UNL     1       7.520   5.591  15.543  0.00  0.00    +0.000 C 
BRANCH  30  31
ATOM     31  C   UNL     1       7.187   4.820  14.274  0.00  0.00    +0.000 A 
ATOM     32  C   UNL     1       6.175   3.843  14.301  0.00  0.00    +0.000 A 
ATOM     33  C   UNL     1       5.757   3.208  13.126  0.00  0.00    +0.000 A 
ATOM     34  C   UNL     1       6.337   3.541  11.905  0.00  0.00    +0.000 A 
ATOM     35  C   UNL     1       7.345   4.500  11.859  0.00  0.00    +0.000 A 
ATOM     36  C   UNL     1       7.762   5.135  13.032  0.00  0.00    +0.000 A 
ENDBRANCH  30  31
ENDBRANCH   3  30
TORSDOF 9
ENDMDL
MODEL 6
REMARK VINA RESULT:      -7.7      3.843      8.000
REMARK  Name = 
REMARK  11 active torsions:
REMARK  status: ('A' for Active; 'I' for Inactive)
REMARK    1  A    between atoms: C_1  and  C_2
REMARK    2  A    between atoms: C_2  and  C_3
REMARK    3  A    between atoms: C_2  and  C_4
REMARK    4  A    between atoms: C_4  and  C_5
REMARK    5  A    between atoms: C_5  and  N_6
REMARK    6  A    between atoms: N_6  and  C_18
REMARK    7  A    between atoms: C_7  and  C_9
REMARK    8  A    between atoms: C_9  and  C_10
REMARK    9  A    between atoms: C_19  and  N_20
REMARK   10  A    between atoms: N_21  and  C_22
REMARK   11  A    between atoms: C_22  and  C_23
REMARK                            x       y       z     vdW  Elec       q    Type
REMARK                         _______ _______ _______ _____ _____    ______ ____
ROOT
ATOM      1  C   UNL     1       4.472   5.469  17.736  0.00  0.00    +0.000 A 
ATOM      2  C   UNL     1       5.279   5.793  16.685  0.00  0.00    +0.000 A 
ATOM      3  N   UNL     1       6.592   5.308  16.641  0.00  0.00    +0.000 N 
ATOM      4  C   UNL     1       7.131   4.510  17.642  0.00  0.00    +0.000 A 
ATOM      5  O   UNL     1       8.306   4.145  17.686  0.00  0.00    +0.000 OA
ATOM      6  N   UNL     1       6.280   4.104  18.616  0.00  0.00    +0.000 N 
ATOM      7  C   UNL     1       5.016   4.565  18.801  0.00  0.00    +0.000 A 
ATOM      8  O   UNL     1       4.412   4.320  19.844  0.00  0.00    +0.000 OA
ATOM      9  H   UNL     1       6.670   3.540  19.354  0.00  0.00    +0.000 HD
ENDROOT
BRANCH   1  10
ATOM     10  N   UNL     1       3.140   5.911  17.891  0.00  0.00    +0.000 N 
ATOM     11  C   UNL     1       2.942   7.296  17.997  0.00  0.00    +0.000 C 
ATOM     12  O   UNL     1       3.891   8.076  18.134  0.00  0.00    +0.000 OA
BRANCH  10  13
ATOM     13  C   UNL     1       2.071   4.898  17.975  0.00  0.00    +0.000 C 
BRANCH  13  14
ATOM     14  C   UNL     1       1.395   4.730  19.346  0.00  0.00    +0.000 C 
BRANCH  14  16
ATOM     15  C   UNL     1       1.438   2.253  18.738  0.00  0.00    +0.000 C 
ATOM     16  C   UNL     1       0.928   3.313  19.713  0.00  0.00    +0.000 C 
ATOM     17  C   UNL     1       1.402   2.981  21.133  0.00  0.00    +0.000 C 
ENDBRANCH  14  16
ENDBRANCH  13  14
ENDBRANCH  10  13
BRANCH  11  18
ATOM     18  C   UNL     1       1.524   7.864  18.007  0.00  0.00    +0.000 C 
BRANCH  18  19
ATOM     19  C   UNL     1       1.344   9.134  18.824  0.00  0.00    +0.000 A 
ATOM     20  C   UNL     1       1.500  10.413  18.277  0.00  0.00    +0.000 A 
ATOM     21  C   UNL     1       1.309  11.560  19.057  0.00  0.00    +0.000 A 
ATOM     22  C   UNL     1       0.944  11.445  20.399  0.00  0.00    +0.000 A 
ATOM     23 CL   UNL     1       0.735  12.901  21.305  0.00  0.00    +0.000 Cl
ATOM     24  C   UNL     1       0.760  10.177  20.957  0.00  0.00    +0.000 A 
ATOM     25 CL   UNL     1       0.296   9.951  22.606  0.00  0.00    +0.000 Cl
ATOM     26  C   UNL     1       0.953   9.032  20.171  0.00  0.00    +0.000 A 
ENDBRANCH  18  19
ENDBRANCH  11  18
ENDBRANCH   1  10
BRANCH   2  27
ATOM     27  N   UNL     1       4.796   6.576  15.636  0.00  0.00    +0.000 N 
ATOM     28  H   UNL     1       4.003   7.141  15.928  0.00  0.00    +0.000 HD
ATOM     29  H   UNL     1       4.530   6.010  14.834  0.00  0.00    +0.000 HD
ENDBRANCH   2  27
BRANCH   3  30
ATOM     30  C   UNL     1       7.487   5.619  15.517  0.00  0.00    +0.000 C 
BRANCH  30  31
ATOM     31  C   UNL     1       7.204   4.841  14.240  0.00  0.00    +0.000 A 
ATOM     32  C   UNL     1       6.220   3.837  14.242  0.00  0.00    +0.000 A 
ATOM     33  C   UNL     1       5.847   3.193  13.057  0.00  0.00    +0.000 A 
ATOM     34  C   UNL     1       6.445   3.544  11.850  0.00  0.00    +0.000 A 
ATOM     35  C   UNL     1       7.427   4.530  11.829  0.00  0.00    +0.000 A 
ATOM     36  C   UNL     1       7.800   5.174  13.012  0.00  0.00    +0.000 A 
ENDBRANCH  30  31
ENDBRANCH   3  30
TORSDOF 9
ENDMDL
MODEL 7
REMARK VINA RESULT:      -7.7      3.534      7.933
REMARK  Name = 
REMARK  11 active torsions:
REMARK  status: ('A' for Active; 'I' for Inactive)
REMARK    1  A    between atoms: C_1  and  C_2
REMARK    2  A    between atoms: C_2  and  C_3
REMARK    3  A    between atoms: C_2  and  C_4
REMARK    4  A    between atoms: C_4  and  C_5
REMARK    5  A    between atoms: C_5  and  N_6
REMARK    6  A    between atoms: N_6  and  C_18
REMARK    7  A    between atoms: C_7  and  C_9
REMARK    8  A    between atoms: C_9  and  C_10
REMARK    9  A    between atoms: C_19  and  N_20
REMARK   10  A    between atoms: N_21  and  C_22
REMARK   11  A    between atoms: C_22  and  C_23
REMARK                            x       y       z     vdW  Elec       q    Type
REMARK                         _______ _______ _______ _____ _____    ______ ____
ROOT
ATOM      1  C   UNL     1       4.481   5.504  17.723  0.00  0.00    +0.000 A 
ATOM      2  C   UNL     1       5.299   5.800  16.674  0.00  0.00    +0.000 A 
ATOM      3  N   UNL     1       6.605   5.296  16.647  0.00  0.00    +0.000 N 
ATOM      4  C   UNL     1       7.126   4.507  17.664  0.00  0.00    +0.000 A 
ATOM      5  O   UNL     1       8.295   4.126  17.722  0.00  0.00    +0.000 OA
ATOM      6  N   UNL     1       6.263   4.128  18.638  0.00  0.00    +0.000 N 
ATOM      7  C   UNL     1       5.004   4.609  18.807  0.00  0.00    +0.000 A 
ATOM      8  O   UNL     1       4.390   4.389  19.849  0.00  0.00    +0.000 OA
ATOM      9  H   UNL     1       6.639   3.570  19.387  0.00  0.00    +0.000 HD
ENDROOT
BRANCH   1  10
ATOM     10  N   UNL     1       3.153   5.967  17.863  0.00  0.00    +0.000 N 
ATOM     11  C   UNL     1       2.974   7.357  17.938  0.00  0.00    +0.000 C 
ATOM     12  O   UNL     1       3.933   8.127  18.064  0.00  0.00    +0.000 OA
BRANCH  10  13
ATOM     13  C   UNL     1       2.071   4.971  17.962  0.00  0.00    +0.000 C 
BRANCH  13  14
ATOM     14  C   UNL     1       1.416   4.809  19.344  0.00  0.00    +0.000 C 
BRANCH  14  16
ATOM     15  C   UNL     1       1.321   2.346  18.689  0.00  0.00    +0.000 C 
ATOM     16  C   UNL     1       0.884   3.410  19.694  0.00  0.00    +0.000 C 
ATOM     17  C   UNL     1       1.367   3.027  21.097  0.00  0.00    +0.000 C 
ENDBRANCH  14  16
ENDBRANCH  13  14
ENDBRANCH  10  13
BRANCH  11  18
ATOM     18  C   UNL     1       1.564   7.944  17.929  0.00  0.00    +0.000 C 
BRANCH  18  19
ATOM     19  C   UNL     1       1.389   9.216  18.743  0.00  0.00    +0.000 A 
ATOM     20  C   UNL     1       0.977   9.207  20.081  0.00  0.00    +0.000 A 
ATOM     21  C   UNL     1       0.843  10.399  20.803  0.00  0.00    +0.000 A 
ATOM     22  C   UNL     1       1.134  11.624  20.200  0.00  0.00    +0.000 A 
ATOM     23 CL   UNL     1       0.938  13.055  21.146  0.00  0.00    +0.000 Cl
ATOM     24  C   UNL     1       1.571  11.651  18.872  0.00  0.00    +0.000 A 
ATOM     25 CL   UNL     1       1.963  13.125  18.059  0.00  0.00    +0.000 Cl
ATOM     26  C   UNL     1       1.702  10.454  18.154  0.00  0.00    +0.000 A 
ENDBRANCH  18  19
ENDBRANCH  11  18
ENDBRANCH   1  10
BRANCH   2  27
ATOM     27  N   UNL     1       4.835   6.574  15.609  0.00  0.00    +0.000 N 
ATOM     28  H   UNL     1       5.495   6.574  14.835  0.00  0.00    +0.000 HD
ATOM     29  H   UNL     1       4.647   7.532  15.892  0.00  0.00    +0.000 HD
ENDBRANCH   2  27
BRANCH   3  30
ATOM     30  C   UNL     1       7.512   5.577  15.525  0.00  0.00    +0.000 C 
BRANCH  30  31
ATOM     31  C   UNL     1       7.120   4.927  14.206  0.00  0.00    +0.000 A 
ATOM     32  C   UNL     1       7.761   5.324  13.019  0.00  0.00    +0.000 A 
ATOM     33  C   UNL     1       7.517   4.659  11.813  0.00  0.00    +0.000 A 
ATOM     34  C   UNL     1       6.632   3.584  11.772  0.00  0.00    +0.000 A 
ATOM     35  C   UNL     1       5.982   3.182  12.934  0.00  0.00    +0.000 A 
ATOM     36  C   UNL     1       6.226   3.845  14.140  0.00  0.00    +0.000 A 
ENDBRANCH  30  31
ENDBRANCH   3  30
TORSDOF 9
ENDMDL
MODEL 8
REMARK VINA RESULT:      -7.4      3.815      7.170
REMARK  Name = 
REMARK  11 active torsions:
REMARK  status: ('A' for Active; 'I' for Inactive)
REMARK    1  A    between atoms: C_1  and  C_2
REMARK    2  A    between atoms: C_2  and  C_3
REMARK    3  A    between atoms: C_2  and  C_4
REMARK    4  A    between atoms: C_4  and  C_5
REMARK    5  A    between atoms: C_5  and  N_6
REMARK    6  A    between atoms: N_6  and  C_18
REMARK    7  A    between atoms: C_7  and  C_9
REMARK    8  A    between atoms: C_9  and  C_10
REMARK    9  A    between atoms: C_19  and  N_20
REMARK   10  A    between atoms: N_21  and  C_22
REMARK   11  A    between atoms: C_22  and  C_23
REMARK                            x       y       z     vdW  Elec       q    Type
REMARK                         _______ _______ _______ _____ _____    ______ ____
ROOT
ATOM      1  C   UNL     1      -0.940  11.725  21.029  0.00  0.00    +0.000 A 
ATOM      2  C   UNL     1      -2.030  12.348  20.497  0.00  0.00    +0.000 A 
ATOM      3  N   UNL     1      -3.135  12.631  21.310  0.00  0.00    +0.000 N 
ATOM      4  C   UNL     1      -3.184  12.287  22.655  0.00  0.00    +0.000 A 
ATOM      5  O   UNL     1      -4.172  12.432  23.375  0.00  0.00    +0.000 OA
ATOM      6  N   UNL     1      -2.049  11.776  23.191  0.00  0.00    +0.000 N 
ATOM      7  C   UNL     1      -0.950  11.393  22.491  0.00  0.00    +0.000 A 
ATOM      8  O   UNL     1      -0.072  10.722  23.032  0.00  0.00    +0.000 OA
ATOM      9  H   UNL     1      -2.085  11.509  24.161  0.00  0.00    +0.000 HD
ENDROOT
BRANCH   1  10
ATOM     10  N   UNL     1       0.221  11.379  20.303  0.00  0.00    +0.000 N 
ATOM     11  C   UNL     1       0.102  10.323  19.387  0.00  0.00    +0.000 C 
ATOM     12  O   UNL     1      -0.908   9.610  19.349  0.00  0.00    +0.000 OA
BRANCH  10  13
ATOM     13  C   UNL     1       1.468  12.113  20.586  0.00  0.00    +0.000 C 
BRANCH  13  14
ATOM     14  C   UNL     1       1.357  13.645  20.667  0.00  0.00    +0.000 C 
BRANCH  14  16
ATOM     15  C   UNL     1       2.191  13.523  18.259  0.00  0.00    +0.000 C 
ATOM     16  C   UNL     1       1.735  14.430  19.401  0.00  0.00    +0.000 C 
ATOM     17  C   UNL     1       0.532  15.265  18.951  0.00  0.00    +0.000 C 
ENDBRANCH  14  16
ENDBRANCH  13  14
ENDBRANCH  10  13
BRANCH  11  18
ATOM     18  C   UNL     1       1.263   9.992  18.451  0.00  0.00    +0.000 C 
BRANCH  18  19
ATOM     19  C   UNL     1       1.942   8.657  18.712  0.00  0.00    +0.000 A 
ATOM     20  C   UNL     1       1.709   7.904  19.870  0.00  0.00    +0.000 A 
ATOM     21  C   UNL     1       2.341   6.670  20.066  0.00  0.00    +0.000 A 
ATOM     22  C   UNL     1       3.209   6.161  19.099  0.00  0.00    +0.000 A 
ATOM     23 CL   UNL     1       3.961   4.639  19.412  0.00  0.00    +0.000 Cl
ATOM     24  C   UNL     1       3.434   6.888  17.926  0.00  0.00    +0.000 A 
ATOM     25 CL   UNL     1       4.484   6.320  16.675  0.00  0.00    +0.000 Cl
ATOM     26  C   UNL     1       2.800   8.122  17.735  0.00  0.00    +0.000 A 
ENDBRANCH  18  19
ENDBRANCH  11  18
ENDBRANCH   1  10
BRANCH   2  27
ATOM     27  N   UNL     1      -2.041  12.737  19.157  0.00  0.00    +0.000 N 
ATOM     28  H   UNL     1      -2.076  13.750  19.065  0.00  0.00    +0.000 HD
ATOM     29  H   UNL     1      -2.821  12.326  18.651  0.00  0.00    +0.000 HD
ENDBRANCH   2  27
BRANCH   3  30
ATOM     30  C   UNL     1      -4.321  13.317  20.780  0.00  0.00    +0.000 C 
BRANCH  30  31
ATOM     31  C   UNL     1      -5.381  12.399  20.188  0.00  0.00    +0.000 A 
ATOM     32  C   UNL     1      -5.230  11.923  18.874  0.00  0.00    +0.000 A 
ATOM     33  C   UNL     1      -6.117  10.978  18.345  0.00  0.00    +0.000 A 
ATOM     34  C   UNL     1      -7.164  10.489  19.121  0.00  0.00    +0.000 A 
ATOM     35  C   UNL     1      -7.335  10.954  20.421  0.00  0.00    +0.000 A 
ATOM     36  C   UNL     1      -6.449  11.898  20.950  0.00  0.00    +0.000 A 
ENDBRANCH  30  31
ENDBRANCH   3  30
TORSDOF 9
ENDMDL
MODEL 9
REMARK VINA RESULT:      -7.1      4.583      9.472
REMARK  Name = 
REMARK  11 active torsions:
REMARK  status: ('A' for Active; 'I' for Inactive)
REMARK    1  A    between atoms: C_1  and  C_2
REMARK    2  A    between atoms: C_2  and  C_3
REMARK    3  A    between atoms: C_2  and  C_4
REMARK    4  A    between atoms: C_4  and  C_5
REMARK    5  A    between atoms: C_5  and  N_6
REMARK    6  A    between atoms: N_6  and  C_18
REMARK    7  A    between atoms: C_7  and  C_9
REMARK    8  A    between atoms: C_9  and  C_10
REMARK    9  A    between atoms: C_19  and  N_20
REMARK   10  A    between atoms: N_21  and  C_22
REMARK   11  A    between atoms: C_22  and  C_23
REMARK                            x       y       z     vdW  Elec       q    Type
REMARK                         _______ _______ _______ _____ _____    ______ ____
ROOT
ATOM      1  C   UNL     1       1.278   9.082  19.448  0.00  0.00    +0.000 A 
ATOM      2  C   UNL     1       1.971   8.287  18.584  0.00  0.00    +0.000 A 
ATOM      3  N   UNL     1       2.400   7.019  18.995  0.00  0.00    +0.000 N 
ATOM      4  C   UNL     1       2.165   6.526  20.272  0.00  0.00    +0.000 A 
ATOM      5  O   UNL     1       2.608   5.460  20.699  0.00  0.00    +0.000 OA
ATOM      6  N   UNL     1       1.376   7.280  21.077  0.00  0.00    +0.000 N 
ATOM      7  C   UNL     1       0.967   8.548  20.815  0.00  0.00    +0.000 A 
ATOM      8  O   UNL     1       0.461   9.233  21.702  0.00  0.00    +0.000 OA
ATOM      9  H   UNL     1       1.218   6.935  22.009  0.00  0.00    +0.000 HD
ENDROOT
BRANCH   1  10
ATOM     10  N   UNL     1       0.810  10.380  19.147  0.00  0.00    +0.000 N 
ATOM     11  C   UNL     1      -0.425  10.469  18.486  0.00  0.00    +0.000 C 
ATOM     12  O   UNL     1      -0.985   9.467  18.025  0.00  0.00    +0.000 OA
BRANCH  10  13
ATOM     13  C   UNL     1       1.659  11.531  19.504  0.00  0.00    +0.000 C 
BRANCH  13  14
ATOM     14  C   UNL     1       2.396  12.221  18.344  0.00  0.00    +0.000 C 
BRANCH  14  16
ATOM     15  C   UNL     1       1.376  14.328  19.358  0.00  0.00    +0.000 C 
ATOM     16  C   UNL     1       2.220  13.743  18.226  0.00  0.00    +0.000 C 
ATOM     17  C   UNL     1       3.600  14.409  18.213  0.00  0.00    +0.000 C 
ENDBRANCH  14  16
ENDBRANCH  13  14
ENDBRANCH  10  13
BRANCH  11  18
ATOM     18  C   UNL     1      -1.075  11.833  18.267  0.00  0.00    +0.000 C 
BRANCH  18  19
ATOM     19  C   UNL     1      -2.594  11.822  18.204  0.00  0.00    +0.000 A 
ATOM     20  C   UNL     1      -3.300  11.439  17.057  0.00  0.00    +0.000 A 
ATOM     21  C   UNL     1      -4.700  11.426  17.043  0.00  0.00    +0.000 A 
ATOM     22  C   UNL     1      -5.419  11.784  18.184  0.00  0.00    +0.000 A 
ATOM     23 CL   UNL     1      -7.143  11.755  18.092  0.00  0.00    +0.000 Cl
ATOM     24  C   UNL     1      -4.731  12.146  19.346  0.00  0.00    +0.000 A 
ATOM     25 CL   UNL     1      -5.548  12.590  20.803  0.00  0.00    +0.000 Cl
ATOM     26  C   UNL     1      -3.330  12.158  19.354  0.00  0.00    +0.000 A 
ENDBRANCH  18  19
ENDBRANCH  11  18
ENDBRANCH   1  10
BRANCH   2  27
ATOM     27  N   UNL     1       2.226   8.713  17.279  0.00  0.00    +0.000 N 
ATOM     28  H   UNL     1       3.222   8.696  17.071  0.00  0.00    +0.000 HD
ATOM     29  H   UNL     1       1.863   9.648  17.109  0.00  0.00    +0.000 HD
ENDBRANCH   2  27
BRANCH   3  30
ATOM     30  C   UNL     1       3.132   6.126  18.087  0.00  0.00    +0.000 C 
BRANCH  30  31
ATOM     31  C   UNL     1       4.648   6.245  18.157  0.00  0.00    +0.000 A 
ATOM     32  C   UNL     1       5.366   5.441  19.060  0.00  0.00    +0.000 A 
ATOM     33  C   UNL     1       6.766   5.433  19.059  0.00  0.00    +0.000 A 
ATOM     34  C   UNL     1       7.471   6.222  18.154  0.00  0.00    +0.000 A 
ATOM     35  C   UNL     1       6.778   7.030  17.258  0.00  0.00    +0.000 A 
ATOM     36  C   UNL     1       5.380   7.038  17.258  0.00  0.00    +0.000 A 
ENDBRANCH  30  31
ENDBRANCH   3  30
TORSDOF 9
ENDMDL
