MODEL 1
REMARK VINA RESULT:      -7.3      0.000      0.000
REMARK  Name = 
REMARK  7 active torsions:
REMARK  status: ('A' for Active; 'I' for Inactive)
REMARK    1  A    between atoms: C_1  and  C_2
REMARK    2  A    between atoms: C_2  and  C_3
REMARK    3  A    between atoms: C_2  and  C_10
REMARK    4  A    between atoms: C_3  and  C_4
REMARK    5  A    between atoms: C_15  and  O_16
REMARK    6  A    between atoms: C_15  and  C_17
REMARK    7  A    between atoms: C_17  and  N_18
REMARK                            x       y       z     vdW  Elec       q    Type
REMARK                         _______ _______ _______ _____ _____    ______ ____
ROOT
ATOM      1  C   UNL     1       0.817  11.409  19.351  0.00  0.00    +0.000 C 
ATOM      2  O   UNL     1       1.783  11.872  18.738  0.00  0.00    +0.000 OA
ATOM      3  N   UNL     1       0.377  11.973  20.545  0.00  0.00    +0.000 N 
ATOM      4  C   UNL     1      -0.653  11.454  21.432  0.00  0.00    +0.000 C 
ATOM      5  C   UNL     1      -1.713  12.514  21.714  0.00  0.00    +0.000 C 
ATOM      6  C   UNL     1      -1.101  13.835  22.240  0.00  0.00    +0.000 C 
ATOM      7  C   UNL     1       0.042  14.327  21.259  0.00  0.00    +0.000 C 
ATOM      8  C   UNL     1       0.829  15.555  21.795  0.00  0.00    +0.000 C 
ATOM      9  C   UNL     1       0.838  16.592  20.675  0.00  0.00    +0.000 C 
ATOM     10  C   UNL     1      -0.396  16.288  19.850  0.00  0.00    +0.000 C 
ATOM     11  C   UNL     1      -0.475  14.772  19.864  0.00  0.00    +0.000 C 
ATOM     12  C   UNL     1       1.053  13.160  21.063  0.00  0.00    +0.000 C 
ENDROOT
BRANCH   1  14
ATOM     13  C   UNL     1       0.914   9.366  17.880  0.00  0.00    +0.000 C 
ATOM     14  C   UNL     1       0.014  10.248  18.752  0.00  0.00    +0.000 C 
BRANCH  14  15
ATOM     15  C   UNL     1      -1.176  10.820  17.951  0.00  0.00    +0.000 C 
BRANCH  15  16
ATOM     16  C   UNL     1      -2.212   9.772  17.472  0.00  0.00    +0.000 C 
ATOM     17  C   UNL     1      -3.587   9.936  18.137  0.00  0.00    +0.000 C 
ATOM     18  C   UNL     1      -4.299  11.207  17.679  0.00  0.00    +0.000 C 
ATOM     19  C   UNL     1      -4.450  11.238  16.161  0.00  0.00    +0.000 C 
ATOM     20  C   UNL     1      -3.119  11.034  15.440  0.00  0.00    +0.000 C 
ATOM     21  C   UNL     1      -2.378   9.796  15.942  0.00  0.00    +0.000 C 
ENDBRANCH  15  16
ENDBRANCH  14  15
ENDBRANCH   1  14
BRANCH   6  22
ATOM     22  O   UNL     1      -0.456  13.544  23.502  0.00  0.00    +0.000 OA
ATOM     23  H   UNL     1      -0.288  12.585  23.522  0.00  0.00    +0.000 HD
ENDBRANCH   6  22
BRANCH   6  24
ATOM     24  C   UNL     1      -2.238  14.885  22.522  0.00  0.00    +0.000 C 
BRANCH  24  25
ATOM     25  N   UNL     1      -3.548  14.265  22.876  0.00  0.00    +0.000 N 
ATOM     26  C   UNL     1      -3.697  13.673  24.124  0.00  0.00    +0.000 A 
ATOM     27  C   UNL     1      -4.794  12.980  24.465  0.00  0.00    +0.000 A 
ATOM     28  C   UNL     1      -5.871  12.831  23.495  0.00  0.00    +0.000 A 
ATOM     29  N   UNL     1      -6.880  12.000  23.837  0.00  0.00    +0.000 NA
ATOM     30  C   UNL     1      -7.855  11.872  22.923  0.00  0.00    +0.000 A 
ATOM     31  N   UNL     1      -7.914  12.510  21.741  0.00  0.00    +0.000 NA
ATOM     32  C   UNL     1      -6.873  13.327  21.452  0.00  0.00    +0.000 A 
ATOM     33  C   UNL     1      -5.801  13.501  22.295  0.00  0.00    +0.000 A 
ATOM     34  C   UNL     1      -4.600  14.282  21.944  0.00  0.00    +0.000 A 
ATOM     35  O   UNL     1      -4.553  14.854  20.861  0.00  0.00    +0.000 OA
ENDBRANCH  24  25
ENDBRANCH   6  24
TORSDOF 6
ENDMDL
MODEL 2
REMARK VINA RESULT:      -7.2      0.948      1.487
REMARK  Name = 
REMARK  7 active torsions:
REMARK  status: ('A' for Active; 'I' for Inactive)
REMARK    1  A    between atoms: C_1  and  C_2
REMARK    2  A    between atoms: C_2  and  C_3
REMARK    3  A    between atoms: C_2  and  C_10
REMARK    4  A    between atoms: C_3  and  C_4
REMARK    5  A    between atoms: C_15  and  O_16
REMARK    6  A    between atoms: C_15  and  C_17
REMARK    7  A    between atoms: C_17  and  N_18
REMARK                            x       y       z     vdW  Elec       q    Type
REMARK                         _______ _______ _______ _____ _____    ______ ____
ROOT
ATOM      1  C   UNL     1       1.179  11.363  18.978  0.00  0.00    +0.000 C 
ATOM      2  O   UNL     1       2.081  11.874  18.308  0.00  0.00    +0.000 OA
ATOM      3  N   UNL     1       0.737  11.943  20.163  0.00  0.00    +0.000 N 
ATOM      4  C   UNL     1      -0.215  11.383  21.111  0.00  0.00    +0.000 C 
ATOM      5  C   UNL     1      -1.347  12.367  21.390  0.00  0.00    +0.000 C 
ATOM      6  C   UNL     1      -0.825  13.755  21.837  0.00  0.00    +0.000 C 
ATOM      7  C   UNL     1       0.238  14.292  20.792  0.00  0.00    +0.000 C 
ATOM      8  C   UNL     1       0.943  15.601  21.246  0.00  0.00    +0.000 C 
ATOM      9  C   UNL     1       0.827  16.585  20.085  0.00  0.00    +0.000 C 
ATOM     10  C   UNL     1      -0.407  16.148  19.322  0.00  0.00    +0.000 C 
ATOM     11  C   UNL     1      -0.362  14.633  19.402  0.00  0.00    +0.000 C 
ATOM     12  C   UNL     1       1.333  13.202  20.606  0.00  0.00    +0.000 C 
ENDROOT
BRANCH   1  14
ATOM     13  C   UNL     1       1.447   9.135  17.834  0.00  0.00    +0.000 C 
ATOM     14  C   UNL     1       0.451  10.117  18.459  0.00  0.00    +0.000 C 
BRANCH  14  15
ATOM     15  C   UNL     1      -0.635  10.551  17.449  0.00  0.00    +0.000 C 
BRANCH  15  16
ATOM     16  C   UNL     1      -1.938   9.715  17.483  0.00  0.00    +0.000 C 
ATOM     17  C   UNL     1      -2.966  10.242  18.495  0.00  0.00    +0.000 C 
ATOM     18  C   UNL     1      -3.553  11.587  18.071  0.00  0.00    +0.000 C 
ATOM     19  C   UNL     1      -4.185  11.501  16.686  0.00  0.00    +0.000 C 
ATOM     20  C   UNL     1      -3.223  10.939  15.641  0.00  0.00    +0.000 C 
ATOM     21  C   UNL     1      -2.590   9.624  16.092  0.00  0.00    +0.000 C 
ENDBRANCH  15  16
ENDBRANCH  14  15
ENDBRANCH   1  14
BRANCH   6  22
ATOM     22  O   UNL     1      -0.114  13.572  23.083  0.00  0.00    +0.000 OA
ATOM     23  H   UNL     1       0.613  14.220  23.095  0.00  0.00    +0.000 HD
ENDBRANCH   6  22
BRANCH   6  24
ATOM     24  C   UNL     1      -2.032  14.723  22.119  0.00  0.00    +0.000 C 
BRANCH  24  25
ATOM     25  N   UNL     1      -3.363  14.050  22.060  0.00  0.00    +0.000 N 
ATOM     26  C   UNL     1      -4.024  13.972  20.840  0.00  0.00    +0.000 A 
ATOM     27  C   UNL     1      -5.277  13.504  20.730  0.00  0.00    +0.000 A 
ATOM     28  C   UNL     1      -5.981  13.068  21.928  0.00  0.00    +0.000 A 
ATOM     29  N   UNL     1      -7.285  12.750  21.778  0.00  0.00    +0.000 NA
ATOM     30  C   UNL     1      -7.915  12.360  22.899  0.00  0.00    +0.000 A 
ATOM     31  N   UNL     1      -7.354  12.239  24.115  0.00  0.00    +0.000 NA
ATOM     32  C   UNL     1      -6.044  12.574  24.204  0.00  0.00    +0.000 A 
ATOM     33  C   UNL     1      -5.312  13.026  23.131  0.00  0.00    +0.000 A 
ATOM     34  C   UNL     1      -3.927  13.518  23.232  0.00  0.00    +0.000 A 
ATOM     35  O   UNL     1      -3.359  13.489  24.319  0.00  0.00    +0.000 OA
ENDBRANCH  24  25
ENDBRANCH   6  24
TORSDOF 6
ENDMDL
MODEL 3
REMARK VINA RESULT:      -6.5      3.311      8.107
REMARK  Name = 
REMARK  7 active torsions:
REMARK  status: ('A' for Active; 'I' for Inactive)
REMARK    1  A    between atoms: C_1  and  C_2
REMARK    2  A    between atoms: C_2  and  C_3
REMARK    3  A    between atoms: C_2  and  C_10
REMARK    4  A    between atoms: C_3  and  C_4
REMARK    5  A    between atoms: C_15  and  O_16
REMARK    6  A    between atoms: C_15  and  C_17
REMARK    7  A    between atoms: C_17  and  N_18
REMARK                            x       y       z     vdW  Elec       q    Type
REMARK                         _______ _______ _______ _____ _____    ______ ____
ROOT
ATOM      1  C   UNL     1      -2.614  12.996  19.873  0.00  0.00    +0.000 C 
ATOM      2  O   UNL     1      -2.498  14.220  19.765  0.00  0.00    +0.000 OA
ATOM      3  N   UNL     1      -1.701  12.125  19.288  0.00  0.00    +0.000 N 
ATOM      4  C   UNL     1      -1.791  10.674  19.223  0.00  0.00    +0.000 C 
ATOM      5  C   UNL     1      -0.524  10.025  19.773  0.00  0.00    +0.000 C 
ATOM      6  C   UNL     1       0.757  10.562  19.089  0.00  0.00    +0.000 C 
ATOM      7  C   UNL     1       0.778  12.144  19.152  0.00  0.00    +0.000 C 
ATOM      8  C   UNL     1       1.943  12.779  18.341  0.00  0.00    +0.000 C 
ATOM      9  C   UNL     1       2.648  13.755  19.279  0.00  0.00    +0.000 C 
ATOM     10  C   UNL     1       2.369  13.230  20.672  0.00  0.00    +0.000 C 
ATOM     11  C   UNL     1       0.944  12.715  20.586  0.00  0.00    +0.000 C 
ATOM     12  C   UNL     1      -0.560  12.675  18.558  0.00  0.00    +0.000 C 
ENDROOT
BRANCH   1  14
ATOM     13  C   UNL     1      -5.046  12.346  19.970  0.00  0.00    +0.000 C 
ATOM     14  C   UNL     1      -3.728  12.407  20.748  0.00  0.00    +0.000 C 
BRANCH  14  15
ATOM     15  C   UNL     1      -3.860  13.254  22.033  0.00  0.00    +0.000 C 
BRANCH  15  16
ATOM     16  C   UNL     1      -3.200  12.643  23.294  0.00  0.00    +0.000 C 
ATOM     17  C   UNL     1      -1.665  12.687  23.252  0.00  0.00    +0.000 C 
ATOM     18  C   UNL     1      -1.128  14.112  23.363  0.00  0.00    +0.000 C 
ATOM     19  C   UNL     1      -1.631  14.794  24.631  0.00  0.00    +0.000 C 
ATOM     20  C   UNL     1      -3.152  14.743  24.753  0.00  0.00    +0.000 C 
ATOM     21  C   UNL     1      -3.695  13.326  24.581  0.00  0.00    +0.000 C 
ENDBRANCH  15  16
ENDBRANCH  14  15
ENDBRANCH   1  14
BRANCH   6  22
ATOM     22  O   UNL     1       0.683  10.211  17.688  0.00  0.00    +0.000 OA
ATOM     23  H   UNL     1       1.555  10.404  17.299  0.00  0.00    +0.000 HD
ENDBRANCH   6  22
BRANCH   6  24
ATOM     24  C   UNL     1       2.028   9.852  19.686  0.00  0.00    +0.000 C 
BRANCH  24  25
ATOM     25  N   UNL     1       1.945   8.362  19.665  0.00  0.00    +0.000 N 
ATOM     26  C   UNL     1       1.411   7.702  20.765  0.00  0.00    +0.000 A 
ATOM     27  C   UNL     1       1.425   6.365  20.878  0.00  0.00    +0.000 A 
ATOM     28  C   UNL     1       2.027   5.569  19.817  0.00  0.00    +0.000 A 
ATOM     29  N   UNL     1       2.148   4.244  20.053  0.00  0.00    +0.000 NA
ATOM     30  C   UNL     1       2.714   3.533  19.064  0.00  0.00    +0.000 A 
ATOM     31  N   UNL     1       3.131   4.021  17.883  0.00  0.00    +0.000 NA
ATOM     32  C   UNL     1       2.986   5.356  17.705  0.00  0.00    +0.000 A 
ATOM     33  C   UNL     1       2.459   6.187  18.665  0.00  0.00    +0.000 A 
ATOM     34  C   UNL     1       2.413   7.655  18.544  0.00  0.00    +0.000 A 
ATOM     35  O   UNL     1       2.822   8.185  17.516  0.00  0.00    +0.000 OA
ENDBRANCH  24  25
ENDBRANCH   6  24
TORSDOF 6
ENDMDL
MODEL 4
REMARK VINA RESULT:      -6.5      2.892      7.036
REMARK  Name = 
REMARK  7 active torsions:
REMARK  status: ('A' for Active; 'I' for Inactive)
REMARK    1  A    between atoms: C_1  and  C_2
REMARK    2  A    between atoms: C_2  and  C_3
REMARK    3  A    between atoms: C_2  and  C_10
REMARK    4  A    between atoms: C_3  and  C_4
REMARK    5  A    between atoms: C_15  and  O_16
REMARK    6  A    between atoms: C_15  and  C_17
REMARK    7  A    between atoms: C_17  and  N_18
REMARK                            x       y       z     vdW  Elec       q    Type
REMARK                         _______ _______ _______ _____ _____    ______ ____
ROOT
ATOM      1  C   UNL     1      -2.396  11.162  18.287  0.00  0.00    +0.000 C 
ATOM      2  O   UNL     1      -3.428  10.601  18.665  0.00  0.00    +0.000 OA
ATOM      3  N   UNL     1      -1.969  12.357  18.856  0.00  0.00    +0.000 N 
ATOM      4  C   UNL     1      -0.856  13.187  18.420  0.00  0.00    +0.000 C 
ATOM      5  C   UNL     1       0.100  13.467  19.576  0.00  0.00    +0.000 C 
ATOM      6  C   UNL     1      -0.624  14.061  20.809  0.00  0.00    +0.000 C 
ATOM      7  C   UNL     1      -1.849  13.141  21.209  0.00  0.00    +0.000 C 
ATOM      8  C   UNL     1      -2.737  13.749  22.331  0.00  0.00    +0.000 C 
ATOM      9  C   UNL     1      -2.898  12.667  23.396  0.00  0.00    +0.000 C 
ATOM     10  C   UNL     1      -1.674  11.788  23.248  0.00  0.00    +0.000 C 
ATOM     11  C   UNL     1      -1.438  11.745  21.749  0.00  0.00    +0.000 C 
ATOM     12  C   UNL     1      -2.743  12.942  19.950  0.00  0.00    +0.000 C 
ENDROOT
BRANCH   1  14
ATOM     13  C   UNL     1      -2.354   9.870  16.125  0.00  0.00    +0.000 C 
ATOM     14  C   UNL     1      -1.502  10.493  17.236  0.00  0.00    +0.000 C 
BRANCH  14  15
ATOM     15  C   UNL     1      -0.609   9.441  17.930  0.00  0.00    +0.000 C 
BRANCH  15  16
ATOM     16  C   UNL     1       0.748   9.974  18.453  0.00  0.00    +0.000 C 
ATOM     17  C   UNL     1       0.939   9.759  19.963  0.00  0.00    +0.000 C 
ATOM     18  C   UNL     1       1.106   8.283  20.316  0.00  0.00    +0.000 C 
ATOM     19  C   UNL     1       2.270   7.660  19.552  0.00  0.00    +0.000 C 
ATOM     20  C   UNL     1       2.161   7.880  18.045  0.00  0.00    +0.000 C 
ATOM     21  C   UNL     1       1.933   9.350  17.695  0.00  0.00    +0.000 C 
ENDBRANCH  15  16
ENDBRANCH  14  15
ENDBRANCH   1  14
BRANCH   6  22
ATOM     22  O   UNL     1      -1.183  15.335  20.413  0.00  0.00    +0.000 OA
ATOM     23  H   UNL     1      -0.437  15.912  20.173  0.00  0.00    +0.000 HD
ENDBRANCH   6  22
BRANCH   6  24
ATOM     24  C   UNL     1       0.409  14.338  21.963  0.00  0.00    +0.000 C 
BRANCH  24  25
ATOM     25  N   UNL     1       1.553  15.201  21.545  0.00  0.00    +0.000 N 
ATOM     26  C   UNL     1       1.341  16.564  21.377  0.00  0.00    +0.000 A 
ATOM     27  C   UNL     1       2.280  17.381  20.876  0.00  0.00    +0.000 A 
ATOM     28  C   UNL     1       3.569  16.827  20.485  0.00  0.00    +0.000 A 
ATOM     29  N   UNL     1       4.418  17.665  19.849  0.00  0.00    +0.000 NA
ATOM     30  C   UNL     1       5.595  17.128  19.490  0.00  0.00    +0.000 A 
ATOM     31  N   UNL     1       5.992  15.867  19.733  0.00  0.00    +0.000 NA
ATOM     32  C   UNL     1       5.098  15.073  20.371  0.00  0.00    +0.000 A 
ATOM     33  C   UNL     1       3.847  15.505  20.747  0.00  0.00    +0.000 A 
ATOM     34  C   UNL     1       2.815  14.624  21.322  0.00  0.00    +0.000 A 
ATOM     35  O   UNL     1       3.080  13.445  21.528  0.00  0.00    +0.000 OA
ENDBRANCH  24  25
ENDBRANCH   6  24
TORSDOF 6
ENDMDL
MODEL 5
REMARK VINA RESULT:      -6.4      8.654     11.245
REMARK  Name = 
REMARK  7 active torsions:
REMARK  status: ('A' for Active; 'I' for Inactive)
REMARK    1  A    between atoms: C_1  and  C_2
REMARK    2  A    between atoms: C_2  and  C_3
REMARK    3  A    between atoms: C_2  and  C_10
REMARK    4  A    between atoms: C_3  and  C_4
REMARK    5  A    between atoms: C_15  and  O_16
REMARK    6  A    between atoms: C_15  and  C_17
REMARK    7  A    between atoms: C_17  and  N_18
REMARK                            x       y       z     vdW  Elec       q    Type
REMARK                         _______ _______ _______ _____ _____    ______ ____
ROOT
ATOM      1  C   UNL     1       9.387  16.997  19.048  0.00  0.00    +0.000 C 
ATOM      2  O   UNL     1       9.120  17.516  17.961  0.00  0.00    +0.000 OA
ATOM      3  N   UNL     1       8.434  16.889  20.055  0.00  0.00    +0.000 N 
ATOM      4  C   UNL     1       8.647  16.427  21.419  0.00  0.00    +0.000 C 
ATOM      5  C   UNL     1       7.677  15.303  21.770  0.00  0.00    +0.000 C 
ATOM      6  C   UNL     1       6.202  15.695  21.511  0.00  0.00    +0.000 C 
ATOM      7  C   UNL     1       6.040  16.231  20.029  0.00  0.00    +0.000 C 
ATOM      8  C   UNL     1       4.627  16.808  19.732  0.00  0.00    +0.000 C 
ATOM      9  C   UNL     1       4.142  16.137  18.450  0.00  0.00    +0.000 C 
ATOM     10  C   UNL     1       4.878  14.814  18.397  0.00  0.00    +0.000 C 
ATOM     11  C   UNL     1       6.256  15.146  18.940  0.00  0.00    +0.000 C 
ATOM     12  C   UNL     1       7.077  17.371  19.806  0.00  0.00    +0.000 C 
ENDROOT
BRANCH   1  14
ATOM     13  C   UNL     1      11.875  17.398  19.047  0.00  0.00    +0.000 C 
ATOM     14  C   UNL     1      10.767  16.366  19.277  0.00  0.00    +0.000 C 
BRANCH  14  15
ATOM     15  C   UNL     1      10.921  15.143  18.347  0.00  0.00    +0.000 C 
BRANCH  15  16
ATOM     16  C   UNL     1       9.974  13.957  18.656  0.00  0.00    +0.000 C 
ATOM     17  C   UNL     1      10.017  12.856  17.585  0.00  0.00    +0.000 C 
ATOM     18  C   UNL     1      11.348  12.108  17.583  0.00  0.00    +0.000 C 
ATOM     19  C   UNL     1      11.648  11.510  18.954  0.00  0.00    +0.000 C 
ATOM     20  C   UNL     1      11.576  12.550  20.070  0.00  0.00    +0.000 C 
ATOM     21  C   UNL     1      10.269  13.340  20.035  0.00  0.00    +0.000 C 
ENDBRANCH  15  16
ENDBRANCH  14  15
ENDBRANCH   1  14
BRANCH   6  22
ATOM     22  O   UNL     1       5.887  16.806  22.382  0.00  0.00    +0.000 OA
ATOM     23  H   UNL     1       6.408  16.687  23.196  0.00  0.00    +0.000 HD
ENDBRANCH   6  22
BRANCH   6  24
ATOM     24  C   UNL     1       5.248  14.505  21.899  0.00  0.00    +0.000 C 
BRANCH  24  25
ATOM     25  N   UNL     1       5.701  13.746  23.102  0.00  0.00    +0.000 N 
ATOM     26  C   UNL     1       6.457  12.594  22.925  0.00  0.00    +0.000 A 
ATOM     27  C   UNL     1       6.787  11.786  23.944  0.00  0.00    +0.000 A 
ATOM     28  C   UNL     1       6.333  12.118  25.288  0.00  0.00    +0.000 A 
ATOM     29  N   UNL     1       6.565  11.194  26.247  0.00  0.00    +0.000 NA
ATOM     30  C   UNL     1       6.130  11.519  27.475  0.00  0.00    +0.000 A 
ATOM     31  N   UNL     1       5.525  12.670  27.817  0.00  0.00    +0.000 NA
ATOM     32  C   UNL     1       5.317  13.556  26.813  0.00  0.00    +0.000 A 
ATOM     33  C   UNL     1       5.683  13.311  25.511  0.00  0.00    +0.000 A 
ATOM     34  C   UNL     1       5.351  14.201  24.384  0.00  0.00    +0.000 A 
ATOM     35  O   UNL     1       4.754  15.249  24.605  0.00  0.00    +0.000 OA
ENDBRANCH  24  25
ENDBRANCH   6  24
TORSDOF 6
ENDMDL
MODEL 6
REMARK VINA RESULT:      -6.4      5.528      8.589
REMARK  Name = 
REMARK  7 active torsions:
REMARK  status: ('A' for Active; 'I' for Inactive)
REMARK    1  A    between atoms: C_1  and  C_2
REMARK    2  A    between atoms: C_2  and  C_3
REMARK    3  A    between atoms: C_2  and  C_10
REMARK    4  A    between atoms: C_3  and  C_4
REMARK    5  A    between atoms: C_15  and  O_16
REMARK    6  A    between atoms: C_15  and  C_17
REMARK    7  A    between atoms: C_17  and  N_18
REMARK                            x       y       z     vdW  Elec       q    Type
REMARK                         _______ _______ _______ _____ _____    ______ ____
ROOT
ATOM      1  C   UNL     1       6.780  15.374  20.639  0.00  0.00    +0.000 C 
ATOM      2  O   UNL     1       7.340  16.240  19.962  0.00  0.00    +0.000 OA
ATOM      3  N   UNL     1       5.411  15.415  20.883  0.00  0.00    +0.000 N 
ATOM      4  C   UNL     1       4.651  14.543  21.766  0.00  0.00    +0.000 C 
ATOM      5  C   UNL     1       3.477  13.909  21.027  0.00  0.00    +0.000 C 
ATOM      6  C   UNL     1       2.580  14.962  20.332  0.00  0.00    +0.000 C 
ATOM      7  C   UNL     1       3.466  15.907  19.421  0.00  0.00    +0.000 C 
ATOM      8  C   UNL     1       2.674  17.101  18.816  0.00  0.00    +0.000 C 
ATOM      9  C   UNL     1       2.959  17.101  17.317  0.00  0.00    +0.000 C 
ATOM     10  C   UNL     1       3.304  15.664  16.984  0.00  0.00    +0.000 C 
ATOM     11  C   UNL     1       4.091  15.192  18.193  0.00  0.00    +0.000 C 
ATOM     12  C   UNL     1       4.615  16.490  20.294  0.00  0.00    +0.000 C 
ENDROOT
BRANCH   1  14
ATOM     13  C   UNL     1       8.292  14.512  22.461  0.00  0.00    +0.000 C 
ATOM     14  C   UNL     1       7.577  14.167  21.151  0.00  0.00    +0.000 C 
BRANCH  14  15
ATOM     15  C   UNL     1       8.571  13.720  20.056  0.00  0.00    +0.000 C 
BRANCH  15  16
ATOM     16  C   UNL     1       9.989  13.360  20.564  0.00  0.00    +0.000 C 
ATOM     17  C   UNL     1      10.207  11.847  20.723  0.00  0.00    +0.000 C 
ATOM     18  C   UNL     1      10.241  11.127  19.377  0.00  0.00    +0.000 C 
ATOM     19  C   UNL     1      11.314  11.711  18.465  0.00  0.00    +0.000 C 
ATOM     20  C   UNL     1      11.178  13.224  18.302  0.00  0.00    +0.000 C 
ATOM     21  C   UNL     1      11.083  13.939  19.649  0.00  0.00    +0.000 C 
ENDBRANCH  15  16
ENDBRANCH  14  15
ENDBRANCH   1  14
BRANCH   6  22
ATOM     22  O   UNL     1       2.016  15.803  21.364  0.00  0.00    +0.000 OA
ATOM     23  H   UNL     1       1.590  15.214  22.012  0.00  0.00    +0.000 HD
ENDBRANCH   6  22
BRANCH   6  24
ATOM     24  C   UNL     1       1.383  14.253  19.595  0.00  0.00    +0.000 C 
BRANCH  24  25
ATOM     25  N   UNL     1       1.189  12.831  20.004  0.00  0.00    +0.000 N 
ATOM     26  C   UNL     1       1.584  11.821  19.136  0.00  0.00    +0.000 A 
ATOM     27  C   UNL     1       1.322  10.526  19.371  0.00  0.00    +0.000 A 
ATOM     28  C   UNL     1       0.591  10.157  20.576  0.00  0.00    +0.000 A 
ATOM     29  N   UNL     1       0.225   8.861  20.685  0.00  0.00    +0.000 NA
ATOM     30  C   UNL     1      -0.457   8.548  21.799  0.00  0.00    +0.000 A 
ATOM     31  N   UNL     1      -0.768   9.395  22.796  0.00  0.00    +0.000 NA
ATOM     32  C   UNL     1      -0.378  10.682  22.628  0.00  0.00    +0.000 A 
ATOM     33  C   UNL     1       0.288  11.123  21.509  0.00  0.00    +0.000 A 
ATOM     34  C   UNL     1       0.606  12.538  21.249  0.00  0.00    +0.000 A 
ATOM     35  O   UNL     1       0.309  13.383  22.087  0.00  0.00    +0.000 OA
ENDBRANCH  24  25
ENDBRANCH   6  24
TORSDOF 6
ENDMDL
MODEL 7
REMARK VINA RESULT:      -6.4      0.675      1.147
REMARK  Name = 
REMARK  7 active torsions:
REMARK  status: ('A' for Active; 'I' for Inactive)
REMARK    1  A    between atoms: C_1  and  C_2
REMARK    2  A    between atoms: C_2  and  C_3
REMARK    3  A    between atoms: C_2  and  C_10
REMARK    4  A    between atoms: C_3  and  C_4
REMARK    5  A    between atoms: C_15  and  O_16
REMARK    6  A    between atoms: C_15  and  C_17
REMARK    7  A    between atoms: C_17  and  N_18
REMARK                            x       y       z     vdW  Elec       q    Type
REMARK                         _______ _______ _______ _____ _____    ______ ____
ROOT
ATOM      1  C   UNL     1       1.035  11.335  19.632  0.00  0.00    +0.000 C 
ATOM      2  O   UNL     1       1.944  11.738  18.901  0.00  0.00    +0.000 OA
ATOM      3  N   UNL     1       0.554  12.107  20.685  0.00  0.00    +0.000 N 
ATOM      4  C   UNL     1      -0.411  11.705  21.698  0.00  0.00    +0.000 C 
ATOM      5  C   UNL     1      -1.568  12.696  21.771  0.00  0.00    +0.000 C 
ATOM      6  C   UNL     1      -1.084  14.153  21.972  0.00  0.00    +0.000 C 
ATOM      7  C   UNL     1      -0.006  14.519  20.871  0.00  0.00    +0.000 C 
ATOM      8  C   UNL     1       0.662  15.905  21.096  0.00  0.00    +0.000 C 
ATOM      9  C   UNL     1       0.557  16.661  19.775  0.00  0.00    +0.000 C 
ATOM     10  C   UNL     1      -0.650  16.066  19.078  0.00  0.00    +0.000 C 
ATOM     11  C   UNL     1      -0.578  14.591  19.429  0.00  0.00    +0.000 C 
ATOM     12  C   UNL     1       1.114  13.439  20.906  0.00  0.00    +0.000 C 
ENDROOT
BRANCH   1  14
ATOM     13  C   UNL     1       1.379   8.876  19.208  0.00  0.00    +0.000 C 
ATOM     14  C   UNL     1       0.345   9.999  19.331  0.00  0.00    +0.000 C 
BRANCH  14  15
ATOM     15  C   UNL     1      -0.496  10.146  18.043  0.00  0.00    +0.000 C 
BRANCH  15  16
ATOM     16  C   UNL     1      -1.571  11.261  18.084  0.00  0.00    +0.000 C 
ATOM     17  C   UNL     1      -1.878  11.852  16.699  0.00  0.00    +0.000 C 
ATOM     18  C   UNL     1      -2.599  10.854  15.796  0.00  0.00    +0.000 C 
ATOM     19  C   UNL     1      -3.886  10.353  16.443  0.00  0.00    +0.000 C 
ATOM     20  C   UNL     1      -3.652   9.793  17.844  0.00  0.00    +0.000 C 
ATOM     21  C   UNL     1      -2.877  10.767  18.730  0.00  0.00    +0.000 C 
ENDBRANCH  15  16
ENDBRANCH  14  15
ENDBRANCH   1  14
BRANCH   6  22
ATOM     22  O   UNL     1      -0.401  14.214  23.246  0.00  0.00    +0.000 OA
ATOM     23  H   UNL     1       0.452  14.657  23.091  0.00  0.00    +0.000 HD
ENDBRANCH   6  22
BRANCH   6  24
ATOM     24  C   UNL     1      -2.316  15.128  22.051  0.00  0.00    +0.000 C 
BRANCH  24  25
ATOM     25  N   UNL     1      -3.564  14.473  22.543  0.00  0.00    +0.000 N 
ATOM     26  C   UNL     1      -3.587  13.950  23.830  0.00  0.00    +0.000 A 
ATOM     27  C   UNL     1      -4.620  13.231  24.295  0.00  0.00    +0.000 A 
ATOM     28  C   UNL     1      -5.760  12.979  23.424  0.00  0.00    +0.000 A 
ATOM     29  N   UNL     1      -6.698  12.126  23.892  0.00  0.00    +0.000 NA
ATOM     30  C   UNL     1      -7.734  11.902  23.067  0.00  0.00    +0.000 A 
ATOM     31  N   UNL     1      -7.915  12.466  21.860  0.00  0.00    +0.000 NA
ATOM     32  C   UNL     1      -6.940  13.309  21.443  0.00  0.00    +0.000 A 
ATOM     33  C   UNL     1      -5.815  13.579  22.187  0.00  0.00    +0.000 A 
ATOM     34  C   UNL     1      -4.685  14.389  21.699  0.00  0.00    +0.000 A 
ATOM     35  O   UNL     1      -4.749  14.898  20.585  0.00  0.00    +0.000 OA
ENDBRANCH  24  25
ENDBRANCH   6  24
TORSDOF 6
ENDMDL
MODEL 8
REMARK VINA RESULT:      -6.4      5.820     10.135
REMARK  Name = 
REMARK  7 active torsions:
REMARK  status: ('A' for Active; 'I' for Inactive)
REMARK    1  A    between atoms: C_1  and  C_2
REMARK    2  A    between atoms: C_2  and  C_3
REMARK    3  A    between atoms: C_2  and  C_10
REMARK    4  A    between atoms: C_3  and  C_4
REMARK    5  A    between atoms: C_15  and  O_16
REMARK    6  A    between atoms: C_15  and  C_17
REMARK    7  A    between atoms: C_17  and  N_18
REMARK                            x       y       z     vdW  Elec       q    Type
REMARK                         _______ _______ _______ _____ _____    ______ ____
ROOT
ATOM      1  C   UNL     1       0.667  14.529  19.339  0.00  0.00    +0.000 C 
ATOM      2  O   UNL     1      -0.243  15.063  19.978  0.00  0.00    +0.000 OA
ATOM      3  N   UNL     1       1.857  15.198  19.070  0.00  0.00    +0.000 N 
ATOM      4  C   UNL     1       2.948  14.741  18.222  0.00  0.00    +0.000 C 
ATOM      5  C   UNL     1       4.274  14.778  18.975  0.00  0.00    +0.000 C 
ATOM      6  C   UNL     1       4.560  16.168  19.595  0.00  0.00    +0.000 C 
ATOM      7  C   UNL     1       3.323  16.632  20.469  0.00  0.00    +0.000 C 
ATOM      8  C   UNL     1       3.450  18.089  20.994  0.00  0.00    +0.000 C 
ATOM      9  C   UNL     1       3.183  18.038  22.496  0.00  0.00    +0.000 C 
ATOM     10  C   UNL     1       3.555  16.630  22.912  0.00  0.00    +0.000 C 
ATOM     11  C   UNL     1       3.097  15.776  21.745  0.00  0.00    +0.000 C 
ATOM     12  C   UNL     1       2.044  16.553  19.586  0.00  0.00    +0.000 C 
ENDROOT
BRANCH   1  14
ATOM     13  C   UNL     1      -0.734  12.853  18.085  0.00  0.00    +0.000 C 
ATOM     14  C   UNL     1       0.541  13.062  18.908  0.00  0.00    +0.000 C 
BRANCH  14  15
ATOM     15  C   UNL     1       0.565  12.164  20.164  0.00  0.00    +0.000 C 
BRANCH  15  16
ATOM     16  C   UNL     1      -0.660  11.230  20.329  0.00  0.00    +0.000 C 
ATOM     17  C   UNL     1      -0.272   9.769  20.603  0.00  0.00    +0.000 C 
ATOM     18  C   UNL     1       0.355   9.591  21.984  0.00  0.00    +0.000 C 
ATOM     19  C   UNL     1      -0.575  10.096  23.082  0.00  0.00    +0.000 C 
ATOM     20  C   UNL     1      -1.033  11.532  22.841  0.00  0.00    +0.000 C 
ATOM     21  C   UNL     1      -1.605  11.725  21.438  0.00  0.00    +0.000 C 
ENDBRANCH  15  16
ENDBRANCH  14  15
ENDBRANCH   1  14
BRANCH   6  22
ATOM     22  O   UNL     1       4.670  17.116  18.509  0.00  0.00    +0.000 OA
ATOM     23  H   UNL     1       5.070  17.925  18.876  0.00  0.00    +0.000 HD
ENDBRANCH   6  22
BRANCH   6  24
ATOM     24  C   UNL     1       5.942  16.151  20.349  0.00  0.00    +0.000 C 
BRANCH  24  25
ATOM     25  N   UNL     1       7.100  15.832  19.463  0.00  0.00    +0.000 N 
ATOM     26  C   UNL     1       7.462  14.503  19.281  0.00  0.00    +0.000 A 
ATOM     27  C   UNL     1       8.568  14.144  18.611  0.00  0.00    +0.000 A 
ATOM     28  C   UNL     1       9.430  15.179  18.057  0.00  0.00    +0.000 A 
ATOM     29  N   UNL     1      10.603  14.766  17.527  0.00  0.00    +0.000 NA
ATOM     30  C   UNL     1      11.384  15.739  17.032  0.00  0.00    +0.000 A 
ATOM     31  N   UNL     1      11.084  17.050  16.999  0.00  0.00    +0.000 NA
ATOM     32  C   UNL     1       9.897  17.403  17.549  0.00  0.00    +0.000 A 
ATOM     33  C   UNL     1       9.037  16.496  18.122  0.00  0.00    +0.000 A 
ATOM     34  C   UNL     1       7.806  16.874  18.838  0.00  0.00    +0.000 A 
ATOM     35  O   UNL     1       7.487  18.057  18.899  0.00  0.00    +0.000 OA
ENDBRANCH  24  25
ENDBRANCH   6  24
TORSDOF 6
ENDMDL
MODEL 9
REMARK VINA RESULT:      -6.4      6.164     11.346
REMARK  Name = 
REMARK  7 active torsions:
REMARK  status: ('A' for Active; 'I' for Inactive)
REMARK    1  A    between atoms: C_1  and  C_2
REMARK    2  A    between atoms: C_2  and  C_3
REMARK    3  A    between atoms: C_2  and  C_10
REMARK    4  A    between atoms: C_3  and  C_4
REMARK    5  A    between atoms: C_15  and  O_16
REMARK    6  A    between atoms: C_15  and  C_17
REMARK    7  A    between atoms: C_17  and  N_18
REMARK                            x       y       z     vdW  Elec       q    Type
REMARK                         _______ _______ _______ _____ _____    ______ ____
ROOT
ATOM      1  C   UNL     1       0.887   8.482  20.089  0.00  0.00    +0.000 C 
ATOM      2  O   UNL     1       0.082   8.339  21.013  0.00  0.00    +0.000 OA
ATOM      3  N   UNL     1       2.023   7.686  19.985  0.00  0.00    +0.000 N 
ATOM      4  C   UNL     1       3.113   7.833  19.033  0.00  0.00    +0.000 C 
ATOM      5  C   UNL     1       3.362   6.528  18.284  0.00  0.00    +0.000 C 
ATOM      6  C   UNL     1       3.582   5.332  19.242  0.00  0.00    +0.000 C 
ATOM      7  C   UNL     1       2.390   5.248  20.281  0.00  0.00    +0.000 C 
ATOM      8  C   UNL     1       2.610   4.181  21.390  0.00  0.00    +0.000 C 
ATOM      9  C   UNL     1       1.348   3.324  21.430  0.00  0.00    +0.000 C 
ATOM     10  C   UNL     1       0.758   3.432  20.039  0.00  0.00    +0.000 C 
ATOM     11  C   UNL     1       1.025   4.873  19.644  0.00  0.00    +0.000 C 
ATOM     12  C   UNL     1       2.248   6.634  20.975  0.00  0.00    +0.000 C 
ENDROOT
BRANCH   1  14
ATOM     13  C   UNL     1       1.348  10.800  19.216  0.00  0.00    +0.000 C 
ATOM     14  C   UNL     1       0.596   9.489  18.968  0.00  0.00    +0.000 C 
BRANCH  14  15
ATOM     15  C   UNL     1      -0.930   9.713  18.877  0.00  0.00    +0.000 C 
BRANCH  15  16
ATOM     16  C   UNL     1      -1.398  10.572  17.676  0.00  0.00    +0.000 C 
ATOM     17  C   UNL     1      -2.461   9.873  16.814  0.00  0.00    +0.000 C 
ATOM     18  C   UNL     1      -3.793   9.734  17.546  0.00  0.00    +0.000 C 
ATOM     19  C   UNL     1      -4.313  11.090  18.011  0.00  0.00    +0.000 C 
ATOM     20  C   UNL     1      -3.282  11.855  18.838  0.00  0.00    +0.000 C 
ATOM     21  C   UNL     1      -1.930  11.942  18.132  0.00  0.00    +0.000 C 
ENDBRANCH  15  16
ENDBRANCH  14  15
ENDBRANCH   1  14
BRANCH   6  22
ATOM     22  O   UNL     1       4.775   5.605  20.013  0.00  0.00    +0.000 OA
ATOM     23  H   UNL     1       4.509   6.168  20.761  0.00  0.00    +0.000 HD
ENDBRANCH   6  22
BRANCH   6  24
ATOM     24  C   UNL     1       3.844   4.017  18.418  0.00  0.00    +0.000 C 
BRANCH  24  25
ATOM     25  N   UNL     1       4.925   4.158  17.398  0.00  0.00    +0.000 N 
ATOM     26  C   UNL     1       6.165   4.644  17.795  0.00  0.00    +0.000 A 
ATOM     27  C   UNL     1       7.141   4.925  16.918  0.00  0.00    +0.000 A 
ATOM     28  C   UNL     1       6.899   4.723  15.496  0.00  0.00    +0.000 A 
ATOM     29  N   UNL     1       7.859   5.163  14.653  0.00  0.00    +0.000 NA
ATOM     30  C   UNL     1       7.608   4.974  13.348  0.00  0.00    +0.000 A 
ATOM     31  N   UNL     1       6.521   4.374  12.834  0.00  0.00    +0.000 NA
ATOM     32  C   UNL     1       5.592   3.956  13.727  0.00  0.00    +0.000 A 
ATOM     33  C   UNL     1       5.724   4.135  15.084  0.00  0.00    +0.000 A 
ATOM     34  C   UNL     1       4.671   3.807  16.061  0.00  0.00    +0.000 A 
ATOM     35  O   UNL     1       3.625   3.303  15.667  0.00  0.00    +0.000 OA
ENDBRANCH  24  25
ENDBRANCH   6  24
TORSDOF 6
ENDMDL
