MODEL 1
REMARK VINA RESULT:      -6.9      0.000      0.000
REMARK  Name = 
REMARK  14 active torsions:
REMARK  status: ('A' for Active; 'I' for Inactive)
REMARK    1  A    between atoms: C_1  and  C_2
REMARK    2  A    between atoms: C_2  and  C_3
REMARK    3  A    between atoms: C_3  and  C_4
REMARK    4  A    between atoms: C_4  and  O_5
REMARK    5  A    between atoms: O_5  and  C_6
REMARK    6  A    between atoms: C_9  and  N_10
REMARK    7  A    between atoms: N_10  and  C_11
REMARK    8  A    between atoms: C_11  and  N_13
REMARK    9  A    between atoms: N_13  and  C_14
REMARK   10  A    between atoms: C_17  and  S_18
REMARK   11  A    between atoms: S_18  and  C_19
REMARK   12  A    between atoms: C_19  and  C_20
REMARK   13  A    between atoms: C_20  and  C_21
REMARK   14  A    between atoms: C_20  and  C_22
REMARK                            x       y       z     vdW  Elec       q    Type
REMARK                         _______ _______ _______ _____ _____    ______ ____
ROOT
ATOM      1  C   UNL     1       2.488   4.266  20.383  0.00  0.00    +0.000 C 
ATOM      2  S   UNL     1       1.105   3.353  20.580  0.00  0.00    +0.000 S 
ENDROOT
BRANCH   1   3
ATOM      3  N   UNL     1       2.659   5.596  20.694  0.00  0.00    +0.000 N 
ATOM      4  H   UNL     1       3.018   5.741  21.630  0.00  0.00    +0.000 HD
BRANCH   3   8
ATOM      5  C   UNL     1       1.473   9.141  18.771  0.00  0.00    +0.000 A 
ATOM      6  C   UNL     1       1.185   8.911  20.120  0.00  0.00    +0.000 A 
ATOM      7  C   UNL     1       1.589   7.729  20.739  0.00  0.00    +0.000 A 
ATOM      8  C   UNL     1       2.255   6.746  20.007  0.00  0.00    +0.000 A 
ATOM      9  C   UNL     1       2.585   6.988  18.674  0.00  0.00    +0.000 A 
ATOM     10  C   UNL     1       2.197   8.182  18.060  0.00  0.00    +0.000 A 
BRANCH   5  11
ATOM     11  O   UNL     1       1.102  10.254  18.060  0.00  0.00    +0.000 OA
BRANCH  11  12
ATOM     12  C   UNL     1       0.644  11.346  18.855  0.00  0.00    +0.000 C 
BRANCH  12  13
ATOM     13  C   UNL     1      -0.862  11.524  18.699  0.00  0.00    +0.000 C 
BRANCH  13  15
ATOM     14  C   UNL     1      -2.885  12.460  19.893  0.00  0.00    +0.000 C 
ATOM     15  C   UNL     1      -1.467  11.941  20.039  0.00  0.00    +0.000 C 
ENDBRANCH  13  15
ENDBRANCH  12  13
ENDBRANCH  11  12
ENDBRANCH   5  11
ENDBRANCH   3   8
ENDBRANCH   1   3
BRANCH   1  16
ATOM     16  N   UNL     1       3.660   3.635  20.020  0.00  0.00    +0.000 N 
ATOM     17  H   UNL     1       3.892   2.795  20.541  0.00  0.00    +0.000 HD
BRANCH  16  18
ATOM     18  C   UNL     1       4.408   3.896  18.855  0.00  0.00    +0.000 A 
ATOM     19  C   UNL     1       5.643   4.532  18.979  0.00  0.00    +0.000 A 
ATOM     20  C   UNL     1       6.402   4.800  17.836  0.00  0.00    +0.000 A 
ATOM     21  C   UNL     1       5.961   4.381  16.573  0.00  0.00    +0.000 A 
ATOM     22  C   UNL     1       4.734   3.734  16.458  0.00  0.00    +0.000 A 
ATOM     23  C   UNL     1       3.960   3.495  17.592  0.00  0.00    +0.000 A 
BRANCH  21  24
ATOM     24  S   UNL     1       6.894   4.699  15.094  0.00  0.00    +0.000 S 
BRANCH  24  25
ATOM     25  C   UNL     1       5.606   4.419  13.826  0.00  0.00    +0.000 C 
BRANCH  25  26
ATOM     26  C   UNL     1       6.096   3.485  12.707  0.00  0.00    +0.000 C 
ATOM     27  C   UNL     1       4.976   3.069  11.747  0.00  0.00    +0.000 C 
ATOM     28  C   UNL     1       7.211   4.172  11.913  0.00  0.00    +0.000 C 
ENDBRANCH  25  26
ENDBRANCH  24  25
ENDBRANCH  21  24
ENDBRANCH  16  18
ENDBRANCH   1  16
TORSDOF 11
ENDMDL
MODEL 2
REMARK VINA RESULT:      -6.8      2.883      8.753
REMARK  Name = 
REMARK  14 active torsions:
REMARK  status: ('A' for Active; 'I' for Inactive)
REMARK    1  A    between atoms: C_1  and  C_2
REMARK    2  A    between atoms: C_2  and  C_3
REMARK    3  A    between atoms: C_3  and  C_4
REMARK    4  A    between atoms: C_4  and  O_5
REMARK    5  A    between atoms: O_5  and  C_6
REMARK    6  A    between atoms: C_9  and  N_10
REMARK    7  A    between atoms: N_10  and  C_11
REMARK    8  A    between atoms: C_11  and  N_13
REMARK    9  A    between atoms: N_13  and  C_14
REMARK   10  A    between atoms: C_17  and  S_18
REMARK   11  A    between atoms: S_18  and  C_19
REMARK   12  A    between atoms: C_19  and  C_20
REMARK   13  A    between atoms: C_20  and  C_21
REMARK   14  A    between atoms: C_20  and  C_22
REMARK                            x       y       z     vdW  Elec       q    Type
REMARK                         _______ _______ _______ _____ _____    ______ ____
ROOT
ATOM      1  C   UNL     1       2.839   5.567  19.858  0.00  0.00    +0.000 C 
ATOM      2  S   UNL     1       1.532   4.584  19.530  0.00  0.00    +0.000 S 
ENDROOT
BRANCH   1   3
ATOM      3  N   UNL     1       4.132   5.411  19.412  0.00  0.00    +0.000 N 
ATOM      4  H   UNL     1       4.819   5.502  20.150  0.00  0.00    +0.000 HD
BRANCH   3   8
ATOM      5  C   UNL     1       5.548   5.036  15.472  0.00  0.00    +0.000 A 
ATOM      6  C   UNL     1       5.229   3.913  16.242  0.00  0.00    +0.000 A 
ATOM      7  C   UNL     1       4.759   4.061  17.547  0.00  0.00    +0.000 A 
ATOM      8  C   UNL     1       4.636   5.331  18.109  0.00  0.00    +0.000 A 
ATOM      9  C   UNL     1       4.910   6.455  17.330  0.00  0.00    +0.000 A 
ATOM     10  C   UNL     1       5.361   6.307  16.016  0.00  0.00    +0.000 A 
BRANCH   5  11
ATOM     11  O   UNL     1       6.040   5.004  14.191  0.00  0.00    +0.000 OA
BRANCH  11  12
ATOM     12  C   UNL     1       6.170   3.698  13.633  0.00  0.00    +0.000 C 
BRANCH  12  13
ATOM     13  C   UNL     1       6.060   3.755  12.113  0.00  0.00    +0.000 C 
BRANCH  13  15
ATOM     14  C   UNL     1       6.101   1.330  11.398  0.00  0.00    +0.000 C 
ATOM     15  C   UNL     1       5.244   2.562  11.616  0.00  0.00    +0.000 C 
ENDBRANCH  13  15
ENDBRANCH  12  13
ENDBRANCH  11  12
ENDBRANCH   5  11
ENDBRANCH   3   8
ENDBRANCH   1   3
BRANCH   1  16
ATOM     16  N   UNL     1       2.628   6.763  20.513  0.00  0.00    +0.000 N 
ATOM     17  H   UNL     1       3.240   6.952  21.301  0.00  0.00    +0.000 HD
BRANCH  16  18
ATOM     18  C   UNL     1       1.839   7.831  20.042  0.00  0.00    +0.000 A 
ATOM     19  C   UNL     1       2.050   8.302  18.748  0.00  0.00    +0.000 A 
ATOM     20  C   UNL     1       1.276   9.361  18.260  0.00  0.00    +0.000 A 
ATOM     21  C   UNL     1       0.250   9.912  19.041  0.00  0.00    +0.000 A 
ATOM     22  C   UNL     1       0.036   9.427  20.328  0.00  0.00    +0.000 A 
ATOM     23  C   UNL     1       0.827   8.394  20.827  0.00  0.00    +0.000 A 
BRANCH  21  24
ATOM     24  S   UNL     1      -0.758  11.256  18.461  0.00  0.00    +0.000 S 
BRANCH  24  25
ATOM     25  C   UNL     1      -2.212  10.334  17.846  0.00  0.00    +0.000 C 
BRANCH  25  26
ATOM     26  C   UNL     1      -2.797  10.968  16.573  0.00  0.00    +0.000 C 
ATOM     27  C   UNL     1      -2.786  10.014  15.374  0.00  0.00    +0.000 C 
ATOM     28  C   UNL     1      -4.235  11.425  16.839  0.00  0.00    +0.000 C 
ENDBRANCH  25  26
ENDBRANCH  24  25
ENDBRANCH  21  24
ENDBRANCH  16  18
ENDBRANCH   1  16
TORSDOF 11
ENDMDL
MODEL 3
REMARK VINA RESULT:      -6.7      2.698      8.640
REMARK  Name = 
REMARK  14 active torsions:
REMARK  status: ('A' for Active; 'I' for Inactive)
REMARK    1  A    between atoms: C_1  and  C_2
REMARK    2  A    between atoms: C_2  and  C_3
REMARK    3  A    between atoms: C_3  and  C_4
REMARK    4  A    between atoms: C_4  and  O_5
REMARK    5  A    between atoms: O_5  and  C_6
REMARK    6  A    between atoms: C_9  and  N_10
REMARK    7  A    between atoms: N_10  and  C_11
REMARK    8  A    between atoms: C_11  and  N_13
REMARK    9  A    between atoms: N_13  and  C_14
REMARK   10  A    between atoms: C_17  and  S_18
REMARK   11  A    between atoms: S_18  and  C_19
REMARK   12  A    between atoms: C_19  and  C_20
REMARK   13  A    between atoms: C_20  and  C_21
REMARK   14  A    between atoms: C_20  and  C_22
REMARK                            x       y       z     vdW  Elec       q    Type
REMARK                         _______ _______ _______ _____ _____    ______ ____
ROOT
ATOM      1  C   UNL     1       2.770   4.920  20.111  0.00  0.00    +0.000 C 
ATOM      2  S   UNL     1       1.178   4.466  20.317  0.00  0.00    +0.000 S 
ENDROOT
BRANCH   1   3
ATOM      3  N   UNL     1       3.810   4.133  19.670  0.00  0.00    +0.000 N 
ATOM      4  H   UNL     1       4.207   3.555  20.401  0.00  0.00    +0.000 HD
BRANCH   3   8
ATOM      5  C   UNL     1       6.025   4.126  16.097  0.00  0.00    +0.000 A 
ATOM      6  C   UNL     1       6.567   4.614  17.291  0.00  0.00    +0.000 A 
ATOM      7  C   UNL     1       5.815   4.605  18.464  0.00  0.00    +0.000 A 
ATOM      8  C   UNL     1       4.500   4.142  18.452  0.00  0.00    +0.000 A 
ATOM      9  C   UNL     1       3.969   3.614  17.276  0.00  0.00    +0.000 A 
ATOM     10  C   UNL     1       4.731   3.604  16.104  0.00  0.00    +0.000 A 
BRANCH   5  11
ATOM     11  O   UNL     1       6.666   4.111  14.884  0.00  0.00    +0.000 OA
BRANCH  11  12
ATOM     12  C   UNL     1       5.800   4.095  13.751  0.00  0.00    +0.000 C 
BRANCH  12  13
ATOM     13  C   UNL     1       6.555   3.627  12.511  0.00  0.00    +0.000 C 
BRANCH  13  15
ATOM     14  C   UNL     1       5.912   1.441  11.416  0.00  0.00    +0.000 C 
ATOM     15  C   UNL     1       5.589   2.915  11.565  0.00  0.00    +0.000 C 
ENDBRANCH  13  15
ENDBRANCH  12  13
ENDBRANCH  11  12
ENDBRANCH   5  11
ENDBRANCH   3   8
ENDBRANCH   1   3
BRANCH   1  16
ATOM     16  N   UNL     1       3.107   6.253  20.230  0.00  0.00    +0.000 N 
ATOM     17  H   UNL     1       4.070   6.447  20.483  0.00  0.00    +0.000 HD
BRANCH  16  18
ATOM     18  C   UNL     1       2.326   7.341  19.791  0.00  0.00    +0.000 A 
ATOM     19  C   UNL     1       2.337   7.671  18.437  0.00  0.00    +0.000 A 
ATOM     20  C   UNL     1       1.569   8.748  17.980  0.00  0.00    +0.000 A 
ATOM     21  C   UNL     1       0.742   9.458  18.862  0.00  0.00    +0.000 A 
ATOM     22  C   UNL     1       0.726   9.113  20.210  0.00  0.00    +0.000 A 
ATOM     23  C   UNL     1       1.515   8.062  20.673  0.00  0.00    +0.000 A 
BRANCH  21  24
ATOM     24  S   UNL     1      -0.251  10.830  18.324  0.00  0.00    +0.000 S 
BRANCH  24  25
ATOM     25  C   UNL     1      -1.638   9.940  17.530  0.00  0.00    +0.000 C 
BRANCH  25  26
ATOM     26  C   UNL     1      -2.684  10.907  16.949  0.00  0.00    +0.000 C 
ATOM     27  C   UNL     1      -2.854  10.757  15.434  0.00  0.00    +0.000 C 
ATOM     28  C   UNL     1      -4.035  10.676  17.633  0.00  0.00    +0.000 C 
ENDBRANCH  25  26
ENDBRANCH  24  25
ENDBRANCH  21  24
ENDBRANCH  16  18
ENDBRANCH   1  16
TORSDOF 11
ENDMDL
MODEL 4
REMARK VINA RESULT:      -6.7      3.516      7.786
REMARK  Name = 
REMARK  14 active torsions:
REMARK  status: ('A' for Active; 'I' for Inactive)
REMARK    1  A    between atoms: C_1  and  C_2
REMARK    2  A    between atoms: C_2  and  C_3
REMARK    3  A    between atoms: C_3  and  C_4
REMARK    4  A    between atoms: C_4  and  O_5
REMARK    5  A    between atoms: O_5  and  C_6
REMARK    6  A    between atoms: C_9  and  N_10
REMARK    7  A    between atoms: N_10  and  C_11
REMARK    8  A    between atoms: C_11  and  N_13
REMARK    9  A    between atoms: N_13  and  C_14
REMARK   10  A    between atoms: C_17  and  S_18
REMARK   11  A    between atoms: S_18  and  C_19
REMARK   12  A    between atoms: C_19  and  C_20
REMARK   13  A    between atoms: C_20  and  C_21
REMARK   14  A    between atoms: C_20  and  C_22
REMARK                            x       y       z     vdW  Elec       q    Type
REMARK                         _______ _______ _______ _____ _____    ______ ____
ROOT
ATOM      1  C   UNL     1       3.639   3.250  17.610  0.00  0.00    +0.000 C 
ATOM      2  S   UNL     1       3.384   1.724  18.236  0.00  0.00    +0.000 S 
ENDROOT
BRANCH   1   3
ATOM      3  N   UNL     1       4.779   3.719  16.997  0.00  0.00    +0.000 N 
ATOM      4  H   UNL     1       5.059   3.159  16.200  0.00  0.00    +0.000 HD
BRANCH   3   8
ATOM      5  C   UNL     1       7.562   6.579  18.317  0.00  0.00    +0.000 A 
ATOM      6  C   UNL     1       7.022   5.630  19.190  0.00  0.00    +0.000 A 
ATOM      7  C   UNL     1       6.101   4.690  18.731  0.00  0.00    +0.000 A 
ATOM      8  C   UNL     1       5.683   4.708  17.401  0.00  0.00    +0.000 A 
ATOM      9  C   UNL     1       6.252   5.623  16.515  0.00  0.00    +0.000 A 
ATOM     10  C   UNL     1       7.190   6.553  16.972  0.00  0.00    +0.000 A 
BRANCH   5  11
ATOM     11  O   UNL     1       8.453   7.562  18.668  0.00  0.00    +0.000 OA
BRANCH  11  12
ATOM     12  C   UNL     1       8.253   8.813  18.011  0.00  0.00    +0.000 C 
BRANCH  12  13
ATOM     13  C   UNL     1       8.955   9.931  18.772  0.00  0.00    +0.000 C 
BRANCH  13  15
ATOM     14  C   UNL     1       9.548  12.388  18.669  0.00  0.00    +0.000 C 
ATOM     15  C   UNL     1       8.851  11.232  17.976  0.00  0.00    +0.000 C 
ENDBRANCH  13  15
ENDBRANCH  12  13
ENDBRANCH  11  12
ENDBRANCH   5  11
ENDBRANCH   3   8
ENDBRANCH   1   3
BRANCH   1  16
ATOM     16  N   UNL     1       2.577   4.126  17.529  0.00  0.00    +0.000 N 
ATOM     17  H   UNL     1       1.843   3.876  16.874  0.00  0.00    +0.000 HD
BRANCH  16  18
ATOM     18  C   UNL     1       2.300   5.169  18.435  0.00  0.00    +0.000 A 
ATOM     19  C   UNL     1       1.855   4.847  19.715  0.00  0.00    +0.000 A 
ATOM     20  C   UNL     1       1.575   5.867  20.630  0.00  0.00    +0.000 A 
ATOM     21  C   UNL     1       1.798   7.209  20.290  0.00  0.00    +0.000 A 
ATOM     22  C   UNL     1       2.257   7.524  19.014  0.00  0.00    +0.000 A 
ATOM     23  C   UNL     1       2.505   6.510  18.091  0.00  0.00    +0.000 A 
BRANCH  21  24
ATOM     24  S   UNL     1       1.458   8.538  21.421  0.00  0.00    +0.000 S 
BRANCH  24  25
ATOM     25  C   UNL     1       0.507   9.659  20.334  0.00  0.00    +0.000 C 
BRANCH  25  26
ATOM     26  C   UNL     1       0.434  11.086  20.904  0.00  0.00    +0.000 C 
ATOM     27  C   UNL     1       1.323  12.076  20.145  0.00  0.00    +0.000 C 
ATOM     28  C   UNL     1      -1.015  11.581  20.869  0.00  0.00    +0.000 C 
ENDBRANCH  25  26
ENDBRANCH  24  25
ENDBRANCH  21  24
ENDBRANCH  16  18
ENDBRANCH   1  16
TORSDOF 11
ENDMDL
MODEL 5
REMARK VINA RESULT:      -6.7      2.757      9.087
REMARK  Name = 
REMARK  14 active torsions:
REMARK  status: ('A' for Active; 'I' for Inactive)
REMARK    1  A    between atoms: C_1  and  C_2
REMARK    2  A    between atoms: C_2  and  C_3
REMARK    3  A    between atoms: C_3  and  C_4
REMARK    4  A    between atoms: C_4  and  O_5
REMARK    5  A    between atoms: O_5  and  C_6
REMARK    6  A    between atoms: C_9  and  N_10
REMARK    7  A    between atoms: N_10  and  C_11
REMARK    8  A    between atoms: C_11  and  N_13
REMARK    9  A    between atoms: N_13  and  C_14
REMARK   10  A    between atoms: C_17  and  S_18
REMARK   11  A    between atoms: S_18  and  C_19
REMARK   12  A    between atoms: C_19  and  C_20
REMARK   13  A    between atoms: C_20  and  C_21
REMARK   14  A    between atoms: C_20  and  C_22
REMARK                            x       y       z     vdW  Elec       q    Type
REMARK                         _______ _______ _______ _____ _____    ______ ____
ROOT
ATOM      1  C   UNL     1       3.136   5.284  19.110  0.00  0.00    +0.000 C 
ATOM      2  S   UNL     1       1.988   4.258  18.466  0.00  0.00    +0.000 S 
ENDROOT
BRANCH   1   3
ATOM      3  N   UNL     1       4.445   5.427  18.707  0.00  0.00    +0.000 N 
ATOM      4  H   UNL     1       5.037   5.832  19.422  0.00  0.00    +0.000 HD
BRANCH   3   8
ATOM      5  C   UNL     1       6.133   4.805  14.908  0.00  0.00    +0.000 A 
ATOM      6  C   UNL     1       6.099   3.788  15.867  0.00  0.00    +0.000 A 
ATOM      7  C   UNL     1       5.533   4.015  17.120  0.00  0.00    +0.000 A 
ATOM      8  C   UNL     1       5.025   5.273  17.443  0.00  0.00    +0.000 A 
ATOM      9  C   UNL     1       5.015   6.278  16.476  0.00  0.00    +0.000 A 
ATOM     10  C   UNL     1       5.565   6.043  15.213  0.00  0.00    +0.000 A 
BRANCH   5  11
ATOM     11  O   UNL     1       6.687   4.697  13.657  0.00  0.00    +0.000 OA
BRANCH  11  12
ATOM     12  C   UNL     1       6.235   3.578  12.898  0.00  0.00    +0.000 C 
BRANCH  12  13
ATOM     13  C   UNL     1       4.764   3.741  12.532  0.00  0.00    +0.000 C 
BRANCH  13  15
ATOM     14  C   UNL     1       3.369   3.589  10.428  0.00  0.00    +0.000 C 
ATOM     15  C   UNL     1       4.465   2.950  11.259  0.00  0.00    +0.000 C 
ENDBRANCH  13  15
ENDBRANCH  12  13
ENDBRANCH  11  12
ENDBRANCH   5  11
ENDBRANCH   3   8
ENDBRANCH   1   3
BRANCH   1  16
ATOM     16  N   UNL     1       2.746   6.222  20.043  0.00  0.00    +0.000 N 
ATOM     17  H   UNL     1       3.081   6.072  20.990  0.00  0.00    +0.000 HD
BRANCH  16  18
ATOM     18  C   UNL     1       2.160   7.471  19.759  0.00  0.00    +0.000 A 
ATOM     19  C   UNL     1       2.256   7.979  18.465  0.00  0.00    +0.000 A 
ATOM     20  C   UNL     1       1.680   9.217  18.161  0.00  0.00    +0.000 A 
ATOM     21  C   UNL     1       0.955   9.922  19.132  0.00  0.00    +0.000 A 
ATOM     22  C   UNL     1       0.851   9.402  20.419  0.00  0.00    +0.000 A 
ATOM     23  C   UNL     1       1.452   8.185  20.732  0.00  0.00    +0.000 A 
BRANCH  21  24
ATOM     24  S   UNL     1       0.205  11.497  18.789  0.00  0.00    +0.000 S 
BRANCH  24  25
ATOM     25  C   UNL     1      -1.372  11.314  19.697  0.00  0.00    +0.000 C 
BRANCH  25  26
ATOM     26  C   UNL     1      -1.573  12.434  20.731  0.00  0.00    +0.000 C 
ATOM     27  C   UNL     1      -2.974  13.052  20.674  0.00  0.00    +0.000 C 
ATOM     28  C   UNL     1      -1.321  11.886  22.139  0.00  0.00    +0.000 C 
ENDBRANCH  25  26
ENDBRANCH  24  25
ENDBRANCH  21  24
ENDBRANCH  16  18
ENDBRANCH   1  16
TORSDOF 11
ENDMDL
MODEL 6
REMARK VINA RESULT:      -6.6      1.308      1.808
REMARK  Name = 
REMARK  14 active torsions:
REMARK  status: ('A' for Active; 'I' for Inactive)
REMARK    1  A    between atoms: C_1  and  C_2
REMARK    2  A    between atoms: C_2  and  C_3
REMARK    3  A    between atoms: C_3  and  C_4
REMARK    4  A    between atoms: C_4  and  O_5
REMARK    5  A    between atoms: O_5  and  C_6
REMARK    6  A    between atoms: C_9  and  N_10
REMARK    7  A    between atoms: N_10  and  C_11
REMARK    8  A    between atoms: C_11  and  N_13
REMARK    9  A    between atoms: N_13  and  C_14
REMARK   10  A    between atoms: C_17  and  S_18
REMARK   11  A    between atoms: S_18  and  C_19
REMARK   12  A    between atoms: C_19  and  C_20
REMARK   13  A    between atoms: C_20  and  C_21
REMARK   14  A    between atoms: C_20  and  C_22
REMARK                            x       y       z     vdW  Elec       q    Type
REMARK                         _______ _______ _______ _____ _____    ______ ____
ROOT
ATOM      1  C   UNL     1       3.321   5.050  20.108  0.00  0.00    +0.000 C 
ATOM      2  S   UNL     1       3.061   3.401  20.092  0.00  0.00    +0.000 S 
ENDROOT
BRANCH   1   3
ATOM      3  N   UNL     1       2.492   6.018  20.628  0.00  0.00    +0.000 N 
ATOM      4  H   UNL     1       2.091   5.758  21.521  0.00  0.00    +0.000 HD
BRANCH   3   8
ATOM      5  C   UNL     1       1.026   9.619  19.030  0.00  0.00    +0.000 A 
ATOM      6  C   UNL     1       0.858   9.298  20.381  0.00  0.00    +0.000 A 
ATOM      7  C   UNL     1       1.354   8.099  20.890  0.00  0.00    +0.000 A 
ATOM      8  C   UNL     1       1.992   7.190  20.048  0.00  0.00    +0.000 A 
ATOM      9  C   UNL     1       2.202   7.523  18.710  0.00  0.00    +0.000 A 
ATOM     10  C   UNL     1       1.723   8.734  18.205  0.00  0.00    +0.000 A 
BRANCH   5  11
ATOM     11  O   UNL     1       0.558  10.756  18.422  0.00  0.00    +0.000 OA
BRANCH  11  12
ATOM     12  C   UNL     1      -0.859  10.919  18.468  0.00  0.00    +0.000 C 
BRANCH  12  13
ATOM     13  C   UNL     1      -1.527  10.080  17.385  0.00  0.00    +0.000 C 
BRANCH  13  15
ATOM     14  C   UNL     1      -3.627  11.297  18.095  0.00  0.00    +0.000 C 
ATOM     15  C   UNL     1      -3.023   9.970  17.676  0.00  0.00    +0.000 C 
ENDBRANCH  13  15
ENDBRANCH  12  13
ENDBRANCH  11  12
ENDBRANCH   5  11
ENDBRANCH   3   8
ENDBRANCH   1   3
BRANCH   1  16
ATOM     16  N   UNL     1       4.549   5.537  19.712  0.00  0.00    +0.000 N 
ATOM     17  H   UNL     1       5.147   5.890  20.452  0.00  0.00    +0.000 HD
BRANCH  16  18
ATOM     18  C   UNL     1       5.136   5.356  18.444  0.00  0.00    +0.000 A 
ATOM     19  C   UNL     1       4.346   4.873  17.402  0.00  0.00    +0.000 A 
ATOM     20  C   UNL     1       4.909   4.686  16.134  0.00  0.00    +0.000 A 
ATOM     21  C   UNL     1       6.243   5.040  15.888  0.00  0.00    +0.000 A 
ATOM     22  C   UNL     1       7.022   5.536  16.930  0.00  0.00    +0.000 A 
ATOM     23  C   UNL     1       6.472   5.691  18.201  0.00  0.00    +0.000 A 
BRANCH  21  24
ATOM     24  S   UNL     1       6.998   4.822  14.294  0.00  0.00    +0.000 S 
BRANCH  24  25
ATOM     25  C   UNL     1       5.940   3.498  13.609  0.00  0.00    +0.000 C 
BRANCH  25  26
ATOM     26  C   UNL     1       5.952   3.491  12.070  0.00  0.00    +0.000 C 
ATOM     27  C   UNL     1       6.922   2.457  11.489  0.00  0.00    +0.000 C 
ATOM     28  C   UNL     1       4.541   3.209  11.545  0.00  0.00    +0.000 C 
ENDBRANCH  25  26
ENDBRANCH  24  25
ENDBRANCH  21  24
ENDBRANCH  16  18
ENDBRANCH   1  16
TORSDOF 11
ENDMDL
MODEL 7
REMARK VINA RESULT:      -6.6      3.439      7.705
REMARK  Name = 
REMARK  14 active torsions:
REMARK  status: ('A' for Active; 'I' for Inactive)
REMARK    1  A    between atoms: C_1  and  C_2
REMARK    2  A    between atoms: C_2  and  C_3
REMARK    3  A    between atoms: C_3  and  C_4
REMARK    4  A    between atoms: C_4  and  O_5
REMARK    5  A    between atoms: O_5  and  C_6
REMARK    6  A    between atoms: C_9  and  N_10
REMARK    7  A    between atoms: N_10  and  C_11
REMARK    8  A    between atoms: C_11  and  N_13
REMARK    9  A    between atoms: N_13  and  C_14
REMARK   10  A    between atoms: C_17  and  S_18
REMARK   11  A    between atoms: S_18  and  C_19
REMARK   12  A    between atoms: C_19  and  C_20
REMARK   13  A    between atoms: C_20  and  C_21
REMARK   14  A    between atoms: C_20  and  C_22
REMARK                            x       y       z     vdW  Elec       q    Type
REMARK                         _______ _______ _______ _____ _____    ______ ____
ROOT
ATOM      1  C   UNL     1       2.917   4.282  19.151  0.00  0.00    +0.000 C 
ATOM      2  S   UNL     1       1.454   3.540  18.849  0.00  0.00    +0.000 S 
ENDROOT
BRANCH   1   3
ATOM      3  N   UNL     1       4.098   4.106  18.466  0.00  0.00    +0.000 N 
ATOM      4  H   UNL     1       4.314   3.131  18.294  0.00  0.00    +0.000 HD
BRANCH   3   8
ATOM      5  C   UNL     1       6.997   6.970  17.436  0.00  0.00    +0.000 A 
ATOM      6  C   UNL     1       5.840   6.795  16.671  0.00  0.00    +0.000 A 
ATOM      7  C   UNL     1       4.891   5.840  17.031  0.00  0.00    +0.000 A 
ATOM      8  C   UNL     1       5.103   5.024  18.142  0.00  0.00    +0.000 A 
ATOM      9  C   UNL     1       6.233   5.224  18.934  0.00  0.00    +0.000 A 
ATOM     10  C   UNL     1       7.175   6.195  18.584  0.00  0.00    +0.000 A 
BRANCH   5  11
ATOM     11  O   UNL     1       8.004   7.860  17.158  0.00  0.00    +0.000 OA
BRANCH  11  12
ATOM     12  C   UNL     1       8.493   8.582  18.287  0.00  0.00    +0.000 C 
BRANCH  12  13
ATOM     13  C   UNL     1       8.356  10.083  18.058  0.00  0.00    +0.000 C 
BRANCH  13  15
ATOM     14  C   UNL     1       9.644  11.023  20.021  0.00  0.00    +0.000 C 
ATOM     15  C   UNL     1       9.631  10.787  18.523  0.00  0.00    +0.000 C 
ENDBRANCH  13  15
ENDBRANCH  12  13
ENDBRANCH  11  12
ENDBRANCH   5  11
ENDBRANCH   3   8
ENDBRANCH   1   3
BRANCH   1  16
ATOM     16  N   UNL     1       2.970   5.307  20.074  0.00  0.00    +0.000 N 
ATOM     17  H   UNL     1       3.672   5.214  20.801  0.00  0.00    +0.000 HD
BRANCH  16  18
ATOM     18  C   UNL     1       2.332   6.557  19.952  0.00  0.00    +0.000 A 
ATOM     19  C   UNL     1       1.615   7.053  21.039  0.00  0.00    +0.000 A 
ATOM     20  C   UNL     1       0.974   8.293  20.940  0.00  0.00    +0.000 A 
ATOM     21  C   UNL     1       1.099   9.068  19.778  0.00  0.00    +0.000 A 
ATOM     22  C   UNL     1       1.829   8.573  18.702  0.00  0.00    +0.000 A 
ATOM     23  C   UNL     1       2.440   7.323  18.787  0.00  0.00    +0.000 A 
BRANCH  21  24
ATOM     24  S   UNL     1       0.305  10.649  19.610  0.00  0.00    +0.000 S 
BRANCH  24  25
ATOM     25  C   UNL     1      -0.518  10.432  17.991  0.00  0.00    +0.000 C 
BRANCH  25  26
ATOM     26  C   UNL     1      -2.044  10.305  18.136  0.00  0.00    +0.000 C 
ATOM     27  C   UNL     1      -2.714  11.620  18.547  0.00  0.00    +0.000 C 
ATOM     28  C   UNL     1      -2.649   9.824  16.813  0.00  0.00    +0.000 C 
ENDBRANCH  25  26
ENDBRANCH  24  25
ENDBRANCH  21  24
ENDBRANCH  16  18
ENDBRANCH   1  16
TORSDOF 11
ENDMDL
MODEL 8
REMARK VINA RESULT:      -6.6      3.562      7.888
REMARK  Name = 
REMARK  14 active torsions:
REMARK  status: ('A' for Active; 'I' for Inactive)
REMARK    1  A    between atoms: C_1  and  C_2
REMARK    2  A    between atoms: C_2  and  C_3
REMARK    3  A    between atoms: C_3  and  C_4
REMARK    4  A    between atoms: C_4  and  O_5
REMARK    5  A    between atoms: O_5  and  C_6
REMARK    6  A    between atoms: C_9  and  N_10
REMARK    7  A    between atoms: N_10  and  C_11
REMARK    8  A    between atoms: C_11  and  N_13
REMARK    9  A    between atoms: N_13  and  C_14
REMARK   10  A    between atoms: C_17  and  S_18
REMARK   11  A    between atoms: S_18  and  C_19
REMARK   12  A    between atoms: C_19  and  C_20
REMARK   13  A    between atoms: C_20  and  C_21
REMARK   14  A    between atoms: C_20  and  C_22
REMARK                            x       y       z     vdW  Elec       q    Type
REMARK                         _______ _______ _______ _____ _____    ______ ____
ROOT
ATOM      1  C   UNL     1       4.100   3.303  18.039  0.00  0.00    +0.000 C 
ATOM      2  S   UNL     1       3.836   1.875  18.862  0.00  0.00    +0.000 S 
ENDROOT
BRANCH   1   3
ATOM      3  N   UNL     1       5.266   3.709  17.429  0.00  0.00    +0.000 N 
ATOM      4  H   UNL     1       5.609   3.043  16.748  0.00  0.00    +0.000 HD
BRANCH   3   8
ATOM      5  C   UNL     1       7.711   7.027  18.256  0.00  0.00    +0.000 A 
ATOM      6  C   UNL     1       6.911   6.977  17.110  0.00  0.00    +0.000 A 
ATOM      7  C   UNL     1       6.107   5.867  16.856  0.00  0.00    +0.000 A 
ATOM      8  C   UNL     1       6.118   4.778  17.727  0.00  0.00    +0.000 A 
ATOM      9  C   UNL     1       6.879   4.841  18.894  0.00  0.00    +0.000 A 
ATOM     10  C   UNL     1       7.669   5.962  19.158  0.00  0.00    +0.000 A 
BRANCH   5  11
ATOM     11  O   UNL     1       8.556   8.055  18.589  0.00  0.00    +0.000 OA
BRANCH  11  12
ATOM     12  C   UNL     1       8.307   9.280  17.902  0.00  0.00    +0.000 C 
BRANCH  12  13
ATOM     13  C   UNL     1       8.717  10.467  18.766  0.00  0.00    +0.000 C 
BRANCH  13  15
ATOM     14  C   UNL     1      10.623  11.783  17.751  0.00  0.00    +0.000 C 
ATOM     15  C   UNL     1      10.231  10.656  18.688  0.00  0.00    +0.000 C 
ENDBRANCH  13  15
ENDBRANCH  12  13
ENDBRANCH  11  12
ENDBRANCH   5  11
ENDBRANCH   3   8
ENDBRANCH   1   3
BRANCH   1  16
ATOM     16  N   UNL     1       3.029   4.131  17.776  0.00  0.00    +0.000 N 
ATOM     17  H   UNL     1       2.401   3.825  17.040  0.00  0.00    +0.000 HD
BRANCH  16  18
ATOM     18  C   UNL     1       2.597   5.200  18.586  0.00  0.00    +0.000 A 
ATOM     19  C   UNL     1       2.071   4.917  19.845  0.00  0.00    +0.000 A 
ATOM     20  C   UNL     1       1.636   5.964  20.665  0.00  0.00    +0.000 A 
ATOM     21  C   UNL     1       1.782   7.297  20.257  0.00  0.00    +0.000 A 
ATOM     22  C   UNL     1       2.322   7.572  19.004  0.00  0.00    +0.000 A 
ATOM     23  C   UNL     1       2.725   6.530  18.172  0.00  0.00    +0.000 A 
BRANCH  21  24
ATOM     24  S   UNL     1       1.246   8.657  21.268  0.00  0.00    +0.000 S 
BRANCH  24  25
ATOM     25  C   UNL     1       0.808   9.874  19.975  0.00  0.00    +0.000 C 
BRANCH  25  26
ATOM     26  C   UNL     1      -0.563  10.520  20.236  0.00  0.00    +0.000 C 
ATOM     27  C   UNL     1      -0.467  11.798  21.076  0.00  0.00    +0.000 C 
ATOM     28  C   UNL     1      -1.242  10.845  18.901  0.00  0.00    +0.000 C 
ENDBRANCH  25  26
ENDBRANCH  24  25
ENDBRANCH  21  24
ENDBRANCH  16  18
ENDBRANCH   1  16
TORSDOF 11
ENDMDL
MODEL 9
REMARK VINA RESULT:      -6.5      2.787      9.122
REMARK  Name = 
REMARK  14 active torsions:
REMARK  status: ('A' for Active; 'I' for Inactive)
REMARK    1  A    between atoms: C_1  and  C_2
REMARK    2  A    between atoms: C_2  and  C_3
REMARK    3  A    between atoms: C_3  and  C_4
REMARK    4  A    between atoms: C_4  and  O_5
REMARK    5  A    between atoms: O_5  and  C_6
REMARK    6  A    between atoms: C_9  and  N_10
REMARK    7  A    between atoms: N_10  and  C_11
REMARK    8  A    between atoms: C_11  and  N_13
REMARK    9  A    between atoms: N_13  and  C_14
REMARK   10  A    between atoms: C_17  and  S_18
REMARK   11  A    between atoms: S_18  and  C_19
REMARK   12  A    between atoms: C_19  and  C_20
REMARK   13  A    between atoms: C_20  and  C_21
REMARK   14  A    between atoms: C_20  and  C_22
REMARK                            x       y       z     vdW  Elec       q    Type
REMARK                         _______ _______ _______ _____ _____    ______ ____
ROOT
ATOM      1  C   UNL     1       2.973   5.359  19.643  0.00  0.00    +0.000 C 
ATOM      2  S   UNL     1       2.023   4.390  18.672  0.00  0.00    +0.000 S 
ENDROOT
BRANCH   1   3
ATOM      3  N   UNL     1       4.332   5.559  19.545  0.00  0.00    +0.000 N 
ATOM      4  H   UNL     1       4.733   5.967  20.381  0.00  0.00    +0.000 HD
BRANCH   3   8
ATOM      5  C   UNL     1       6.873   5.425  16.200  0.00  0.00    +0.000 A 
ATOM      6  C   UNL     1       5.760   6.270  16.237  0.00  0.00    +0.000 A 
ATOM      7  C   UNL     1       4.931   6.300  17.357  0.00  0.00    +0.000 A 
ATOM      8  C   UNL     1       5.185   5.459  18.440  0.00  0.00    +0.000 A 
ATOM      9  C   UNL     1       6.318   4.647  18.428  0.00  0.00    +0.000 A 
ATOM     10  C   UNL     1       7.160   4.632  17.312  0.00  0.00    +0.000 A 
BRANCH   5  11
ATOM     11  O   UNL     1       7.737   5.298  15.141  0.00  0.00    +0.000 OA
BRANCH  11  12
ATOM     12  C   UNL     1       7.112   5.041  13.886  0.00  0.00    +0.000 C 
BRANCH  12  13
ATOM     13  C   UNL     1       6.291   3.758  13.953  0.00  0.00    +0.000 C 
BRANCH  13  15
ATOM     14  C   UNL     1       5.334   2.824  11.807  0.00  0.00    +0.000 C 
ATOM     15  C   UNL     1       5.155   3.825  12.932  0.00  0.00    +0.000 C 
ENDBRANCH  13  15
ENDBRANCH  12  13
ENDBRANCH  11  12
ENDBRANCH   5  11
ENDBRANCH   3   8
ENDBRANCH   1   3
BRANCH   1  16
ATOM     16  N   UNL     1       2.364   6.192  20.558  0.00  0.00    +0.000 N 
ATOM     17  H   UNL     1       2.471   5.935  21.534  0.00  0.00    +0.000 HD
BRANCH  16  18
ATOM     18  C   UNL     1       1.841   7.472  20.285  0.00  0.00    +0.000 A 
ATOM     19  C   UNL     1       2.016   8.011  19.012  0.00  0.00    +0.000 A 
ATOM     20  C   UNL     1       1.505   9.280  18.720  0.00  0.00    +0.000 A 
ATOM     21  C   UNL     1       0.764   9.987  19.678  0.00  0.00    +0.000 A 
ATOM     22  C   UNL     1       0.580   9.436  20.942  0.00  0.00    +0.000 A 
ATOM     23  C   UNL     1       1.117   8.186  21.245  0.00  0.00    +0.000 A 
BRANCH  21  24
ATOM     24  S   UNL     1       0.094  11.601  19.348  0.00  0.00    +0.000 S 
BRANCH  24  25
ATOM     25  C   UNL     1       0.269  12.371  20.998  0.00  0.00    +0.000 C 
BRANCH  25  26
ATOM     26  C   UNL     1      -1.082  12.487  21.724  0.00  0.00    +0.000 C 
ATOM     27  C   UNL     1      -1.048  13.487  22.884  0.00  0.00    +0.000 C 
ATOM     28  C   UNL     1      -2.167  12.907  20.728  0.00  0.00    +0.000 C 
ENDBRANCH  25  26
ENDBRANCH  24  25
ENDBRANCH  21  24
ENDBRANCH  16  18
ENDBRANCH   1  16
TORSDOF 11
ENDMDL
