MODEL 1
REMARK VINA RESULT:      -5.5      0.000      0.000
REMARK  Name = 
REMARK  8 active torsions:
REMARK  status: ('A' for Active; 'I' for Inactive)
REMARK    1  A    between atoms: N_1  and  CA_2
REMARK    2  A    between atoms: CA_2  and  C_3
REMARK    3  A    between atoms: CA_2  and  C_6
REMARK    4  A    between atoms: C_3  and  OXT_5
REMARK    5  A    between atoms: C_7  and  C_8
REMARK    6  A    between atoms: C_8  and  O_10
REMARK    7  A    between atoms: C_11  and  C_12
REMARK    8  A    between atoms: C_12  and  O_14
REMARK                            x       y       z     vdW  Elec       q    Type
REMARK                         _______ _______ _______ _____ _____    ______ ____
ROOT
ATOM      1  C   UNL     1       5.094   4.200  17.613  0.00  0.00    +0.000 C 
ATOM      2  C   UNL     1       5.878   4.058  16.310  0.00  0.00    +0.000 C 
ATOM      3  C   UNL     1       4.701   5.008  16.388  0.00  0.00    +0.000 C 
ENDROOT
BRANCH   2   4
ATOM      4  C   UNL     1       7.277   4.529  16.275  0.00  0.00    +0.000 C 
ATOM      5  O   UNL     1       8.058   4.234  17.167  0.00  0.00    +0.000 OA
BRANCH   4   6
ATOM      6  O   UNL     1       7.580   5.327  15.235  0.00  0.00    +0.000 OA
ATOM      7  H   UNL     1       8.279   5.986  15.413  0.00  0.00    +0.000 HD
ENDBRANCH   4   6
ENDBRANCH   2   4
BRANCH   3   8
ATOM      8  C   UNL     1       4.793   6.495  16.374  0.00  0.00    +0.000 C 
ATOM      9  O   UNL     1       4.584   7.126  17.399  0.00  0.00    +0.000 OA
BRANCH   8  10
ATOM     10  O   UNL     1       5.153   7.090  15.219  0.00  0.00    +0.000 OA
ATOM     11  H   UNL     1       5.167   6.533  14.409  0.00  0.00    +0.000 HD
ENDBRANCH   8  10
ENDBRANCH   3   8
BRANCH   1  12
ATOM     12  CA  UNL     1       4.322   3.035  18.163  0.00  0.00    +0.000 C 
BRANCH  12  13
ATOM     13  N   UNL     1       4.820   2.621  19.485  0.00  0.00    +0.000 NA
ATOM     14  H1  UNL     1       5.632   2.014  19.348  0.00  0.00    +0.000 HD
ATOM     15  H2  UNL     1       4.131   1.989  19.902  0.00  0.00    +0.000 HD
ENDBRANCH  12  13
BRANCH  12  16
ATOM     16  C   UNL     1       2.820   3.388  18.257  0.00  0.00    +0.000 C 
ATOM     17  O   UNL     1       1.984   2.997  17.450  0.00  0.00    +0.000 OA
BRANCH  16  18
ATOM     18  OXT UNL     1       2.489   4.106  19.353  0.00  0.00    +0.000 OA
ATOM     19  HXT UNL     1       1.901   3.650  19.986  0.00  0.00    +0.000 HD
ENDBRANCH  16  18
ENDBRANCH  12  16
ENDBRANCH   1  12
TORSDOF 8
ENDMDL
MODEL 2
REMARK VINA RESULT:      -5.5      1.975      4.851
REMARK  Name = 
REMARK  8 active torsions:
REMARK  status: ('A' for Active; 'I' for Inactive)
REMARK    1  A    between atoms: N_1  and  CA_2
REMARK    2  A    between atoms: CA_2  and  C_3
REMARK    3  A    between atoms: CA_2  and  C_6
REMARK    4  A    between atoms: C_3  and  OXT_5
REMARK    5  A    between atoms: C_7  and  C_8
REMARK    6  A    between atoms: C_8  and  O_10
REMARK    7  A    between atoms: C_11  and  C_12
REMARK    8  A    between atoms: C_12  and  O_14
REMARK                            x       y       z     vdW  Elec       q    Type
REMARK                         _______ _______ _______ _____ _____    ______ ____
ROOT
ATOM      1  C   UNL     1       5.337   4.741  18.835  0.00  0.00    +0.000 C 
ATOM      2  C   UNL     1       3.981   5.388  19.104  0.00  0.00    +0.000 C 
ATOM      3  C   UNL     1       4.232   4.670  17.795  0.00  0.00    +0.000 C 
ENDROOT
BRANCH   2   4
ATOM      4  C   UNL     1       3.130   4.822  20.170  0.00  0.00    +0.000 C 
ATOM      5  O   UNL     1       3.057   3.614  20.335  0.00  0.00    +0.000 OA
BRANCH   4   6
ATOM      6  O   UNL     1       2.431   5.728  20.878  0.00  0.00    +0.000 OA
ATOM      7  H   UNL     1       1.488   5.508  21.009  0.00  0.00    +0.000 HD
ENDBRANCH   4   6
ENDBRANCH   2   4
BRANCH   3   8
ATOM      8  C   UNL     1       3.622   3.370  17.397  0.00  0.00    +0.000 C 
ATOM      9  O   UNL     1       2.562   3.356  16.790  0.00  0.00    +0.000 OA
BRANCH   8  10
ATOM     10  O   UNL     1       4.300   2.242  17.692  0.00  0.00    +0.000 OA
ATOM     11  H   UNL     1       4.635   1.706  16.939  0.00  0.00    +0.000 HD
ENDBRANCH   8  10
ENDBRANCH   3   8
BRANCH   1  12
ATOM     12  CA  UNL     1       6.573   5.588  18.724  0.00  0.00    +0.000 C 
BRANCH  12  13
ATOM     13  N   UNL     1       7.475   5.396  19.870  0.00  0.00    +0.000 NA
ATOM     14  H1  UNL     1       7.765   4.415  19.893  0.00  0.00    +0.000 HD
ATOM     15  H2  UNL     1       6.927   5.493  20.729  0.00  0.00    +0.000 HD
ENDBRANCH  12  13
BRANCH  12  16
ATOM     16  C   UNL     1       7.321   5.271  17.409  0.00  0.00    +0.000 C 
ATOM     17  O   UNL     1       7.332   6.023  16.442  0.00  0.00    +0.000 OA
BRANCH  16  18
ATOM     18  OXT UNL     1       8.030   4.122  17.441  0.00  0.00    +0.000 OA
ATOM     19  HXT UNL     1       7.618   3.394  17.946  0.00  0.00    +0.000 HD
ENDBRANCH  16  18
ENDBRANCH  12  16
ENDBRANCH   1  12
TORSDOF 8
ENDMDL
MODEL 3
REMARK VINA RESULT:      -5.4      1.770      2.222
REMARK  Name = 
REMARK  8 active torsions:
REMARK  status: ('A' for Active; 'I' for Inactive)
REMARK    1  A    between atoms: N_1  and  CA_2
REMARK    2  A    between atoms: CA_2  and  C_3
REMARK    3  A    between atoms: CA_2  and  C_6
REMARK    4  A    between atoms: C_3  and  OXT_5
REMARK    5  A    between atoms: C_7  and  C_8
REMARK    6  A    between atoms: C_8  and  O_10
REMARK    7  A    between atoms: C_11  and  C_12
REMARK    8  A    between atoms: C_12  and  O_14
REMARK                            x       y       z     vdW  Elec       q    Type
REMARK                         _______ _______ _______ _____ _____    ______ ____
ROOT
ATOM      1  C   UNL     1       5.369   4.268  16.740  0.00  0.00    +0.000 C 
ATOM      2  C   UNL     1       5.542   5.020  15.422  0.00  0.00    +0.000 C 
ATOM      3  C   UNL     1       5.811   5.722  16.738  0.00  0.00    +0.000 C 
ENDROOT
BRANCH   2   4
ATOM      4  C   UNL     1       6.626   4.602  14.510  0.00  0.00    +0.000 C 
ATOM      5  O   UNL     1       7.604   5.313  14.336  0.00  0.00    +0.000 OA
BRANCH   4   6
ATOM      6  O   UNL     1       6.413   3.436  13.875  0.00  0.00    +0.000 OA
ATOM      7  H   UNL     1       5.857   2.798  14.363  0.00  0.00    +0.000 HD
ENDBRANCH   4   6
ENDBRANCH   2   4
BRANCH   3   8
ATOM      8  C   UNL     1       7.155   6.126  17.237  0.00  0.00    +0.000 C 
ATOM      9  O   UNL     1       7.697   5.476  18.118  0.00  0.00    +0.000 OA
BRANCH   8  10
ATOM     10  O   UNL     1       7.747   7.189  16.655  0.00  0.00    +0.000 OA
ATOM     11  H   UNL     1       7.573   8.074  17.048  0.00  0.00    +0.000 HD
ENDBRANCH   8  10
ENDBRANCH   3   8
BRANCH   1  12
ATOM     12  CA  UNL     1       4.012   3.779  17.160  0.00  0.00    +0.000 C 
BRANCH  12  13
ATOM     13  N   UNL     1       4.066   2.413  17.707  0.00  0.00    +0.000 NA
ATOM     14  H1  UNL     1       3.728   2.439  18.673  0.00  0.00    +0.000 HD
ATOM     15  H2  UNL     1       5.049   2.151  17.816  0.00  0.00    +0.000 HD
ENDBRANCH  12  13
BRANCH  12  16
ATOM     16  C   UNL     1       3.400   4.738  18.205  0.00  0.00    +0.000 C 
ATOM     17  O   UNL     1       2.490   5.519  17.952  0.00  0.00    +0.000 OA
BRANCH  16  18
ATOM     18  OXT UNL     1       3.903   4.591  19.451  0.00  0.00    +0.000 OA
ATOM     19  HXT UNL     1       3.246   4.374  20.141  0.00  0.00    +0.000 HD
ENDBRANCH  16  18
ENDBRANCH  12  16
ENDBRANCH   1  12
TORSDOF 8
ENDMDL
MODEL 4
REMARK VINA RESULT:      -5.4      2.329      5.400
REMARK  Name = 
REMARK  8 active torsions:
REMARK  status: ('A' for Active; 'I' for Inactive)
REMARK    1  A    between atoms: N_1  and  CA_2
REMARK    2  A    between atoms: CA_2  and  C_3
REMARK    3  A    between atoms: CA_2  and  C_6
REMARK    4  A    between atoms: C_3  and  OXT_5
REMARK    5  A    between atoms: C_7  and  C_8
REMARK    6  A    between atoms: C_8  and  O_10
REMARK    7  A    between atoms: C_11  and  C_12
REMARK    8  A    between atoms: C_12  and  O_14
REMARK                            x       y       z     vdW  Elec       q    Type
REMARK                         _______ _______ _______ _____ _____    ______ ____
ROOT
ATOM      1  C   UNL     1       3.496   3.838  19.374  0.00  0.00    +0.000 C 
ATOM      2  C   UNL     1       2.355   4.053  20.366  0.00  0.00    +0.000 C 
ATOM      3  C   UNL     1       2.053   3.840  18.898  0.00  0.00    +0.000 C 
ENDROOT
BRANCH   2   4
ATOM      4  C   UNL     1       2.105   3.016  21.387  0.00  0.00    +0.000 C 
ATOM      5  O   UNL     1       3.034   2.470  21.964  0.00  0.00    +0.000 OA
BRANCH   4   6
ATOM      6  O   UNL     1       0.809   2.706  21.574  0.00  0.00    +0.000 OA
ATOM      7  H   UNL     1       0.620   2.206  22.391  0.00  0.00    +0.000 HD
ENDBRANCH   4   6
ENDBRANCH   2   4
BRANCH   3   8
ATOM      8  C   UNL     1       1.425   2.620  18.317  0.00  0.00    +0.000 C 
ATOM      9  O   UNL     1       0.256   2.363  18.563  0.00  0.00    +0.000 OA
BRANCH   8  10
ATOM     10  O   UNL     1       2.175   1.859  17.495  0.00  0.00    +0.000 OA
ATOM     11  H   UNL     1       2.530   2.287  16.683  0.00  0.00    +0.000 HD
ENDBRANCH   8  10
ENDBRANCH   3   8
BRANCH   1  12
ATOM     12  CA  UNL     1       4.492   4.933  19.115  0.00  0.00    +0.000 C 
BRANCH  12  13
ATOM     13  N   UNL     1       5.878   4.459  19.256  0.00  0.00    +0.000 NA
ATOM     14  H1  UNL     1       6.402   4.742  18.424  0.00  0.00    +0.000 HD
ATOM     15  H2  UNL     1       5.875   3.437  19.187  0.00  0.00    +0.000 HD
ENDBRANCH  12  13
BRANCH  12  16
ATOM     16  C   UNL     1       4.280   5.523  17.703  0.00  0.00    +0.000 C 
ATOM     17  O   UNL     1       3.911   6.674  17.502  0.00  0.00    +0.000 OA
BRANCH  16  18
ATOM     18  OXT UNL     1       4.611   4.682  16.698  0.00  0.00    +0.000 OA
ATOM     19  HXT UNL     1       3.871   4.158  16.335  0.00  0.00    +0.000 HD
ENDBRANCH  16  18
ENDBRANCH  12  16
ENDBRANCH   1  12
TORSDOF 8
ENDMDL
MODEL 5
REMARK VINA RESULT:      -5.4      1.898      4.605
REMARK  Name = 
REMARK  8 active torsions:
REMARK  status: ('A' for Active; 'I' for Inactive)
REMARK    1  A    between atoms: N_1  and  CA_2
REMARK    2  A    between atoms: CA_2  and  C_3
REMARK    3  A    between atoms: CA_2  and  C_6
REMARK    4  A    between atoms: C_3  and  OXT_5
REMARK    5  A    between atoms: C_7  and  C_8
REMARK    6  A    between atoms: C_8  and  O_10
REMARK    7  A    between atoms: C_11  and  C_12
REMARK    8  A    between atoms: C_12  and  O_14
REMARK                            x       y       z     vdW  Elec       q    Type
REMARK                         _______ _______ _______ _____ _____    ______ ____
ROOT
ATOM      1  C   UNL     1       4.729   4.200  16.635  0.00  0.00    +0.000 C 
ATOM      2  C   UNL     1       4.151   3.167  17.600  0.00  0.00    +0.000 C 
ATOM      3  C   UNL     1       4.710   4.472  18.130  0.00  0.00    +0.000 C 
ENDROOT
BRANCH   2   4
ATOM      4  C   UNL     1       2.702   2.887  17.548  0.00  0.00    +0.000 C 
ATOM      5  O   UNL     1       1.927   3.696  17.058  0.00  0.00    +0.000 OA
BRANCH   4   6
ATOM      6  O   UNL     1       2.328   1.727  18.117  0.00  0.00    +0.000 OA
ATOM      7  H   UNL     1       1.454   1.745  18.551  0.00  0.00    +0.000 HD
ENDBRANCH   4   6
ENDBRANCH   2   4
BRANCH   3   8
ATOM      8  C   UNL     1       3.901   5.582  18.708  0.00  0.00    +0.000 C 
ATOM      9  O   UNL     1       3.500   6.481  17.985  0.00  0.00    +0.000 OA
BRANCH   8  10
ATOM     10  O   UNL     1       3.605   5.523  20.022  0.00  0.00    +0.000 OA
ATOM     11  H   UNL     1       3.798   6.321  20.564  0.00  0.00    +0.000 HD
ENDBRANCH   8  10
ENDBRANCH   3   8
BRANCH   1  12
ATOM     12  CA  UNL     1       5.957   3.882  15.831  0.00  0.00    +0.000 C 
BRANCH  12  13
ATOM     13  N   UNL     1       5.764   4.158  14.399  0.00  0.00    +0.000 NA
ATOM     14  H1  UNL     1       4.793   3.945  14.157  0.00  0.00    +0.000 HD
ATOM     15  H2  UNL     1       6.291   3.461  13.865  0.00  0.00    +0.000 HD
ENDBRANCH  12  13
BRANCH  12  16
ATOM     16  C   UNL     1       7.165   4.687  16.362  0.00  0.00    +0.000 C 
ATOM     17  O   UNL     1       8.025   4.210  17.092  0.00  0.00    +0.000 OA
BRANCH  16  18
ATOM     18  OXT UNL     1       7.236   5.951  15.888  0.00  0.00    +0.000 OA
ATOM     19  HXT UNL     1       7.751   6.572  16.438  0.00  0.00    +0.000 HD
ENDBRANCH  16  18
ENDBRANCH  12  16
ENDBRANCH   1  12
TORSDOF 8
ENDMDL
MODEL 6
REMARK VINA RESULT:      -5.4      2.160      5.002
REMARK  Name = 
REMARK  8 active torsions:
REMARK  status: ('A' for Active; 'I' for Inactive)
REMARK    1  A    between atoms: N_1  and  CA_2
REMARK    2  A    between atoms: CA_2  and  C_3
REMARK    3  A    between atoms: CA_2  and  C_6
REMARK    4  A    between atoms: C_3  and  OXT_5
REMARK    5  A    between atoms: C_7  and  C_8
REMARK    6  A    between atoms: C_8  and  O_10
REMARK    7  A    between atoms: C_11  and  C_12
REMARK    8  A    between atoms: C_12  and  O_14
REMARK                            x       y       z     vdW  Elec       q    Type
REMARK                         _______ _______ _______ _____ _____    ______ ____
ROOT
ATOM      1  C   UNL     1       4.702   4.668  17.740  0.00  0.00    +0.000 C 
ATOM      2  C   UNL     1       3.340   4.355  17.123  0.00  0.00    +0.000 C 
ATOM      3  C   UNL     1       4.267   3.227  17.527  0.00  0.00    +0.000 C 
ENDROOT
BRANCH   2   4
ATOM      4  C   UNL     1       2.125   4.696  17.889  0.00  0.00    +0.000 C 
ATOM      5  O   UNL     1       2.094   5.688  18.602  0.00  0.00    +0.000 OA
BRANCH   4   6
ATOM      6  O   UNL     1       1.114   3.816  17.770  0.00  0.00    +0.000 OA
ATOM      7  H   UNL     1       1.265   2.956  18.209  0.00  0.00    +0.000 HD
ENDBRANCH   4   6
ENDBRANCH   2   4
BRANCH   3   8
ATOM      8  C   UNL     1       4.048   2.304  18.675  0.00  0.00    +0.000 C 
ATOM      9  O   UNL     1       3.084   1.554  18.677  0.00  0.00    +0.000 OA
BRANCH   8  10
ATOM     10  O   UNL     1       4.965   2.305  19.664  0.00  0.00    +0.000 OA
ATOM     11  H   UNL     1       5.605   3.051  19.686  0.00  0.00    +0.000 HD
ENDBRANCH   8  10
ENDBRANCH   3   8
BRANCH   1  12
ATOM     12  CA  UNL     1       5.752   5.380  16.936  0.00  0.00    +0.000 C 
BRANCH  12  13
ATOM     13  N   UNL     1       5.899   6.786  17.346  0.00  0.00    +0.000 NA
ATOM     14  H1  UNL     1       5.946   7.366  16.505  0.00  0.00    +0.000 HD
ATOM     15  H2  UNL     1       6.830   6.903  17.757  0.00  0.00    +0.000 HD
ENDBRANCH  12  13
BRANCH  12  16
ATOM     16  C   UNL     1       7.109   4.652  17.066  0.00  0.00    +0.000 C 
ATOM     17  O   UNL     1       7.884   4.498  16.130  0.00  0.00    +0.000 OA
BRANCH  16  18
ATOM     18  OXT UNL     1       7.406   4.260  18.325  0.00  0.00    +0.000 OA
ATOM     19  HXT UNL     1       6.749   3.670  18.742  0.00  0.00    +0.000 HD
ENDBRANCH  16  18
ENDBRANCH  12  16
ENDBRANCH   1  12
TORSDOF 8
ENDMDL
MODEL 7
REMARK VINA RESULT:      -5.4      0.841      1.361
REMARK  Name = 
REMARK  8 active torsions:
REMARK  status: ('A' for Active; 'I' for Inactive)
REMARK    1  A    between atoms: N_1  and  CA_2
REMARK    2  A    between atoms: CA_2  and  C_3
REMARK    3  A    between atoms: CA_2  and  C_6
REMARK    4  A    between atoms: C_3  and  OXT_5
REMARK    5  A    between atoms: C_7  and  C_8
REMARK    6  A    between atoms: C_8  and  O_10
REMARK    7  A    between atoms: C_11  and  C_12
REMARK    8  A    between atoms: C_12  and  O_14
REMARK                            x       y       z     vdW  Elec       q    Type
REMARK                         _______ _______ _______ _____ _____    ______ ____
ROOT
ATOM      1  C   UNL     1       5.010   4.309  18.053  0.00  0.00    +0.000 C 
ATOM      2  C   UNL     1       5.803   4.001  16.785  0.00  0.00    +0.000 C 
ATOM      3  C   UNL     1       4.636   4.964  16.734  0.00  0.00    +0.000 C 
ENDROOT
BRANCH   2   4
ATOM      4  C   UNL     1       7.208   4.451  16.707  0.00  0.00    +0.000 C 
ATOM      5  O   UNL     1       7.612   5.070  15.733  0.00  0.00    +0.000 OA
BRANCH   4   6
ATOM      6  O   UNL     1       7.980   4.082  17.745  0.00  0.00    +0.000 OA
ATOM      7  H   UNL     1       8.294   3.157  17.714  0.00  0.00    +0.000 HD
ENDBRANCH   4   6
ENDBRANCH   2   4
BRANCH   3   8
ATOM      8  C   UNL     1       4.745   6.438  16.540  0.00  0.00    +0.000 C 
ATOM      9  O   UNL     1       4.453   7.195  17.453  0.00  0.00    +0.000 OA
BRANCH   8  10
ATOM     10  O   UNL     1       5.211   6.881  15.355  0.00  0.00    +0.000 OA
ATOM     11  H   UNL     1       5.472   6.205  14.690  0.00  0.00    +0.000 HD
ENDBRANCH   8  10
ENDBRANCH   3   8
BRANCH   1  12
ATOM     12  CA  UNL     1       4.220   3.228  18.733  0.00  0.00    +0.000 C 
BRANCH  12  13
ATOM     13  N   UNL     1       5.041   2.466  19.688  0.00  0.00    +0.000 NA
ATOM     14  H1  UNL     1       4.430   1.822  20.198  0.00  0.00    +0.000 HD
ATOM     15  H2  UNL     1       5.357   3.108  20.421  0.00  0.00    +0.000 HD
ENDBRANCH  12  13
BRANCH  12  16
ATOM     16  C   UNL     1       2.999   3.836  19.460  0.00  0.00    +0.000 C 
ATOM     17  O   UNL     1       2.910   5.023  19.751  0.00  0.00    +0.000 OA
BRANCH  16  18
ATOM     18  OXT UNL     1       1.996   2.958  19.683  0.00  0.00    +0.000 OA
ATOM     19  HXT UNL     1       1.151   3.357  19.966  0.00  0.00    +0.000 HD
ENDBRANCH  16  18
ENDBRANCH  12  16
ENDBRANCH   1  12
TORSDOF 8
ENDMDL
MODEL 8
REMARK VINA RESULT:      -5.4      2.131      5.016
REMARK  Name = 
REMARK  8 active torsions:
REMARK  status: ('A' for Active; 'I' for Inactive)
REMARK    1  A    between atoms: N_1  and  CA_2
REMARK    2  A    between atoms: CA_2  and  C_3
REMARK    3  A    between atoms: CA_2  and  C_6
REMARK    4  A    between atoms: C_3  and  OXT_5
REMARK    5  A    between atoms: C_7  and  C_8
REMARK    6  A    between atoms: C_8  and  O_10
REMARK    7  A    between atoms: C_11  and  C_12
REMARK    8  A    between atoms: C_12  and  O_14
REMARK                            x       y       z     vdW  Elec       q    Type
REMARK                         _______ _______ _______ _____ _____    ______ ____
ROOT
ATOM      1  C   UNL     1       5.551   4.892  19.168  0.00  0.00    +0.000 C 
ATOM      2  C   UNL     1       4.294   5.315  18.412  0.00  0.00    +0.000 C 
ATOM      3  C   UNL     1       4.921   3.963  18.145  0.00  0.00    +0.000 C 
ENDROOT
BRANCH   2   4
ATOM      4  C   UNL     1       3.036   5.472  19.169  0.00  0.00    +0.000 C 
ATOM      5  O   UNL     1       1.997   4.973  18.763  0.00  0.00    +0.000 OA
BRANCH   4   6
ATOM      6  O   UNL     1       3.132   6.230  20.277  0.00  0.00    +0.000 OA
ATOM      7  H   UNL     1       3.119   5.733  21.117  0.00  0.00    +0.000 HD
ENDBRANCH   4   6
ENDBRANCH   2   4
BRANCH   3   8
ATOM      8  C   UNL     1       4.337   2.651  18.542  0.00  0.00    +0.000 C 
ATOM      9  O   UNL     1       3.466   2.139  17.854  0.00  0.00    +0.000 OA
BRANCH   8  10
ATOM     10  O   UNL     1       4.832   2.051  19.643  0.00  0.00    +0.000 OA
ATOM     11  H   UNL     1       5.348   1.223  19.513  0.00  0.00    +0.000 HD
ENDBRANCH   8  10
ENDBRANCH   3   8
BRANCH   1  12
ATOM     12  CA  UNL     1       6.840   5.640  18.976  0.00  0.00    +0.000 C 
BRANCH  12  13
ATOM     13  N   UNL     1       7.706   5.557  20.163  0.00  0.00    +0.000 NA
ATOM     14  H1  UNL     1       7.427   6.292  20.818  0.00  0.00    +0.000 HD
ATOM     15  H2  UNL     1       8.651   5.842  19.889  0.00  0.00    +0.000 HD
ENDBRANCH  12  13
BRANCH  12  16
ATOM     16  C   UNL     1       7.592   5.098  17.739  0.00  0.00    +0.000 C 
ATOM     17  O   UNL     1       8.273   4.080  17.757  0.00  0.00    +0.000 OA
BRANCH  16  18
ATOM     18  OXT UNL     1       7.375   5.805  16.608  0.00  0.00    +0.000 OA
ATOM     19  HXT UNL     1       7.049   5.284  15.849  0.00  0.00    +0.000 HD
ENDBRANCH  16  18
ENDBRANCH  12  16
ENDBRANCH   1  12
TORSDOF 8
ENDMDL
MODEL 9
REMARK VINA RESULT:      -5.3      1.934      4.552
REMARK  Name = 
REMARK  8 active torsions:
REMARK  status: ('A' for Active; 'I' for Inactive)
REMARK    1  A    between atoms: N_1  and  CA_2
REMARK    2  A    between atoms: CA_2  and  C_3
REMARK    3  A    between atoms: CA_2  and  C_6
REMARK    4  A    between atoms: C_3  and  OXT_5
REMARK    5  A    between atoms: C_7  and  C_8
REMARK    6  A    between atoms: C_8  and  O_10
REMARK    7  A    between atoms: C_11  and  C_12
REMARK    8  A    between atoms: C_12  and  O_14
REMARK                            x       y       z     vdW  Elec       q    Type
REMARK                         _______ _______ _______ _____ _____    ______ ____
ROOT
ATOM      1  C   UNL     1       5.000   4.018  17.874  0.00  0.00    +0.000 C 
ATOM      2  C   UNL     1       4.479   4.030  19.309  0.00  0.00    +0.000 C 
ATOM      3  C   UNL     1       3.622   4.577  18.187  0.00  0.00    +0.000 C 
ENDROOT
BRANCH   2   4
ATOM      4  C   UNL     1       4.196   2.738  19.966  0.00  0.00    +0.000 C 
ATOM      5  O   UNL     1       3.109   2.524  20.482  0.00  0.00    +0.000 OA
BRANCH   4   6
ATOM      6  O   UNL     1       5.229   1.875  19.987  0.00  0.00    +0.000 OA
ATOM      7  H   UNL     1       4.982   0.944  20.150  0.00  0.00    +0.000 HD
ENDBRANCH   4   6
ENDBRANCH   2   4
BRANCH   3   8
ATOM      8  C   UNL     1       2.385   3.935  17.658  0.00  0.00    +0.000 C 
ATOM      9  O   UNL     1       2.417   3.338  16.593  0.00  0.00    +0.000 OA
BRANCH   8  10
ATOM     10  O   UNL     1       1.270   4.007  18.414  0.00  0.00    +0.000 OA
ATOM     11  H   UNL     1       1.231   4.715  19.095  0.00  0.00    +0.000 HD
ENDBRANCH   8  10
ENDBRANCH   3   8
BRANCH   1  12
ATOM     12  CA  UNL     1       6.199   4.840  17.496  0.00  0.00    +0.000 C 
BRANCH  12  13
ATOM     13  N   UNL     1       7.447   4.268  18.028  0.00  0.00    +0.000 NA
ATOM     14  H1  UNL     1       8.036   3.989  17.240  0.00  0.00    +0.000 HD
ATOM     15  H2  UNL     1       7.224   3.374  18.474  0.00  0.00    +0.000 HD
ENDBRANCH  12  13
BRANCH  12  16
ATOM     16  C   UNL     1       6.295   4.969  15.959  0.00  0.00    +0.000 C 
ATOM     17  O   UNL     1       7.252   5.474  15.384  0.00  0.00    +0.000 OA
BRANCH  16  18
ATOM     18  OXT UNL     1       5.263   4.406  15.293  0.00  0.00    +0.000 OA
ATOM     19  HXT UNL     1       4.380   4.577  15.675  0.00  0.00    +0.000 HD
ENDBRANCH  16  18
ENDBRANCH  12  16
ENDBRANCH   1  12
TORSDOF 8
ENDMDL
