MODEL 1
REMARK VINA RESULT:      -7.5      0.000      0.000
REMARK  Name = 
REMARK  5 active torsions:
REMARK  status: ('A' for Active; 'I' for Inactive)
REMARK    1  A    between atoms: C_2  and  O_3
REMARK    2  A    between atoms: C_2  and  C_4
REMARK    3  A    between atoms: C_6  and  N_8
REMARK    4  A    between atoms: N_8  and  C_9
REMARK    5  A    between atoms: C_13  and  C_14
REMARK                            x       y       z     vdW  Elec       q    Type
REMARK                         _______ _______ _______ _____ _____    ______ ____
ROOT
ATOM      1  N   UNL     1       4.108   6.491  17.554  0.00  0.00    +0.000 N 
ATOM      2  H   UNL     1       4.325   7.402  17.957  0.00  0.00    +0.000 HD
ENDROOT
BRANCH   1   3
ATOM      3  C   UNL     1       3.212   5.793  18.398  0.00  0.00    +0.000 A 
ATOM      4  C   UNL     1       2.737   6.446  19.540  0.00  0.00    +0.000 A 
ATOM      5  C   UNL     1       1.828   5.821  20.394  0.00  0.00    +0.000 A 
ATOM      6  C   UNL     1       1.405   4.520  20.130  0.00  0.00    +0.000 A 
ATOM      7  C   UNL     1       1.905   3.822  19.022  0.00  0.00    +0.000 A 
ATOM      8  C   UNL     1       2.823   4.464  18.172  0.00  0.00    +0.000 A 
BRANCH   7   9
ATOM      9  C   UNL     1       1.466   2.409  18.728  0.00  0.00    +0.000 C 
ATOM     10  F   UNL     1       2.072   1.865  17.635  0.00  0.00    +0.000 F 
ATOM     11  F   UNL     1       1.731   1.559  19.760  0.00  0.00    +0.000 F 
ATOM     12  F   UNL     1       0.127   2.314  18.500  0.00  0.00    +0.000 F 
ENDBRANCH   7   9
ENDBRANCH   1   3
BRANCH   1  15
ATOM     13  C   UNL     1       6.273   5.320  17.610  0.00  0.00    +0.000 C 
ATOM     14 CL   UNL     1       6.274   5.133  19.350  0.00  0.00    +0.000 Cl
ATOM     15  C   UNL     1       5.243   5.931  16.990  0.00  0.00    +0.000 C 
ATOM     16 CL   UNL     1       5.108   6.098  15.270  0.00  0.00    +0.000 Cl
BRANCH  13  18
ATOM     17  O   UNL     1       7.676   4.808  15.711  0.00  0.00    +0.000 OA
ATOM     18  C   UNL     1       7.447   4.728  16.907  0.00  0.00    +0.000 C 
BRANCH  18  19
ATOM     19  O   UNL     1       8.279   4.055  17.738  0.00  0.00    +0.000 OA
ATOM     20  H   UNL     1       9.200   4.384  17.722  0.00  0.00    +0.000 HD
ENDBRANCH  18  19
ENDBRANCH  13  18
ENDBRANCH   1  15
TORSDOF 5
ENDMDL
MODEL 2
REMARK VINA RESULT:      -7.5      2.333      2.767
REMARK  Name = 
REMARK  5 active torsions:
REMARK  status: ('A' for Active; 'I' for Inactive)
REMARK    1  A    between atoms: C_2  and  O_3
REMARK    2  A    between atoms: C_2  and  C_4
REMARK    3  A    between atoms: C_6  and  N_8
REMARK    4  A    between atoms: N_8  and  C_9
REMARK    5  A    between atoms: C_13  and  C_14
REMARK                            x       y       z     vdW  Elec       q    Type
REMARK                         _______ _______ _______ _____ _____    ______ ____
ROOT
ATOM      1  N   UNL     1       4.913   3.139  17.429  0.00  0.00    +0.000 N 
ATOM      2  H   UNL     1       4.882   2.325  16.816  0.00  0.00    +0.000 HD
ENDROOT
BRANCH   1   3
ATOM      3  C   UNL     1       3.671   3.290  18.091  0.00  0.00    +0.000 A 
ATOM      4  C   UNL     1       2.566   3.697  17.337  0.00  0.00    +0.000 A 
ATOM      5  C   UNL     1       1.310   3.833  17.927  0.00  0.00    +0.000 A 
ATOM      6  C   UNL     1       1.150   3.592  19.290  0.00  0.00    +0.000 A 
ATOM      7  C   UNL     1       2.250   3.236  20.081  0.00  0.00    +0.000 A 
ATOM      8  C   UNL     1       3.512   3.105  19.472  0.00  0.00    +0.000 A 
BRANCH   7   9
ATOM      9  C   UNL     1       2.098   2.982  21.561  0.00  0.00    +0.000 C 
ATOM     10  F   UNL     1       2.390   4.066  22.333  0.00  0.00    +0.000 F 
ATOM     11  F   UNL     1       0.828   2.618  21.895  0.00  0.00    +0.000 F 
ATOM     12  F   UNL     1       2.903   1.978  22.004  0.00  0.00    +0.000 F 
ENDBRANCH   7   9
ENDBRANCH   1   3
BRANCH   1  15
ATOM     13  C   UNL     1       6.266   5.196  17.396  0.00  0.00    +0.000 C 
ATOM     14 CL   UNL     1       6.358   5.319  19.139  0.00  0.00    +0.000 Cl
ATOM     15  C   UNL     1       5.601   4.176  16.818  0.00  0.00    +0.000 C 
ATOM     16 CL   UNL     1       5.516   3.920  15.106  0.00  0.00    +0.000 Cl
BRANCH  13  18
ATOM     17  O   UNL     1       7.725   6.077  15.684  0.00  0.00    +0.000 OA
ATOM     18  C   UNL     1       6.997   6.258  16.646  0.00  0.00    +0.000 C 
BRANCH  18  19
ATOM     19  O   UNL     1       6.786   7.500  17.144  0.00  0.00    +0.000 OA
ATOM     20  H   UNL     1       5.938   7.591  17.622  0.00  0.00    +0.000 HD
ENDBRANCH  18  19
ENDBRANCH  13  18
ENDBRANCH   1  15
TORSDOF 5
ENDMDL
MODEL 3
REMARK VINA RESULT:      -7.4      4.247      5.710
REMARK  Name = 
REMARK  5 active torsions:
REMARK  status: ('A' for Active; 'I' for Inactive)
REMARK    1  A    between atoms: C_2  and  O_3
REMARK    2  A    between atoms: C_2  and  C_4
REMARK    3  A    between atoms: C_6  and  N_8
REMARK    4  A    between atoms: N_8  and  C_9
REMARK    5  A    between atoms: C_13  and  C_14
REMARK                            x       y       z     vdW  Elec       q    Type
REMARK                         _______ _______ _______ _____ _____    ______ ____
ROOT
ATOM      1  N   UNL     1       2.235   4.147  17.987  0.00  0.00    +0.000 N 
ATOM      2  H   UNL     1       1.786   3.639  17.225  0.00  0.00    +0.000 HD
ENDROOT
BRANCH   1   3
ATOM      3  C   UNL     1       3.326   4.896  17.487  0.00  0.00    +0.000 A 
ATOM      4  C   UNL     1       3.357   6.271  17.745  0.00  0.00    +0.000 A 
ATOM      5  C   UNL     1       4.420   7.058  17.305  0.00  0.00    +0.000 A 
ATOM      6  C   UNL     1       5.457   6.481  16.572  0.00  0.00    +0.000 A 
ATOM      7  C   UNL     1       5.426   5.118  16.253  0.00  0.00    +0.000 A 
ATOM      8  C   UNL     1       4.345   4.337  16.701  0.00  0.00    +0.000 A 
BRANCH   7   9
ATOM      9  C   UNL     1       6.534   4.480  15.450  0.00  0.00    +0.000 C 
ATOM     10  F   UNL     1       6.932   5.224  14.381  0.00  0.00    +0.000 F 
ATOM     11  F   UNL     1       7.655   4.267  16.194  0.00  0.00    +0.000 F 
ATOM     12  F   UNL     1       6.182   3.263  14.950  0.00  0.00    +0.000 F 
ENDBRANCH   7   9
ENDBRANCH   1   3
BRANCH   1  15
ATOM     13  C   UNL     1       2.073   3.721  20.406  0.00  0.00    +0.000 C 
ATOM     14 CL   UNL     1       1.643   5.371  20.800  0.00  0.00    +0.000 Cl
ATOM     15  C   UNL     1       2.288   3.358  19.126  0.00  0.00    +0.000 C 
ATOM     16 CL   UNL     1       2.640   1.738  18.623  0.00  0.00    +0.000 Cl
BRANCH  13  18
ATOM     17  O   UNL     1       3.141   2.247  21.995  0.00  0.00    +0.000 OA
ATOM     18  C   UNL     1       2.134   2.787  21.567  0.00  0.00    +0.000 C 
BRANCH  18  19
ATOM     19  O   UNL     1       0.924   2.567  22.135  0.00  0.00    +0.000 OA
ATOM     20  H   UNL     1       0.465   1.777  21.787  0.00  0.00    +0.000 HD
ENDBRANCH  18  19
ENDBRANCH  13  18
ENDBRANCH   1  15
TORSDOF 5
ENDMDL
MODEL 4
REMARK VINA RESULT:      -7.4      4.383      5.909
REMARK  Name = 
REMARK  5 active torsions:
REMARK  status: ('A' for Active; 'I' for Inactive)
REMARK    1  A    between atoms: C_2  and  O_3
REMARK    2  A    between atoms: C_2  and  C_4
REMARK    3  A    between atoms: C_6  and  N_8
REMARK    4  A    between atoms: N_8  and  C_9
REMARK    5  A    between atoms: C_13  and  C_14
REMARK                            x       y       z     vdW  Elec       q    Type
REMARK                         _______ _______ _______ _____ _____    ______ ____
ROOT
ATOM      1  N   UNL     1       5.038   3.371  19.409  0.00  0.00    +0.000 N 
ATOM      2  H   UNL     1       5.210   3.656  20.373  0.00  0.00    +0.000 HD
ENDROOT
BRANCH   1   3
ATOM      3  C   UNL     1       5.731   4.230  18.523  0.00  0.00    +0.000 A 
ATOM      4  C   UNL     1       6.441   5.306  19.067  0.00  0.00    +0.000 A 
ATOM      5  C   UNL     1       7.169   6.169  18.248  0.00  0.00    +0.000 A 
ATOM      6  C   UNL     1       7.170   5.983  16.867  0.00  0.00    +0.000 A 
ATOM      7  C   UNL     1       6.424   4.947  16.290  0.00  0.00    +0.000 A 
ATOM      8  C   UNL     1       5.692   4.086  17.129  0.00  0.00    +0.000 A 
BRANCH   7   9
ATOM      9  C   UNL     1       6.404   4.738  14.795  0.00  0.00    +0.000 C 
ATOM     10  F   UNL     1       5.353   5.341  14.173  0.00  0.00    +0.000 F 
ATOM     11  F   UNL     1       7.524   5.226  14.190  0.00  0.00    +0.000 F 
ATOM     12  F   UNL     1       6.338   3.422  14.453  0.00  0.00    +0.000 F 
ENDBRANCH   7   9
ENDBRANCH   1   3
BRANCH   1  15
ATOM     13  C   UNL     1       2.600   3.690  19.535  0.00  0.00    +0.000 C 
ATOM     14 CL   UNL     1       2.714   5.314  20.178  0.00  0.00    +0.000 Cl
ATOM     15  C   UNL     1       3.715   2.989  19.248  0.00  0.00    +0.000 C 
ATOM     16 CL   UNL     1       3.712   1.409  18.537  0.00  0.00    +0.000 Cl
BRANCH  13  18
ATOM     17  O   UNL     1       0.734   2.890  18.226  0.00  0.00    +0.000 OA
ATOM     18  C   UNL     1       1.212   3.195  19.306  0.00  0.00    +0.000 C 
BRANCH  18  19
ATOM     19  O   UNL     1       0.483   3.113  20.445  0.00  0.00    +0.000 OA
ATOM     20  H   UNL     1       0.752   3.757  21.129  0.00  0.00    +0.000 HD
ENDBRANCH  18  19
ENDBRANCH  13  18
ENDBRANCH   1  15
TORSDOF 5
ENDMDL
MODEL 5
REMARK VINA RESULT:      -7.4      0.698      1.268
REMARK  Name = 
REMARK  5 active torsions:
REMARK  status: ('A' for Active; 'I' for Inactive)
REMARK    1  A    between atoms: C_2  and  O_3
REMARK    2  A    between atoms: C_2  and  C_4
REMARK    3  A    between atoms: C_6  and  N_8
REMARK    4  A    between atoms: N_8  and  C_9
REMARK    5  A    between atoms: C_13  and  C_14
REMARK                            x       y       z     vdW  Elec       q    Type
REMARK                         _______ _______ _______ _____ _____    ______ ____
ROOT
ATOM      1  N   UNL     1       3.663   6.807  17.720  0.00  0.00    +0.000 N 
ATOM      2  H   UNL     1       3.717   7.730  18.151  0.00  0.00    +0.000 HD
ENDROOT
BRANCH   1   3
ATOM      3  C   UNL     1       2.903   5.939  18.539  0.00  0.00    +0.000 A 
ATOM      4  C   UNL     1       2.455   6.418  19.774  0.00  0.00    +0.000 A 
ATOM      5  C   UNL     1       1.677   5.621  20.612  0.00  0.00    +0.000 A 
ATOM      6  C   UNL     1       1.360   4.316  20.235  0.00  0.00    +0.000 A 
ATOM      7  C   UNL     1       1.840   3.791  19.028  0.00  0.00    +0.000 A 
ATOM      8  C   UNL     1       2.627   4.607  18.195  0.00  0.00    +0.000 A 
BRANCH   7   9
ATOM      9  C   UNL     1       1.517   2.377  18.609  0.00  0.00    +0.000 C 
ATOM     10  F   UNL     1       0.185   2.148  18.441  0.00  0.00    +0.000 F 
ATOM     11  F   UNL     1       2.105   2.041  17.427  0.00  0.00    +0.000 F 
ATOM     12  F   UNL     1       1.944   1.454  19.515  0.00  0.00    +0.000 F 
ENDBRANCH   7   9
ENDBRANCH   1   3
BRANCH   1  15
ATOM     13  C   UNL     1       5.957   5.915  17.732  0.00  0.00    +0.000 C 
ATOM     14 CL   UNL     1       5.926   5.499  19.431  0.00  0.00    +0.000 Cl
ATOM     15  C   UNL     1       4.878   6.472  17.145  0.00  0.00    +0.000 C 
ATOM     16 CL   UNL     1       4.779   6.848  15.457  0.00  0.00    +0.000 Cl
BRANCH  13  18
ATOM     17  O   UNL     1       7.715   4.459  16.941  0.00  0.00    +0.000 OA
ATOM     18  C   UNL     1       7.220   5.571  17.017  0.00  0.00    +0.000 C 
BRANCH  18  19
ATOM     19  O   UNL     1       7.810   6.644  16.437  0.00  0.00    +0.000 OA
ATOM     20  H   UNL     1       8.608   6.420  15.918  0.00  0.00    +0.000 HD
ENDBRANCH  18  19
ENDBRANCH  13  18
ENDBRANCH   1  15
TORSDOF 5
ENDMDL
MODEL 6
REMARK VINA RESULT:      -7.3      2.216      2.875
REMARK  Name = 
REMARK  5 active torsions:
REMARK  status: ('A' for Active; 'I' for Inactive)
REMARK    1  A    between atoms: C_2  and  O_3
REMARK    2  A    between atoms: C_2  and  C_4
REMARK    3  A    between atoms: C_6  and  N_8
REMARK    4  A    between atoms: N_8  and  C_9
REMARK    5  A    between atoms: C_13  and  C_14
REMARK                            x       y       z     vdW  Elec       q    Type
REMARK                         _______ _______ _______ _____ _____    ______ ____
ROOT
ATOM      1  N   UNL     1       4.304   5.045  16.821  0.00  0.00    +0.000 N 
ATOM      2  H   UNL     1       3.578   5.460  16.237  0.00  0.00    +0.000 HD
ENDROOT
BRANCH   1   3
ATOM      3  C   UNL     1       3.731   4.089  17.692  0.00  0.00    +0.000 A 
ATOM      4  C   UNL     1       3.922   2.734  17.405  0.00  0.00    +0.000 A 
ATOM      5  C   UNL     1       3.408   1.745  18.243  0.00  0.00    +0.000 A 
ATOM      6  C   UNL     1       2.666   2.103  19.368  0.00  0.00    +0.000 A 
ATOM      7  C   UNL     1       2.413   3.451  19.652  0.00  0.00    +0.000 A 
ATOM      8  C   UNL     1       2.936   4.437  18.795  0.00  0.00    +0.000 A 
BRANCH   7   9
ATOM      9  C   UNL     1       1.603   3.856  20.859  0.00  0.00    +0.000 C 
ATOM     10  F   UNL     1       0.951   2.817  21.453  0.00  0.00    +0.000 F 
ATOM     11  F   UNL     1       2.371   4.418  21.833  0.00  0.00    +0.000 F 
ATOM     12  F   UNL     1       0.646   4.777  20.560  0.00  0.00    +0.000 F 
ENDBRANCH   7   9
ENDBRANCH   1   3
BRANCH   1  15
ATOM     13  C   UNL     1       6.557   5.902  17.319  0.00  0.00    +0.000 C 
ATOM     14 CL   UNL     1       7.361   4.402  16.912  0.00  0.00    +0.000 Cl
ATOM     15  C   UNL     1       5.217   6.010  17.214  0.00  0.00    +0.000 C 
ATOM     16 CL   UNL     1       4.336   7.470  17.517  0.00  0.00    +0.000 Cl
BRANCH  13  18
ATOM     17  O   UNL     1       7.638   8.053  17.124  0.00  0.00    +0.000 OA
ATOM     18  C   UNL     1       7.461   7.013  17.735  0.00  0.00    +0.000 C 
BRANCH  18  19
ATOM     19  O   UNL     1       8.109   6.762  18.899  0.00  0.00    +0.000 OA
ATOM     20  H   UNL     1       8.877   7.346  19.053  0.00  0.00    +0.000 HD
ENDBRANCH  18  19
ENDBRANCH  13  18
ENDBRANCH   1  15
TORSDOF 5
ENDMDL
MODEL 7
REMARK VINA RESULT:      -7.3      4.507      6.184
REMARK  Name = 
REMARK  5 active torsions:
REMARK  status: ('A' for Active; 'I' for Inactive)
REMARK    1  A    between atoms: C_2  and  O_3
REMARK    2  A    between atoms: C_2  and  C_4
REMARK    3  A    between atoms: C_6  and  N_8
REMARK    4  A    between atoms: N_8  and  C_9
REMARK    5  A    between atoms: C_13  and  C_14
REMARK                            x       y       z     vdW  Elec       q    Type
REMARK                         _______ _______ _______ _____ _____    ______ ____
ROOT
ATOM      1  N   UNL     1       3.163   3.991  17.640  0.00  0.00    +0.000 N 
ATOM      2  H   UNL     1       2.694   3.560  16.844  0.00  0.00    +0.000 HD
ENDROOT
BRANCH   1   3
ATOM      3  C   UNL     1       4.509   4.275  17.309  0.00  0.00    +0.000 A 
ATOM      4  C   UNL     1       4.938   4.012  16.004  0.00  0.00    +0.000 A 
ATOM      5  C   UNL     1       6.244   4.298  15.609  0.00  0.00    +0.000 A 
ATOM      6  C   UNL     1       7.150   4.825  16.528  0.00  0.00    +0.000 A 
ATOM      7  C   UNL     1       6.764   5.048  17.856  0.00  0.00    +0.000 A 
ATOM      8  C   UNL     1       5.444   4.751  18.240  0.00  0.00    +0.000 A 
BRANCH   7   9
ATOM      9  C   UNL     1       7.735   5.607  18.867  0.00  0.00    +0.000 C 
ATOM     10  F   UNL     1       8.821   4.812  19.079  0.00  0.00    +0.000 F 
ATOM     11  F   UNL     1       8.230   6.821  18.494  0.00  0.00    +0.000 F 
ATOM     12  F   UNL     1       7.165   5.796  20.089  0.00  0.00    +0.000 F 
ENDBRANCH   7   9
ENDBRANCH   1   3
BRANCH   1  15
ATOM     13  C   UNL     1       2.298   3.969  19.945  0.00  0.00    +0.000 C 
ATOM     14 CL   UNL     1       2.116   5.708  20.033  0.00  0.00    +0.000 Cl
ATOM     15  C   UNL     1       2.761   3.387  18.821  0.00  0.00    +0.000 C 
ATOM     16 CL   UNL     1       2.904   1.674  18.605  0.00  0.00    +0.000 Cl
BRANCH  13  18
ATOM     17  O   UNL     1       2.561   3.007  22.145  0.00  0.00    +0.000 OA
ATOM     18  C   UNL     1       1.869   3.224  21.164  0.00  0.00    +0.000 C 
BRANCH  18  19
ATOM     19  O   UNL     1       0.592   2.779  21.092  0.00  0.00    +0.000 OA
ATOM     20  H   UNL     1       0.100   2.861  21.933  0.00  0.00    +0.000 HD
ENDBRANCH  18  19
ENDBRANCH  13  18
ENDBRANCH   1  15
TORSDOF 5
ENDMDL
MODEL 8
REMARK VINA RESULT:      -7.2      4.543      5.859
REMARK  Name = 
REMARK  5 active torsions:
REMARK  status: ('A' for Active; 'I' for Inactive)
REMARK    1  A    between atoms: C_2  and  O_3
REMARK    2  A    between atoms: C_2  and  C_4
REMARK    3  A    between atoms: C_6  and  N_8
REMARK    4  A    between atoms: N_8  and  C_9
REMARK    5  A    between atoms: C_13  and  C_14
REMARK                            x       y       z     vdW  Elec       q    Type
REMARK                         _______ _______ _______ _____ _____    ______ ____
ROOT
ATOM      1  N   UNL     1       4.591   3.819  18.947  0.00  0.00    +0.000 N 
ATOM      2  H   UNL     1       4.925   4.308  19.777  0.00  0.00    +0.000 HD
ENDROOT
BRANCH   1   3
ATOM      3  C   UNL     1       4.833   4.606  17.796  0.00  0.00    +0.000 A 
ATOM      4  C   UNL     1       4.636   5.988  17.888  0.00  0.00    +0.000 A 
ATOM      5  C   UNL     1       4.888   6.819  16.797  0.00  0.00    +0.000 A 
ATOM      6  C   UNL     1       5.313   6.272  15.587  0.00  0.00    +0.000 A 
ATOM      7  C   UNL     1       5.467   4.886  15.450  0.00  0.00    +0.000 A 
ATOM      8  C   UNL     1       5.206   4.060  16.559  0.00  0.00    +0.000 A 
BRANCH   7   9
ATOM      9  C   UNL     1       5.914   4.276  14.145  0.00  0.00    +0.000 C 
ATOM     10  F   UNL     1       4.910   4.134  13.236  0.00  0.00    +0.000 F 
ATOM     11  F   UNL     1       6.872   5.023  13.527  0.00  0.00    +0.000 F 
ATOM     12  F   UNL     1       6.453   3.036  14.306  0.00  0.00    +0.000 F 
ENDBRANCH   7   9
ENDBRANCH   1   3
BRANCH   1  15
ATOM     13  C   UNL     1       2.295   3.674  19.824  0.00  0.00    +0.000 C 
ATOM     14 CL   UNL     1       2.260   5.337  20.371  0.00  0.00    +0.000 Cl
ATOM     15  C   UNL     1       3.391   3.179  19.215  0.00  0.00    +0.000 C 
ATOM     16 CL   UNL     1       3.499   1.575  18.568  0.00  0.00    +0.000 Cl
BRANCH  13  18
ATOM     17  O   UNL     1       0.286   2.499  19.178  0.00  0.00    +0.000 OA
ATOM     18  C   UNL     1       1.037   2.906  20.049  0.00  0.00    +0.000 C 
BRANCH  18  19
ATOM     19  O   UNL     1       0.774   2.691  21.361  0.00  0.00    +0.000 OA
ATOM     20  H   UNL     1       0.458   1.786  21.554  0.00  0.00    +0.000 HD
ENDBRANCH  18  19
ENDBRANCH  13  18
ENDBRANCH   1  15
TORSDOF 5
ENDMDL
MODEL 9
REMARK VINA RESULT:      -7.2      2.370      2.847
REMARK  Name = 
REMARK  5 active torsions:
REMARK  status: ('A' for Active; 'I' for Inactive)
REMARK    1  A    between atoms: C_2  and  O_3
REMARK    2  A    between atoms: C_2  and  C_4
REMARK    3  A    between atoms: C_6  and  N_8
REMARK    4  A    between atoms: N_8  and  C_9
REMARK    5  A    between atoms: C_13  and  C_14
REMARK                            x       y       z     vdW  Elec       q    Type
REMARK                         _______ _______ _______ _____ _____    ______ ____
ROOT
ATOM      1  N   UNL     1       5.854   4.009  17.799  0.00  0.00    +0.000 N 
ATOM      2  H   UNL     1       6.151   3.330  17.099  0.00  0.00    +0.000 HD
ENDROOT
BRANCH   1   3
ATOM      3  C   UNL     1       4.498   3.788  18.137  0.00  0.00    +0.000 A 
ATOM      4  C   UNL     1       3.563   3.706  17.100  0.00  0.00    +0.000 A 
ATOM      5  C   UNL     1       2.217   3.459  17.367  0.00  0.00    +0.000 A 
ATOM      6  C   UNL     1       1.783   3.321  18.685  0.00  0.00    +0.000 A 
ATOM      7  C   UNL     1       2.687   3.452  19.747  0.00  0.00    +0.000 A 
ATOM      8  C   UNL     1       4.041   3.704  19.461  0.00  0.00    +0.000 A 
BRANCH   7   9
ATOM      9  C   UNL     1       2.232   3.317  21.179  0.00  0.00    +0.000 C 
ATOM     10  F   UNL     1       0.932   2.931  21.306  0.00  0.00    +0.000 F 
ATOM     11  F   UNL     1       2.962   2.397  21.870  0.00  0.00    +0.000 F 
ATOM     12  F   UNL     1       2.346   4.482  21.875  0.00  0.00    +0.000 F 
ENDBRANCH   7   9
ENDBRANCH   1   3
BRANCH   1  15
ATOM     13  C   UNL     1       7.201   6.008  18.298  0.00  0.00    +0.000 C 
ATOM     14 CL   UNL     1       7.714   5.431  19.868  0.00  0.00    +0.000 Cl
ATOM     15  C   UNL     1       6.395   5.255  17.523  0.00  0.00    +0.000 C 
ATOM     16 CL   UNL     1       5.894   5.698  15.925  0.00  0.00    +0.000 Cl
BRANCH  13  18
ATOM     17  O   UNL     1       7.513   7.921  16.856  0.00  0.00    +0.000 OA
ATOM     18  C   UNL     1       7.751   7.336  17.899  0.00  0.00    +0.000 C 
BRANCH  18  19
ATOM     19  O   UNL     1       8.584   7.866  18.828  0.00  0.00    +0.000 OA
ATOM     20  H   UNL     1       8.187   7.929  19.719  0.00  0.00    +0.000 HD
ENDBRANCH  18  19
ENDBRANCH  13  18
ENDBRANCH   1  15
TORSDOF 5
ENDMDL
