MODEL 1
REMARK VINA RESULT:      -6.9      0.000      0.000
REMARK  Name = 
REMARK  7 active torsions:
REMARK  status: ('A' for Active; 'I' for Inactive)
REMARK    1  A    between atoms: C_2  and  O_3
REMARK    2  A    between atoms: C_2  and  C_4
REMARK    3  A    between atoms: C_6  and  C_7
REMARK    4  A    between atoms: C_7  and  S_8
REMARK    5  A    between atoms: C_11  and  O_12
REMARK    6  A    between atoms: O_12  and  C_13
REMARK    7  A    between atoms: C_13  and  C_14
REMARK                            x       y       z     vdW  Elec       q    Type
REMARK                         _______ _______ _______ _____ _____    ______ ____
ROOT
ATOM      1  C   UNL     1       5.661   5.095  17.754  0.00  0.00    +0.000 A 
ATOM      2  C   UNL     1       6.423   4.607  16.672  0.00  0.00    +0.000 A 
ATOM      3  C   UNL     1       6.290   5.140  15.383  0.00  0.00    +0.000 A 
ATOM      4  C   UNL     1       5.372   6.170  15.176  0.00  0.00    +0.000 A 
ATOM      5  C   UNL     1       4.619   6.672  16.238  0.00  0.00    +0.000 A 
ATOM      6  C   UNL     1       4.736   6.131  17.527  0.00  0.00    +0.000 A 
ENDROOT
BRANCH   1   8
ATOM      7  O   UNL     1       6.637   4.920  19.919  0.00  0.00    +0.000 OA
ATOM      8  C   UNL     1       5.905   4.431  19.074  0.00  0.00    +0.000 C 
BRANCH   8   9
ATOM      9  O   UNL     1       5.260   3.265  19.278  0.00  0.00    +0.000 OA
ATOM     10  H   UNL     1       5.524   2.556  18.655  0.00  0.00    +0.000 HD
ENDBRANCH   8   9
ENDBRANCH   1   8
BRANCH   3  11
ATOM     11  C   UNL     1       7.114   4.613  14.238  0.00  0.00    +0.000 C 
BRANCH  11  12
ATOM     12  S   UNL     1       6.112   3.694  13.042  0.00  0.00    +0.000 S 
ATOM     13  H   UNL     1       5.803   4.744  12.267  0.00  0.00    +0.000 HD
ENDBRANCH  11  12
ENDBRANCH   3  11
BRANCH   6  14
ATOM     14  O   UNL     1       3.988   6.583  18.589  0.00  0.00    +0.000 OA
BRANCH  14  15
ATOM     15  C   UNL     1       2.563   6.568  18.404  0.00  0.00    +0.000 C 
BRANCH  15  16
ATOM     16  C   UNL     1       2.001   5.266  18.908  0.00  0.00    +0.000 A 
ATOM     17  C   UNL     1       1.692   4.224  18.020  0.00  0.00    +0.000 A 
ATOM     18  C   UNL     1       1.226   3.001  18.504  0.00  0.00    +0.000 A 
ATOM     19  C   UNL     1       1.070   2.806  19.876  0.00  0.00    +0.000 A 
ATOM     20  C   UNL     1       1.389   3.828  20.766  0.00  0.00    +0.000 A 
ATOM     21  C   UNL     1       1.858   5.050  20.286  0.00  0.00    +0.000 A 
ENDBRANCH  15  16
ENDBRANCH  14  15
ENDBRANCH   6  14
TORSDOF 7
ENDMDL
MODEL 2
REMARK VINA RESULT:      -6.9      1.647      2.341
REMARK  Name = 
REMARK  7 active torsions:
REMARK  status: ('A' for Active; 'I' for Inactive)
REMARK    1  A    between atoms: C_2  and  O_3
REMARK    2  A    between atoms: C_2  and  C_4
REMARK    3  A    between atoms: C_6  and  C_7
REMARK    4  A    between atoms: C_7  and  S_8
REMARK    5  A    between atoms: C_11  and  O_12
REMARK    6  A    between atoms: O_12  and  C_13
REMARK    7  A    between atoms: C_13  and  C_14
REMARK                            x       y       z     vdW  Elec       q    Type
REMARK                         _______ _______ _______ _____ _____    ______ ____
ROOT
ATOM      1  C   UNL     1       6.747   5.228  17.799  0.00  0.00    +0.000 A 
ATOM      2  C   UNL     1       7.232   5.351  16.481  0.00  0.00    +0.000 A 
ATOM      3  C   UNL     1       6.575   4.750  15.399  0.00  0.00    +0.000 A 
ATOM      4  C   UNL     1       5.420   4.008  15.646  0.00  0.00    +0.000 A 
ATOM      5  C   UNL     1       4.920   3.886  16.943  0.00  0.00    +0.000 A 
ATOM      6  C   UNL     1       5.583   4.472  18.031  0.00  0.00    +0.000 A 
ENDROOT
BRANCH   1   8
ATOM      7  O   UNL     1       8.161   6.953  18.633  0.00  0.00    +0.000 OA
ATOM      8  C   UNL     1       7.550   5.921  18.856  0.00  0.00    +0.000 C 
BRANCH   8   9
ATOM      9  O   UNL     1       7.552   5.341  20.073  0.00  0.00    +0.000 OA
ATOM     10  H   UNL     1       6.902   5.729  20.695  0.00  0.00    +0.000 HD
ENDBRANCH   8   9
ENDBRANCH   1   8
BRANCH   3  11
ATOM     11  C   UNL     1       7.101   4.894  13.995  0.00  0.00    +0.000 C 
BRANCH  11  12
ATOM     12  S   UNL     1       6.313   3.736  12.848  0.00  0.00    +0.000 S 
ATOM     13  H   UNL     1       5.522   3.143  13.755  0.00  0.00    +0.000 HD
ENDBRANCH  11  12
ENDBRANCH   3  11
BRANCH   6  14
ATOM     14  O   UNL     1       5.133   4.347  19.326  0.00  0.00    +0.000 OA
BRANCH  14  15
ATOM     15  C   UNL     1       4.637   3.049  19.694  0.00  0.00    +0.000 C 
BRANCH  15  16
ATOM     16  C   UNL     1       3.132   3.080  19.746  0.00  0.00    +0.000 A 
ATOM     17  C   UNL     1       2.459   4.027  20.530  0.00  0.00    +0.000 A 
ATOM     18  C   UNL     1       1.064   4.083  20.526  0.00  0.00    +0.000 A 
ATOM     19  C   UNL     1       0.332   3.198  19.736  0.00  0.00    +0.000 A 
ATOM     20  C   UNL     1       0.992   2.264  18.941  0.00  0.00    +0.000 A 
ATOM     21  C   UNL     1       2.385   2.208  18.941  0.00  0.00    +0.000 A 
ENDBRANCH  15  16
ENDBRANCH  14  15
ENDBRANCH   6  14
TORSDOF 7
ENDMDL
MODEL 3
REMARK VINA RESULT:      -6.9      0.109      1.330
REMARK  Name = 
REMARK  7 active torsions:
REMARK  status: ('A' for Active; 'I' for Inactive)
REMARK    1  A    between atoms: C_2  and  O_3
REMARK    2  A    between atoms: C_2  and  C_4
REMARK    3  A    between atoms: C_6  and  C_7
REMARK    4  A    between atoms: C_7  and  S_8
REMARK    5  A    between atoms: C_11  and  O_12
REMARK    6  A    between atoms: O_12  and  C_13
REMARK    7  A    between atoms: C_13  and  C_14
REMARK                            x       y       z     vdW  Elec       q    Type
REMARK                         _______ _______ _______ _____ _____    ______ ____
ROOT
ATOM      1  C   UNL     1       5.587   5.129  17.774  0.00  0.00    +0.000 A 
ATOM      2  C   UNL     1       6.356   4.587  16.724  0.00  0.00    +0.000 A 
ATOM      3  C   UNL     1       6.269   5.087  15.418  0.00  0.00    +0.000 A 
ATOM      4  C   UNL     1       5.390   6.140  15.162  0.00  0.00    +0.000 A 
ATOM      5  C   UNL     1       4.631   6.696  16.193  0.00  0.00    +0.000 A 
ATOM      6  C   UNL     1       4.702   6.187  17.498  0.00  0.00    +0.000 A 
ENDROOT
BRANCH   1   8
ATOM      7  O   UNL     1       5.153   3.507  19.463  0.00  0.00    +0.000 OA
ATOM      8  C   UNL     1       5.780   4.495  19.117  0.00  0.00    +0.000 C 
BRANCH   8   9
ATOM      9  O   UNL     1       6.694   5.075  19.919  0.00  0.00    +0.000 OA
ATOM     10  H   UNL     1       7.074   5.899  19.551  0.00  0.00    +0.000 HD
ENDBRANCH   8   9
ENDBRANCH   1   8
BRANCH   3  11
ATOM     11  C   UNL     1       7.101   4.503  14.306  0.00  0.00    +0.000 C 
BRANCH  11  12
ATOM     12  S   UNL     1       6.082   3.703  13.041  0.00  0.00    +0.000 S 
ATOM     13  H   UNL     1       6.282   4.622  12.085  0.00  0.00    +0.000 HD
ENDBRANCH  11  12
ENDBRANCH   3  11
BRANCH   6  14
ATOM     14  O   UNL     1       3.946   6.693  18.531  0.00  0.00    +0.000 OA
BRANCH  14  15
ATOM     15  C   UNL     1       2.521   6.591  18.372  0.00  0.00    +0.000 C 
BRANCH  15  16
ATOM     16  C   UNL     1       2.047   5.264  18.904  0.00  0.00    +0.000 A 
ATOM     17  C   UNL     1       1.861   5.067  20.280  0.00  0.00    +0.000 A 
ATOM     18  C   UNL     1       1.367   3.852  20.758  0.00  0.00    +0.000 A 
ATOM     19  C   UNL     1       1.049   2.828  19.866  0.00  0.00    +0.000 A 
ATOM     20  C   UNL     1       1.216   3.020  18.497  0.00  0.00    +0.000 A 
ATOM     21  C   UNL     1       1.707   4.233  18.017  0.00  0.00    +0.000 A 
ENDBRANCH  15  16
ENDBRANCH  14  15
ENDBRANCH   6  14
TORSDOF 7
ENDMDL
MODEL 4
REMARK VINA RESULT:      -6.9      1.283      1.862
REMARK  Name = 
REMARK  7 active torsions:
REMARK  status: ('A' for Active; 'I' for Inactive)
REMARK    1  A    between atoms: C_2  and  O_3
REMARK    2  A    between atoms: C_2  and  C_4
REMARK    3  A    between atoms: C_6  and  C_7
REMARK    4  A    between atoms: C_7  and  S_8
REMARK    5  A    between atoms: C_11  and  O_12
REMARK    6  A    between atoms: O_12  and  C_13
REMARK    7  A    between atoms: C_13  and  C_14
REMARK                            x       y       z     vdW  Elec       q    Type
REMARK                         _______ _______ _______ _____ _____    ______ ____
ROOT
ATOM      1  C   UNL     1       6.647   5.642  17.840  0.00  0.00    +0.000 A 
ATOM      2  C   UNL     1       7.237   5.420  16.579  0.00  0.00    +0.000 A 
ATOM      3  C   UNL     1       6.478   5.002  15.478  0.00  0.00    +0.000 A 
ATOM      4  C   UNL     1       5.109   4.795  15.649  0.00  0.00    +0.000 A 
ATOM      5  C   UNL     1       4.507   5.022  16.888  0.00  0.00    +0.000 A 
ATOM      6  C   UNL     1       5.266   5.424  17.997  0.00  0.00    +0.000 A 
ENDROOT
BRANCH   1   8
ATOM      7  O   UNL     1       8.339   7.027  18.783  0.00  0.00    +0.000 OA
ATOM      8  C   UNL     1       7.578   6.084  18.926  0.00  0.00    +0.000 C 
BRANCH   8   9
ATOM      9  O   UNL     1       7.521   5.384  20.077  0.00  0.00    +0.000 OA
ATOM     10  H   UNL     1       7.505   4.413  19.946  0.00  0.00    +0.000 HD
ENDBRANCH   8   9
ENDBRANCH   1   8
BRANCH   3  11
ATOM     11  C   UNL     1       7.120   4.774  14.135  0.00  0.00    +0.000 C 
BRANCH  11  12
ATOM     12  S   UNL     1       6.125   3.692  13.077  0.00  0.00    +0.000 S 
ATOM     13  H   UNL     1       7.143   2.941  12.632  0.00  0.00    +0.000 HD
ENDBRANCH  11  12
ENDBRANCH   3  11
BRANCH   6  14
ATOM     14  O   UNL     1       4.709   5.628  19.238  0.00  0.00    +0.000 OA
BRANCH  14  15
ATOM     15  C   UNL     1       3.303   5.926  19.253  0.00  0.00    +0.000 C 
BRANCH  15  16
ATOM     16  C   UNL     1       2.543   4.750  19.806  0.00  0.00    +0.000 A 
ATOM     17  C   UNL     1       2.688   4.365  21.147  0.00  0.00    +0.000 A 
ATOM     18  C   UNL     1       1.936   3.309  21.663  0.00  0.00    +0.000 A 
ATOM     19  C   UNL     1       1.029   2.634  20.848  0.00  0.00    +0.000 A 
ATOM     20  C   UNL     1       0.865   3.018  19.519  0.00  0.00    +0.000 A 
ATOM     21  C   UNL     1       1.613   4.075  19.001  0.00  0.00    +0.000 A 
ENDBRANCH  15  16
ENDBRANCH  14  15
ENDBRANCH   6  14
TORSDOF 7
ENDMDL
MODEL 5
REMARK VINA RESULT:      -6.9      1.066      1.398
REMARK  Name = 
REMARK  7 active torsions:
REMARK  status: ('A' for Active; 'I' for Inactive)
REMARK    1  A    between atoms: C_2  and  O_3
REMARK    2  A    between atoms: C_2  and  C_4
REMARK    3  A    between atoms: C_6  and  C_7
REMARK    4  A    between atoms: C_7  and  S_8
REMARK    5  A    between atoms: C_11  and  O_12
REMARK    6  A    between atoms: O_12  and  C_13
REMARK    7  A    between atoms: C_13  and  C_14
REMARK                            x       y       z     vdW  Elec       q    Type
REMARK                         _______ _______ _______ _____ _____    ______ ____
ROOT
ATOM      1  C   UNL     1       4.957   4.142  17.103  0.00  0.00    +0.000 A 
ATOM      2  C   UNL     1       5.549   3.687  15.907  0.00  0.00    +0.000 A 
ATOM      3  C   UNL     1       5.858   4.567  14.861  0.00  0.00    +0.000 A 
ATOM      4  C   UNL     1       5.560   5.921  15.017  0.00  0.00    +0.000 A 
ATOM      5  C   UNL     1       4.986   6.390  16.200  0.00  0.00    +0.000 A 
ATOM      6  C   UNL     1       4.659   5.510  17.242  0.00  0.00    +0.000 A 
ENDROOT
BRANCH   1   8
ATOM      7  O   UNL     1       3.940   2.146  17.912  0.00  0.00    +0.000 OA
ATOM      8  C   UNL     1       4.680   3.091  18.133  0.00  0.00    +0.000 C 
BRANCH   8   9
ATOM      9  O   UNL     1       5.303   3.245  19.318  0.00  0.00    +0.000 OA
ATOM     10  H   UNL     1       6.217   3.590  19.240  0.00  0.00    +0.000 HD
ENDBRANCH   8   9
ENDBRANCH   1   8
BRANCH   3  11
ATOM     11  C   UNL     1       6.495   4.069  13.591  0.00  0.00    +0.000 C 
BRANCH  11  12
ATOM     12  S   UNL     1       5.273   3.412  12.427  0.00  0.00    +0.000 S 
ATOM     13  H   UNL     1       6.155   2.960  11.523  0.00  0.00    +0.000 HD
ENDBRANCH  11  12
ENDBRANCH   3  11
BRANCH   6  14
ATOM     14  O   UNL     1       4.065   5.935  18.408  0.00  0.00    +0.000 OA
BRANCH  14  15
ATOM     15  C   UNL     1       2.629   5.981  18.400  0.00  0.00    +0.000 C 
BRANCH  15  16
ATOM     16  C   UNL     1       2.084   4.902  19.298  0.00  0.00    +0.000 A 
ATOM     17  C   UNL     1       1.240   3.902  18.790  0.00  0.00    +0.000 A 
ATOM     18  C   UNL     1       0.787   2.875  19.619  0.00  0.00    +0.000 A 
ATOM     19  C   UNL     1       1.176   2.833  20.957  0.00  0.00    +0.000 A 
ATOM     20  C   UNL     1       2.026   3.812  21.467  0.00  0.00    +0.000 A 
ATOM     21  C   UNL     1       2.482   4.838  20.641  0.00  0.00    +0.000 A 
ENDBRANCH  15  16
ENDBRANCH  14  15
ENDBRANCH   6  14
TORSDOF 7
ENDMDL
MODEL 6
REMARK VINA RESULT:      -6.8      1.635      2.126
REMARK  Name = 
REMARK  7 active torsions:
REMARK  status: ('A' for Active; 'I' for Inactive)
REMARK    1  A    between atoms: C_2  and  O_3
REMARK    2  A    between atoms: C_2  and  C_4
REMARK    3  A    between atoms: C_6  and  C_7
REMARK    4  A    between atoms: C_7  and  S_8
REMARK    5  A    between atoms: C_11  and  O_12
REMARK    6  A    between atoms: O_12  and  C_13
REMARK    7  A    between atoms: C_13  and  C_14
REMARK                            x       y       z     vdW  Elec       q    Type
REMARK                         _______ _______ _______ _____ _____    ______ ____
ROOT
ATOM      1  C   UNL     1       6.851   5.320  17.685  0.00  0.00    +0.000 A 
ATOM      2  C   UNL     1       7.304   5.403  16.352  0.00  0.00    +0.000 A 
ATOM      3  C   UNL     1       6.622   4.769  15.306  0.00  0.00    +0.000 A 
ATOM      4  C   UNL     1       5.475   4.033  15.604  0.00  0.00    +0.000 A 
ATOM      5  C   UNL     1       5.006   3.951  16.916  0.00  0.00    +0.000 A 
ATOM      6  C   UNL     1       5.695   4.571  17.969  0.00  0.00    +0.000 A 
ENDROOT
BRANCH   1   8
ATOM      7  O   UNL     1       8.117   7.166  18.498  0.00  0.00    +0.000 OA
ATOM      8  C   UNL     1       7.679   6.046  18.701  0.00  0.00    +0.000 C 
BRANCH   8   9
ATOM      9  O   UNL     1       7.905   5.391  19.857  0.00  0.00    +0.000 OA
ATOM     10  H   UNL     1       8.829   5.462  20.175  0.00  0.00    +0.000 HD
ENDBRANCH   8   9
ENDBRANCH   1   8
BRANCH   3  11
ATOM     11  C   UNL     1       7.114   4.870  13.885  0.00  0.00    +0.000 C 
BRANCH  11  12
ATOM     12  S   UNL     1       6.289   3.685  12.792  0.00  0.00    +0.000 S 
ATOM     13  H   UNL     1       5.572   4.589  12.107  0.00  0.00    +0.000 HD
ENDBRANCH  11  12
ENDBRANCH   3  11
BRANCH   6  14
ATOM     14  O   UNL     1       5.276   4.485  19.277  0.00  0.00    +0.000 OA
BRANCH  14  15
ATOM     15  C   UNL     1       4.766   3.207  19.690  0.00  0.00    +0.000 C 
BRANCH  15  16
ATOM     16  C   UNL     1       3.261   3.248  19.719  0.00  0.00    +0.000 A 
ATOM     17  C   UNL     1       2.502   2.291  19.030  0.00  0.00    +0.000 A 
ATOM     18  C   UNL     1       1.109   2.306  19.111  0.00  0.00    +0.000 A 
ATOM     19  C   UNL     1       0.463   3.270  19.884  0.00  0.00    +0.000 A 
ATOM     20  C   UNL     1       1.209   4.216  20.584  0.00  0.00    +0.000 A 
ATOM     21  C   UNL     1       2.601   4.202  20.507  0.00  0.00    +0.000 A 
ENDBRANCH  15  16
ENDBRANCH  14  15
ENDBRANCH   6  14
TORSDOF 7
ENDMDL
MODEL 7
REMARK VINA RESULT:      -6.7      1.000      1.699
REMARK  Name = 
REMARK  7 active torsions:
REMARK  status: ('A' for Active; 'I' for Inactive)
REMARK    1  A    between atoms: C_2  and  O_3
REMARK    2  A    between atoms: C_2  and  C_4
REMARK    3  A    between atoms: C_6  and  C_7
REMARK    4  A    between atoms: C_7  and  S_8
REMARK    5  A    between atoms: C_11  and  O_12
REMARK    6  A    between atoms: O_12  and  C_13
REMARK    7  A    between atoms: C_13  and  C_14
REMARK                            x       y       z     vdW  Elec       q    Type
REMARK                         _______ _______ _______ _____ _____    ______ ____
ROOT
ATOM      1  C   UNL     1       4.981   4.298  17.086  0.00  0.00    +0.000 A 
ATOM      2  C   UNL     1       5.614   3.893  15.893  0.00  0.00    +0.000 A 
ATOM      3  C   UNL     1       5.900   4.805  14.869  0.00  0.00    +0.000 A 
ATOM      4  C   UNL     1       5.536   6.141  15.042  0.00  0.00    +0.000 A 
ATOM      5  C   UNL     1       4.919   6.561  16.222  0.00  0.00    +0.000 A 
ATOM      6  C   UNL     1       4.617   5.648  17.243  0.00  0.00    +0.000 A 
ENDROOT
BRANCH   1   8
ATOM      7  O   UNL     1       4.013   2.263  17.856  0.00  0.00    +0.000 OA
ATOM      8  C   UNL     1       4.736   3.217  18.093  0.00  0.00    +0.000 C 
BRANCH   8   9
ATOM      9  O   UNL     1       5.369   3.355  19.275  0.00  0.00    +0.000 OA
ATOM     10  H   UNL     1       5.985   4.116  19.305  0.00  0.00    +0.000 HD
ENDBRANCH   8   9
ENDBRANCH   1   8
BRANCH   3  11
ATOM     11  C   UNL     1       6.582   4.360  13.602  0.00  0.00    +0.000 C 
BRANCH  11  12
ATOM     12  S   UNL     1       5.485   3.382  12.544  0.00  0.00    +0.000 S 
ATOM     13  H   UNL     1       6.343   3.248  11.522  0.00  0.00    +0.000 HD
ENDBRANCH  11  12
ENDBRANCH   3  11
BRANCH   6  14
ATOM     14  O   UNL     1       3.983   6.023  18.405  0.00  0.00    +0.000 OA
BRANCH  14  15
ATOM     15  C   UNL     1       2.549   5.942  18.392  0.00  0.00    +0.000 C 
BRANCH  15  16
ATOM     16  C   UNL     1       2.097   4.835  19.307  0.00  0.00    +0.000 A 
ATOM     17  C   UNL     1       2.505   4.799  20.648  0.00  0.00    +0.000 A 
ATOM     18  C   UNL     1       2.034   3.800  21.501  0.00  0.00    +0.000 A 
ATOM     19  C   UNL     1       1.149   2.834  21.025  0.00  0.00    +0.000 A 
ATOM     20  C   UNL     1       0.725   2.870  19.699  0.00  0.00    +0.000 A 
ATOM     21  C   UNL     1       1.192   3.868  18.845  0.00  0.00    +0.000 A 
ENDBRANCH  15  16
ENDBRANCH  14  15
ENDBRANCH   6  14
TORSDOF 7
ENDMDL
MODEL 8
REMARK VINA RESULT:      -6.7      1.561      2.085
REMARK  Name = 
REMARK  7 active torsions:
REMARK  status: ('A' for Active; 'I' for Inactive)
REMARK    1  A    between atoms: C_2  and  O_3
REMARK    2  A    between atoms: C_2  and  C_4
REMARK    3  A    between atoms: C_6  and  C_7
REMARK    4  A    between atoms: C_7  and  S_8
REMARK    5  A    between atoms: C_11  and  O_12
REMARK    6  A    between atoms: O_12  and  C_13
REMARK    7  A    between atoms: C_13  and  C_14
REMARK                            x       y       z     vdW  Elec       q    Type
REMARK                         _______ _______ _______ _____ _____    ______ ____
ROOT
ATOM      1  C   UNL     1       6.870   5.351  17.560  0.00  0.00    +0.000 A 
ATOM      2  C   UNL     1       7.280   5.399  16.212  0.00  0.00    +0.000 A 
ATOM      3  C   UNL     1       6.565   4.738  15.204  0.00  0.00    +0.000 A 
ATOM      4  C   UNL     1       5.427   4.012  15.558  0.00  0.00    +0.000 A 
ATOM      5  C   UNL     1       5.000   3.965  16.886  0.00  0.00    +0.000 A 
ATOM      6  C   UNL     1       5.723   4.611  17.900  0.00  0.00    +0.000 A 
ENDROOT
BRANCH   1   8
ATOM      7  O   UNL     1       8.101   7.244  18.316  0.00  0.00    +0.000 OA
ATOM      8  C   UNL     1       7.730   6.101  18.529  0.00  0.00    +0.000 C 
BRANCH   8   9
ATOM      9  O   UNL     1       8.065   5.443  19.657  0.00  0.00    +0.000 OA
ATOM     10  H   UNL     1       8.105   4.470  19.547  0.00  0.00    +0.000 HD
ENDBRANCH   8   9
ENDBRANCH   1   8
BRANCH   3  11
ATOM     11  C   UNL     1       7.011   4.801  13.767  0.00  0.00    +0.000 C 
BRANCH  11  12
ATOM     12  S   UNL     1       6.205   3.541  12.746  0.00  0.00    +0.000 S 
ATOM     13  H   UNL     1       5.393   4.380  12.087  0.00  0.00    +0.000 HD
ENDBRANCH  11  12
ENDBRANCH   3  11
BRANCH   6  14
ATOM     14  O   UNL     1       5.346   4.560  19.223  0.00  0.00    +0.000 OA
BRANCH  14  15
ATOM     15  C   UNL     1       4.230   5.388  19.589  0.00  0.00    +0.000 C 
BRANCH  15  16
ATOM     16  C   UNL     1       3.111   4.526  20.110  0.00  0.00    +0.000 A 
ATOM     17  C   UNL     1       1.771   4.872  19.881  0.00  0.00    +0.000 A 
ATOM     18  C   UNL     1       0.743   4.036  20.319  0.00  0.00    +0.000 A 
ATOM     19  C   UNL     1       1.043   2.847  20.982  0.00  0.00    +0.000 A 
ATOM     20  C   UNL     1       2.371   2.487  21.201  0.00  0.00    +0.000 A 
ATOM     21  C   UNL     1       3.400   3.319  20.762  0.00  0.00    +0.000 A 
ENDBRANCH  15  16
ENDBRANCH  14  15
ENDBRANCH   6  14
TORSDOF 7
ENDMDL
MODEL 9
REMARK VINA RESULT:      -6.7      1.517      1.916
REMARK  Name = 
REMARK  7 active torsions:
REMARK  status: ('A' for Active; 'I' for Inactive)
REMARK    1  A    between atoms: C_2  and  O_3
REMARK    2  A    between atoms: C_2  and  C_4
REMARK    3  A    between atoms: C_6  and  C_7
REMARK    4  A    between atoms: C_7  and  S_8
REMARK    5  A    between atoms: C_11  and  O_12
REMARK    6  A    between atoms: O_12  and  C_13
REMARK    7  A    between atoms: C_13  and  C_14
REMARK                            x       y       z     vdW  Elec       q    Type
REMARK                         _______ _______ _______ _____ _____    ______ ____
ROOT
ATOM      1  C   UNL     1       6.556   5.744  16.742  0.00  0.00    +0.000 A 
ATOM      2  C   UNL     1       7.066   5.451  15.460  0.00  0.00    +0.000 A 
ATOM      3  C   UNL     1       6.431   4.534  14.612  0.00  0.00    +0.000 A 
ATOM      4  C   UNL     1       5.275   3.896  15.062  0.00  0.00    +0.000 A 
ATOM      5  C   UNL     1       4.751   4.185  16.323  0.00  0.00    +0.000 A 
ATOM      6  C   UNL     1       5.391   5.089  17.182  0.00  0.00    +0.000 A 
ENDROOT
BRANCH   1   8
ATOM      7  O   UNL     1       7.613   7.848  17.104  0.00  0.00    +0.000 OA
ATOM      8  C   UNL     1       7.338   6.742  17.540  0.00  0.00    +0.000 C 
BRANCH   8   9
ATOM      9  O   UNL     1       7.712   6.350  18.775  0.00  0.00    +0.000 OA
ATOM     10  H   UNL     1       8.147   7.056  19.297  0.00  0.00    +0.000 HD
ENDBRANCH   8   9
ENDBRANCH   1   8
BRANCH   3  11
ATOM     11  C   UNL     1       6.983   4.233  13.243  0.00  0.00    +0.000 C 
BRANCH  11  12
ATOM     12  S   UNL     1       5.835   3.251  12.246  0.00  0.00    +0.000 S 
ATOM     13  H   UNL     1       5.051   4.272  11.870  0.00  0.00    +0.000 HD
ENDBRANCH  11  12
ENDBRANCH   3  11
BRANCH   6  14
ATOM     14  O   UNL     1       4.918   5.374  18.442  0.00  0.00    +0.000 OA
BRANCH  14  15
ATOM     15  C   UNL     1       3.607   5.960  18.501  0.00  0.00    +0.000 C 
BRANCH  15  16
ATOM     16  C   UNL     1       2.642   4.978  19.112  0.00  0.00    +0.000 A 
ATOM     17  C   UNL     1       1.834   4.166  18.303  0.00  0.00    +0.000 A 
ATOM     18  C   UNL     1       0.985   3.220  18.878  0.00  0.00    +0.000 A 
ATOM     19  C   UNL     1       0.940   3.072  20.264  0.00  0.00    +0.000 A 
ATOM     20  C   UNL     1       1.750   3.863  21.076  0.00  0.00    +0.000 A 
ATOM     21  C   UNL     1       2.601   4.807  20.503  0.00  0.00    +0.000 A 
ENDBRANCH  15  16
ENDBRANCH  14  15
ENDBRANCH   6  14
TORSDOF 7
ENDMDL
